MODEL 1
REMARK VINA RESULT:      -7.4      0.000      0.000
REMARK  Name = *****
REMARK                            x       y       z     vdW  Elec       q    Type
REMARK                         _______ _______ _______ _____ _____    ______ ____
ROOT
ATOM      1  C   LIG    1       25.423 -22.827   6.857  0.00  0.00    +0.068 C 
ATOM      2  C   LIG    1       23.925 -23.222   7.067  0.00  0.00    +0.044 C 
ATOM      3  C   LIG    1       23.307 -24.209   6.088  0.00  0.00    +0.086 C 
ATOM      4  N   LIG    1       24.123 -25.377   5.772  0.00  0.00    -0.302 NA
ATOM      5  C   LIG    1       25.386 -24.914   5.209  0.00  0.00    +0.086 C 
ATOM      6  C   LIG    1       26.202 -24.007   6.129  0.00  0.00    +0.044 C 
ENDROOT
BRANCH   1   8
ATOM      7  C   LIG    1       26.972 -20.930   6.216  0.00  0.00    +0.220 C 
ATOM      8  N   LIG    1       25.685 -21.492   6.093  0.00  0.00    -0.263 N 
ATOM      9  O   LIG    1       27.846 -21.514   6.954  0.00  0.00    -0.275 OA
BRANCH   8  10
ATOM     10  C   LIG    1       24.615 -20.794   5.410  0.00  0.00    +0.037 A 
ATOM     11  C   LIG    1       24.768 -20.369   4.083  0.00  0.00    +0.023 A 
ATOM     12  C   LIG    1       23.834 -19.488   3.488  0.00  0.00    +0.002 A 
ATOM     13  C   LIG    1       22.763 -18.988   4.223  0.00  0.00    +0.000 A 
ATOM     14  C   LIG    1       22.550 -19.468   5.511  0.00  0.00    +0.002 A 
ATOM     15  C   LIG    1       23.441 -20.408   6.081  0.00  0.00    +0.023 A 
ENDBRANCH   8  10
BRANCH   7  17
ATOM     16  C   LIG    1       28.883 -19.105   5.743  0.00  0.00    +0.013 C 
ATOM     17  C   LIG    1       27.560 -19.760   5.427  0.00  0.00    +0.093 C 
ENDBRANCH   7  17
ENDBRANCH   1   8
BRANCH   4  18
ATOM     18  C   LIG    1       24.293 -26.376   6.849  0.00  0.00    +0.089 C 
BRANCH  18  19
ATOM     19  C   LIG    1       25.404 -27.437   6.653  0.00  0.00    +0.058 C 
BRANCH  19  20
ATOM     20  C   LIG    1       24.966 -28.876   6.794  0.00  0.00    -0.009 A 
ATOM     21  S   LIG    1       25.129 -29.959   5.470  0.00  0.00    -0.102 S 
ATOM     22  C   LIG    1       24.526 -31.276   6.378  0.00  0.00    +0.045 A 
ATOM     23  C   LIG    1       24.241 -30.920   7.675  0.00  0.00    +0.008 A 
ATOM     24  C   LIG    1       24.489 -29.537   7.910  0.00  0.00    +0.011 A 
ENDBRANCH  19  20
ENDBRANCH  18  19
ENDBRANCH   4  18
BRANCH   1  25
ATOM     25  C   LIG    1       25.993 -22.708   8.351  0.00  0.00    +0.185 C 
BRANCH  25  26
ATOM     26  O   LIG    1       25.245 -21.768   9.155  0.00  0.00    -0.381 OA
ATOM     27  C   LIG    1       25.850 -20.479   9.195  0.00  0.00    +0.193 C 
ENDBRANCH  25  26
ENDBRANCH   1  25
TORSDOF 8
ENDMDL
MODEL 2
REMARK VINA RESULT:      -7.4      3.950      8.192
REMARK  Name = *****
REMARK                            x       y       z     vdW  Elec       q    Type
REMARK                         _______ _______ _______ _____ _____    ______ ____
ROOT
ATOM      1  C   LIG    1       26.105 -21.176   6.451  0.00  0.00    +0.068 C 
ATOM      2  C   LIG    1       26.084 -20.104   7.588  0.00  0.00    +0.044 C 
ATOM      3  C   LIG    1       27.065 -20.272   8.740  0.00  0.00    +0.086 C 
ATOM      4  N   LIG    1       28.432 -20.613   8.359  0.00  0.00    -0.302 NA
ATOM      5  C   LIG    1       28.399 -21.863   7.609  0.00  0.00    +0.086 C 
ATOM      6  C   LIG    1       27.553 -21.823   6.336  0.00  0.00    +0.044 C 
ENDROOT
BRANCH   1   8
ATOM      7  C   LIG    1       23.810 -21.982   7.155  0.00  0.00    +0.220 C 
ATOM      8  N   LIG    1       25.042 -22.313   6.555  0.00  0.00    -0.263 N 
ATOM      9  O   LIG    1       23.628 -20.792   7.603  0.00  0.00    -0.275 OA
BRANCH   8  10
ATOM     10  C   LIG    1       25.362 -23.677   6.183  0.00  0.00    +0.037 A 
ATOM     11  C   LIG    1       25.030 -24.171   4.913  0.00  0.00    +0.023 A 
ATOM     12  C   LIG    1       25.120 -25.553   4.623  0.00  0.00    +0.002 A 
ATOM     13  C   LIG    1       25.500 -26.461   5.607  0.00  0.00    +0.000 A 
ATOM     14  C   LIG    1       25.915 -25.977   6.844  0.00  0.00    +0.002 A 
ATOM     15  C   LIG    1       25.898 -24.587   7.111  0.00  0.00    +0.023 A 
ENDBRANCH   8  10
BRANCH   7  17
ATOM     16  C   LIG    1       21.587 -22.993   6.040  0.00  0.00    +0.013 C 
ATOM     17  C   LIG    1       22.536 -22.826   7.202  0.00  0.00    +0.093 C 
ENDBRANCH   7  17
ENDBRANCH   1   8
BRANCH   4  18
ATOM     18  C   LIG    1       29.218 -19.551   7.694  0.00  0.00    +0.089 C 
BRANCH  18  19
ATOM     19  C   LIG    1       30.680 -19.361   8.167  0.00  0.00    +0.058 C 
BRANCH  19  20
ATOM     20  C   LIG    1       30.896 -18.291   9.211  0.00  0.00    -0.009 A 
ATOM     21  S   LIG    1       32.241 -17.229   9.090  0.00  0.00    -0.102 S 
ATOM     22  C   LIG    1       31.774 -16.359  10.486  0.00  0.00    +0.045 A 
ATOM     23  C   LIG    1       30.599 -16.833  11.018  0.00  0.00    +0.008 A 
ATOM     24  C   LIG    1       30.099 -17.949  10.288  0.00  0.00    +0.011 A 
ENDBRANCH  19  20
ENDBRANCH  18  19
ENDBRANCH   4  18
BRANCH   1  25
ATOM     25  C   LIG    1       25.842 -20.318   5.122  0.00  0.00    +0.185 C 
BRANCH  25  26
ATOM     26  O   LIG    1       24.703 -20.797   4.372  0.00  0.00    -0.381 OA
ATOM     27  C   LIG    1       23.764 -19.766   4.083  0.00  0.00    +0.193 C 
ENDBRANCH  25  26
ENDBRANCH   1  25
TORSDOF 8
ENDMDL
MODEL 3
REMARK VINA RESULT:      -7.4      4.084      7.827
REMARK  Name = *****
REMARK                            x       y       z     vdW  Elec       q    Type
REMARK                         _______ _______ _______ _____ _____    ______ ____
ROOT
ATOM      1  C   LIG    1       26.521 -21.013   7.211  0.00  0.00    +0.068 C 
ATOM      2  C   LIG    1       27.664 -21.905   7.794  0.00  0.00    +0.044 C 
ATOM      3  C   LIG    1       29.060 -21.742   7.210  0.00  0.00    +0.086 C 
ATOM      4  N   LIG    1       29.507 -20.365   7.023  0.00  0.00    -0.302 NA
ATOM      5  C   LIG    1       28.565 -19.695   6.133  0.00  0.00    +0.086 C 
ATOM      6  C   LIG    1       27.123 -19.656   6.641  0.00  0.00    +0.044 C 
ENDROOT
BRANCH   1   8
ATOM      7  C   LIG    1       25.652 -23.076   6.029  0.00  0.00    +0.220 C 
ATOM      8  N   LIG    1       25.618 -21.669   6.122  0.00  0.00    -0.263 N 
ATOM      9  O   LIG    1       26.425 -23.740   6.811  0.00  0.00    -0.275 OA
BRANCH   8  10
ATOM     10  C   LIG    1       24.893 -20.864   5.160  0.00  0.00    +0.037 A 
ATOM     11  C   LIG    1       25.557 -20.264   4.080  0.00  0.00    +0.023 A 
ATOM     12  C   LIG    1       24.914 -19.293   3.278  0.00  0.00    +0.002 A 
ATOM     13  C   LIG    1       23.617 -18.878   3.570  0.00  0.00    +0.000 A 
ATOM     14  C   LIG    1       22.916 -19.526   4.582  0.00  0.00    +0.002 A 
ATOM     15  C   LIG    1       23.534 -20.552   5.336  0.00  0.00    +0.023 A 
ENDBRANCH   8  10
BRANCH   7  17
ATOM     16  C   LIG    1       25.059 -25.408   4.839  0.00  0.00    +0.013 C 
ATOM     17  C   LIG    1       24.734 -23.981   5.208  0.00  0.00    +0.093 C 
ENDBRANCH   7  17
ENDBRANCH   1   8
BRANCH   4  18
ATOM     18  C   LIG    1       29.805 -19.594   8.249  0.00  0.00    +0.089 C 
BRANCH  18  19
ATOM     19  C   LIG    1       30.471 -18.208   8.061  0.00  0.00    +0.058 C 
BRANCH  19  20
ATOM     20  C   LIG    1       30.942 -17.532   9.326  0.00  0.00    -0.009 A 
ATOM     21  S   LIG    1       32.355 -16.555   9.306  0.00  0.00    -0.102 S 
ATOM     22  C   LIG    1       32.185 -16.144  10.957  0.00  0.00    +0.045 A 
ATOM     23  C   LIG    1       31.057 -16.701  11.512  0.00  0.00    +0.008 A 
ATOM     24  C   LIG    1       30.348 -17.505  10.574  0.00  0.00    +0.011 A 
ENDBRANCH  19  20
ENDBRANCH  18  19
ENDBRANCH   4  18
BRANCH   1  25
ATOM     25  C   LIG    1       25.632 -20.654   8.497  0.00  0.00    +0.185 C 
BRANCH  25  26
ATOM     26  O   LIG    1       24.650 -21.673   8.790  0.00  0.00    -0.381 OA
ATOM     27  C   LIG    1       23.357 -21.348   8.289  0.00  0.00    +0.193 C 
ENDBRANCH  25  26
ENDBRANCH   1  25
TORSDOF 8
ENDMDL
MODEL 4
REMARK VINA RESULT:      -7.2      4.034      9.567
REMARK  Name = *****
REMARK                            x       y       z     vdW  Elec       q    Type
REMARK                         _______ _______ _______ _____ _____    ______ ____
ROOT
ATOM      1  C   LIG    1       24.867 -29.935   7.556  0.00  0.00    +0.068 C 
ATOM      2  C   LIG    1       25.760 -28.721   7.969  0.00  0.00    +0.044 C 
ATOM      3  C   LIG    1       26.251 -27.793   6.866  0.00  0.00    +0.086 C 
ATOM      4  N   LIG    1       25.248 -27.401   5.880  0.00  0.00    -0.302 NA
ATOM      5  C   LIG    1       24.726 -28.610   5.254  0.00  0.00    +0.086 C 
ATOM      6  C   LIG    1       24.073 -29.601   6.219  0.00  0.00    +0.044 C 
ENDROOT
BRANCH   1   8
ATOM      7  C   LIG    1       26.521 -31.660   8.393  0.00  0.00    +0.220 C 
ATOM      8  N   LIG    1       25.594 -31.305   7.391  0.00  0.00    -0.263 N 
ATOM      9  O   LIG    1       26.738 -30.847   9.364  0.00  0.00    -0.275 OA
BRANCH   8  10
ATOM     10  C   LIG    1       25.432 -32.103   6.192  0.00  0.00    +0.037 A 
ATOM     11  C   LIG    1       26.236 -31.879   5.066  0.00  0.00    +0.023 A 
ATOM     12  C   LIG    1       25.933 -32.483   3.823  0.00  0.00    +0.002 A 
ATOM     13  C   LIG    1       24.802 -33.281   3.679  0.00  0.00    +0.000 A 
ATOM     14  C   LIG    1       24.045 -33.582   4.806  0.00  0.00    +0.002 A 
ATOM     15  C   LIG    1       24.391 -33.040   6.067  0.00  0.00    +0.023 A 
ENDBRANCH   8  10
BRANCH   7  17
ATOM     16  C   LIG    1       28.158 -33.630   7.592  0.00  0.00    +0.013 C 
ATOM     17  C   LIG    1       27.213 -33.008   8.591  0.00  0.00    +0.093 C 
ENDBRANCH   7  17
ENDBRANCH   1   8
BRANCH   4  18
ATOM     18  C   LIG    1       24.190 -26.478   6.345  0.00  0.00    +0.089 C 
BRANCH  18  19
ATOM     19  C   LIG    1       24.125 -25.088   5.665  0.00  0.00    +0.058 C 
BRANCH  19  20
ATOM     20  C   LIG    1       24.625 -23.930   6.496  0.00  0.00    -0.009 A 
ATOM     21  S   LIG    1       23.588 -22.603   6.837  0.00  0.00    -0.102 S 
ATOM     22  C   LIG    1       24.775 -21.825   7.790  0.00  0.00    +0.045 A 
ATOM     23  C   LIG    1       25.927 -22.569   7.887  0.00  0.00    +0.008 A 
ATOM     24  C   LIG    1       25.841 -23.776   7.136  0.00  0.00    +0.011 A 
ENDBRANCH  19  20
ENDBRANCH  18  19
ENDBRANCH   4  18
BRANCH   1  25
ATOM     25  C   LIG    1       23.799 -30.038   8.749  0.00  0.00    +0.185 C 
BRANCH  25  26
ATOM     26  O   LIG    1       22.950 -31.201   8.631  0.00  0.00    -0.381 OA
ATOM     27  C   LIG    1       22.978 -32.019   9.797  0.00  0.00    +0.193 C 
ENDBRANCH  25  26
ENDBRANCH   1  25
TORSDOF 8
ENDMDL
MODEL 5
REMARK VINA RESULT:      -7.0      1.635      3.319
REMARK  Name = *****
REMARK                            x       y       z     vdW  Elec       q    Type
REMARK                         _______ _______ _______ _____ _____    ______ ____
ROOT
ATOM      1  C   LIG    1       24.692 -23.091   6.251  0.00  0.00    +0.068 C 
ATOM      2  C   LIG    1       24.292 -23.973   5.023  0.00  0.00    +0.044 C 
ATOM      3  C   LIG    1       25.184 -25.157   4.680  0.00  0.00    +0.086 C 
ATOM      4  N   LIG    1       25.598 -25.982   5.810  0.00  0.00    -0.302 NA
ATOM      5  C   LIG    1       26.318 -25.135   6.755  0.00  0.00    +0.086 C 
ATOM      6  C   LIG    1       25.510 -23.959   7.303  0.00  0.00    +0.044 C 
ENDROOT
BRANCH   1   8
ATOM      7  C   LIG    1       25.151 -21.108   4.745  0.00  0.00    +0.220 C 
ATOM      8  N   LIG    1       25.485 -21.786   5.936  0.00  0.00    -0.263 N 
ATOM      9  O   LIG    1       24.245 -21.597   3.977  0.00  0.00    -0.275 OA
BRANCH   8  10
ATOM     10  C   LIG    1       26.607 -21.372   6.755  0.00  0.00    +0.037 A 
ATOM     11  C   LIG    1       26.409 -20.579   7.894  0.00  0.00    +0.023 A 
ATOM     12  C   LIG    1       27.502 -19.976   8.560  0.00  0.00    +0.002 A 
ATOM     13  C   LIG    1       28.798 -20.122   8.072  0.00  0.00    +0.000 A 
ATOM     14  C   LIG    1       29.019 -20.975   6.996  0.00  0.00    +0.002 A 
ATOM     15  C   LIG    1       27.934 -21.640   6.376  0.00  0.00    +0.023 A 
ENDBRANCH   8  10
BRANCH   7  17
ATOM     16  C   LIG    1       24.742 -18.736   3.558  0.00  0.00    +0.013 C 
ATOM     17  C   LIG    1       25.613 -19.722   4.298  0.00  0.00    +0.093 C 
ENDBRANCH   7  17
ENDBRANCH   1   8
BRANCH   4  18
ATOM     18  C   LIG    1       24.549 -26.809   6.446  0.00  0.00    +0.089 C 
BRANCH  18  19
ATOM     19  C   LIG    1       24.358 -28.244   5.895  0.00  0.00    +0.058 C 
BRANCH  19  20
ATOM     20  C   LIG    1       24.895 -29.355   6.765  0.00  0.00    -0.009 A 
ATOM     21  S   LIG    1       25.154 -30.919   6.102  0.00  0.00    -0.102 S 
ATOM     22  C   LIG    1       25.774 -31.522   7.577  0.00  0.00    +0.045 A 
ATOM     23  C   LIG    1       25.825 -30.552   8.550  0.00  0.00    +0.008 A 
ATOM     24  C   LIG    1       25.312 -29.308   8.082  0.00  0.00    +0.011 A 
ENDBRANCH  19  20
ENDBRANCH  18  19
ENDBRANCH   4  18
BRANCH   1  25
ATOM     25  C   LIG    1       23.281 -22.713   6.915  0.00  0.00    +0.185 C 
BRANCH  25  26
ATOM     26  O   LIG    1       23.364 -21.539   7.754  0.00  0.00    -0.381 OA
ATOM     27  C   LIG    1       22.958 -20.353   7.078  0.00  0.00    +0.193 C 
ENDBRANCH  25  26
ENDBRANCH   1  25
TORSDOF 8
ENDMDL
MODEL 6
REMARK VINA RESULT:      -6.9      4.776      9.420
REMARK  Name = *****
REMARK                            x       y       z     vdW  Elec       q    Type
REMARK                         _______ _______ _______ _____ _____    ______ ____
ROOT
ATOM      1  C   LIG    1       25.600 -30.713   9.442  0.00  0.00    +0.068 C 
ATOM      2  C   LIG    1       25.336 -31.819   8.369  0.00  0.00    +0.044 C 
ATOM      3  C   LIG    1       24.206 -31.589   7.376  0.00  0.00    +0.086 C 
ATOM      4  N   LIG    1       24.147 -30.256   6.786  0.00  0.00    -0.302 NA
ATOM      5  C   LIG    1       24.004 -29.284   7.865  0.00  0.00    +0.086 C 
ATOM      6  C   LIG    1       25.139 -29.295   8.890  0.00  0.00    +0.044 C 
ENDROOT
BRANCH   1   8
ATOM      7  C   LIG    1       25.232 -32.184  11.469  0.00  0.00    +0.220 C 
ATOM      8  N   LIG    1       24.965 -30.947  10.847  0.00  0.00    -0.263 N 
ATOM      9  O   LIG    1       25.949 -33.055  10.856  0.00  0.00    -0.275 OA
BRANCH   8  10
ATOM     10  C   LIG    1       24.031 -29.997  11.418  0.00  0.00    +0.037 A 
ATOM     11  C   LIG    1       24.481 -28.958  12.245  0.00  0.00    +0.023 A 
ATOM     12  C   LIG    1       23.569 -28.176  12.993  0.00  0.00    +0.002 A 
ATOM     13  C   LIG    1       22.204 -28.449  12.956  0.00  0.00    +0.000 A 
ATOM     14  C   LIG    1       21.736 -29.418  12.073  0.00  0.00    +0.002 A 
ATOM     15  C   LIG    1       22.642 -30.150  11.269  0.00  0.00    +0.023 A 
ENDBRANCH   8  10
BRANCH   7  17
ATOM     16  C   LIG    1       25.610 -32.028  14.122  0.00  0.00    +0.013 C 
ATOM     17  C   LIG    1       24.915 -32.594  12.907  0.00  0.00    +0.093 C 
ENDBRANCH   7  17
ENDBRANCH   1   8
BRANCH   4  18
ATOM     18  C   LIG    1       25.217 -29.910   5.824  0.00  0.00    +0.089 C 
BRANCH  18  19
ATOM     19  C   LIG    1       24.947 -28.717   4.875  0.00  0.00    +0.058 C 
BRANCH  19  20
ATOM     20  C   LIG    1       25.063 -27.346   5.499  0.00  0.00    -0.009 A 
ATOM     21  S   LIG    1       26.603 -26.735   5.954  0.00  0.00    -0.102 S 
ATOM     22  C   LIG    1       25.941 -25.246   6.472  0.00  0.00    +0.045 A 
ATOM     23  C   LIG    1       24.582 -25.189   6.270  0.00  0.00    +0.008 A 
ATOM     24  C   LIG    1       24.078 -26.400   5.717  0.00  0.00    +0.011 A 
ENDBRANCH  19  20
ENDBRANCH  18  19
ENDBRANCH   4  18
BRANCH   1  25
ATOM     25  C   LIG    1       27.199 -30.693   9.574  0.00  0.00    +0.185 C 
BRANCH  25  26
ATOM     26  O   LIG    1       27.699 -29.415  10.027  0.00  0.00    -0.381 OA
ATOM     27  C   LIG    1       28.108 -29.439  11.391  0.00  0.00    +0.193 C 
ENDBRANCH  25  26
ENDBRANCH   1  25
TORSDOF 8
ENDMDL
MODEL 7
REMARK VINA RESULT:      -6.9      3.898      8.180
REMARK  Name = *****
REMARK                            x       y       z     vdW  Elec       q    Type
REMARK                         _______ _______ _______ _____ _____    ______ ____
ROOT
ATOM      1  C   LIG    1       26.519 -21.042   7.142  0.00  0.00    +0.068 C 
ATOM      2  C   LIG    1       27.579 -21.848   7.961  0.00  0.00    +0.044 C 
ATOM      3  C   LIG    1       29.014 -21.853   7.453  0.00  0.00    +0.086 C 
ATOM      4  N   LIG    1       29.540 -20.556   7.038  0.00  0.00    -0.302 NA
ATOM      5  C   LIG    1       28.687 -20.035   5.975  0.00  0.00    +0.086 C 
ATOM      6  C   LIG    1       27.222 -19.845   6.367  0.00  0.00    +0.044 C 
ENDROOT
BRANCH   1   8
ATOM      7  C   LIG    1       25.084 -21.155   5.059  0.00  0.00    +0.220 C 
ATOM      8  N   LIG    1       25.651 -21.863   6.139  0.00  0.00    -0.263 N 
ATOM      9  O   LIG    1       25.282 -19.889   4.964  0.00  0.00    -0.275 OA
BRANCH   8  10
ATOM     10  C   LIG    1       25.327 -23.253   6.386  0.00  0.00    +0.037 A 
ATOM     11  C   LIG    1       26.331 -24.233   6.396  0.00  0.00    +0.023 A 
ATOM     12  C   LIG    1       26.004 -25.609   6.399  0.00  0.00    +0.002 A 
ATOM     13  C   LIG    1       24.676 -26.024   6.351  0.00  0.00    +0.000 A 
ATOM     14  C   LIG    1       23.670 -25.065   6.429  0.00  0.00    +0.002 A 
ATOM     15  C   LIG    1       23.996 -23.690   6.502  0.00  0.00    +0.023 A 
ENDBRANCH   8  10
BRANCH   7  17
ATOM     16  C   LIG    1       23.771 -20.891   2.733  0.00  0.00    +0.013 C 
ATOM     17  C   LIG    1       24.373 -21.730   3.834  0.00  0.00    +0.093 C 
ENDBRANCH   7  17
ENDBRANCH   1   8
BRANCH   4  18
ATOM     18  C   LIG    1       29.803 -19.574   8.112  0.00  0.00    +0.089 C 
BRANCH  18  19
ATOM     19  C   LIG    1       31.051 -18.672   7.948  0.00  0.00    +0.058 C 
BRANCH  19  20
ATOM     20  C   LIG    1       31.316 -17.710   9.081  0.00  0.00    -0.009 A 
ATOM     21  S   LIG    1       30.327 -17.741  10.487  0.00  0.00    -0.102 S 
ATOM     22  C   LIG    1       31.236 -16.506  11.243  0.00  0.00    +0.045 A 
ATOM     23  C   LIG    1       32.297 -16.099  10.468  0.00  0.00    +0.008 A 
ATOM     24  C   LIG    1       32.336 -16.787   9.222  0.00  0.00    +0.011 A 
ENDBRANCH  19  20
ENDBRANCH  18  19
ENDBRANCH   4  18
BRANCH   1  25
ATOM     25  C   LIG    1       25.574 -20.409   8.273  0.00  0.00    +0.185 C 
BRANCH  25  26
ATOM     26  O   LIG    1       24.293 -21.073   8.357  0.00  0.00    -0.381 OA
ATOM     27  C   LIG    1       23.263 -20.364   7.676  0.00  0.00    +0.193 C 
ENDBRANCH  25  26
ENDBRANCH   1  25
TORSDOF 8
ENDMDL
MODEL 8
REMARK VINA RESULT:      -6.6      1.405      2.145
REMARK  Name = *****
REMARK                            x       y       z     vdW  Elec       q    Type
REMARK                         _______ _______ _______ _____ _____    ______ ____
ROOT
ATOM      1  C   LIG    1       24.659 -23.157   6.524  0.00  0.00    +0.068 C 
ATOM      2  C   LIG    1       24.175 -23.805   5.186  0.00  0.00    +0.044 C 
ATOM      3  C   LIG    1       25.068 -24.856   4.542  0.00  0.00    +0.086 C 
ATOM      4  N   LIG    1       25.613 -25.861   5.450  0.00  0.00    -0.302 NA
ATOM      5  C   LIG    1       26.391 -25.176   6.477  0.00  0.00    +0.086 C 
ATOM      6  C   LIG    1       25.600 -24.168   7.312  0.00  0.00    +0.044 C 
ENDROOT
BRANCH   1   8
ATOM      7  C   LIG    1       26.449 -21.536   7.288  0.00  0.00    +0.220 C 
ATOM      8  N   LIG    1       25.377 -21.777   6.403  0.00  0.00    -0.263 N 
ATOM      9  O   LIG    1       26.764 -22.433   8.152  0.00  0.00    -0.275 OA
BRANCH   8  10
ATOM     10  C   LIG    1       24.874 -20.742   5.523  0.00  0.00    +0.037 A 
ATOM     11  C   LIG    1       23.621 -20.155   5.749  0.00  0.00    +0.023 A 
ATOM     12  C   LIG    1       23.021 -19.323   4.774  0.00  0.00    +0.002 A 
ATOM     13  C   LIG    1       23.644 -19.102   3.549  0.00  0.00    +0.000 A 
ATOM     14  C   LIG    1       24.924 -19.606   3.346  0.00  0.00    +0.002 A 
ATOM     15  C   LIG    1       25.558 -20.376   4.350  0.00  0.00    +0.023 A 
ENDBRANCH   8  10
BRANCH   7  17
ATOM     16  C   LIG    1       28.661 -20.330   6.363  0.00  0.00    +0.013 C 
ATOM     17  C   LIG    1       27.445 -20.377   7.257  0.00  0.00    +0.093 C 
ENDBRANCH   7  17
ENDBRANCH   1   8
BRANCH   4  18
ATOM     18  C   LIG    1       24.655 -26.845   6.000  0.00  0.00    +0.089 C 
BRANCH  18  19
ATOM     19  C   LIG    1       24.551 -28.206   5.268  0.00  0.00    +0.058 C 
BRANCH  19  20
ATOM     20  C   LIG    1       24.690 -29.430   6.141  0.00  0.00    -0.009 A 
ATOM     21  S   LIG    1       25.436 -30.849   5.522  0.00  0.00    -0.102 S 
ATOM     22  C   LIG    1       25.274 -31.673   7.011  0.00  0.00    +0.045 A 
ATOM     23  C   LIG    1       24.701 -30.881   7.978  0.00  0.00    +0.008 A 
ATOM     24  C   LIG    1       24.360 -29.594   7.473  0.00  0.00    +0.011 A 
ENDBRANCH  19  20
ENDBRANCH  18  19
ENDBRANCH   4  18
BRANCH   1  25
ATOM     25  C   LIG    1       23.307 -22.983   7.368  0.00  0.00    +0.185 C 
BRANCH  25  26
ATOM     26  O   LIG    1       22.171 -23.603   6.724  0.00  0.00    -0.381 OA
ATOM     27  C   LIG    1       21.429 -22.688   5.923  0.00  0.00    +0.193 C 
ENDBRANCH  25  26
ENDBRANCH   1  25
TORSDOF 8
ENDMDL
MODEL 9
REMARK VINA RESULT:      -6.3      5.795      8.587
REMARK  Name = *****
REMARK                            x       y       z     vdW  Elec       q    Type
REMARK                         _______ _______ _______ _____ _____    ______ ____
ROOT
ATOM      1  C   LIG    1       25.186 -30.288   8.238  0.00  0.00    +0.068 C 
ATOM      2  C   LIG    1       26.108 -31.341   8.935  0.00  0.00    +0.044 C 
ATOM      3  C   LIG    1       27.401 -30.846   9.567  0.00  0.00    +0.086 C 
ATOM      4  N   LIG    1       27.284 -29.632  10.369  0.00  0.00    -0.302 NA
ATOM      5  C   LIG    1       26.762 -28.569   9.517  0.00  0.00    +0.086 C 
ATOM      6  C   LIG    1       25.393 -28.857   8.901  0.00  0.00    +0.044 C 
ENDROOT
BRANCH   1   8
ATOM      7  C   LIG    1       25.663 -31.333   5.982  0.00  0.00    +0.220 C 
ATOM      8  N   LIG    1       25.329 -30.161   6.691  0.00  0.00    -0.263 N 
ATOM      9  O   LIG    1       25.856 -32.426   6.630  0.00  0.00    -0.275 OA
BRANCH   8  10
ATOM     10  C   LIG    1       25.262 -28.871   6.033  0.00  0.00    +0.037 A 
ATOM     11  C   LIG    1       26.385 -28.338   5.383  0.00  0.00    +0.023 A 
ATOM     12  C   LIG    1       26.403 -26.992   4.947  0.00  0.00    +0.002 A 
ATOM     13  C   LIG    1       25.320 -26.152   5.192  0.00  0.00    +0.000 A 
ATOM     14  C   LIG    1       24.167 -26.690   5.756  0.00  0.00    +0.002 A 
ATOM     15  C   LIG    1       24.120 -28.056   6.124  0.00  0.00    +0.023 A 
ENDBRANCH   8  10
BRANCH   7  17
ATOM     16  C   LIG    1       26.263 -32.746   3.780  0.00  0.00    +0.013 C 
ATOM     17  C   LIG    1       25.666 -31.542   4.468  0.00  0.00    +0.093 C 
ENDBRANCH   7  17
ENDBRANCH   1   8
BRANCH   4  18
ATOM     18  C   LIG    1       26.568 -29.756  11.657  0.00  0.00    +0.089 C 
BRANCH  18  19
ATOM     19  C   LIG    1       26.345 -28.453  12.464  0.00  0.00    +0.058 C 
BRANCH  19  20
ATOM     20  C   LIG    1       24.904 -28.078  12.715  0.00  0.00    -0.009 A 
ATOM     21  S   LIG    1       23.648 -29.195  12.357  0.00  0.00    -0.102 S 
ATOM     22  C   LIG    1       22.439 -28.131  12.931  0.00  0.00    +0.045 A 
ATOM     23  C   LIG    1       22.971 -26.964  13.425  0.00  0.00    +0.008 A 
ATOM     24  C   LIG    1       24.389 -26.932  13.293  0.00  0.00    +0.011 A 
ENDBRANCH  19  20
ENDBRANCH  18  19
ENDBRANCH   4  18
BRANCH   1  25
ATOM     25  C   LIG    1       23.706 -30.788   8.600  0.00  0.00    +0.185 C 
BRANCH  25  26
ATOM     26  O   LIG    1       23.698 -32.103   9.200  0.00  0.00    -0.381 OA
ATOM     27  C   LIG    1       22.790 -32.993   8.557  0.00  0.00    +0.193 C 
ENDBRANCH  25  26
ENDBRANCH   1  25
TORSDOF 8
ENDMDL
