MODEL 1
REMARK VINA RESULT:      -1.0      0.000      0.000
REMARK  Name = *****
REMARK                            x       y       z     vdW  Elec       q    Type
REMARK                         _______ _______ _______ _____ _____    ______ ____
ROOT
ATOM      1  C   LIG    1       23.551 -29.204  11.919  0.00  0.00    +0.017 C 
ATOM      2  C   LIG    1       24.859 -28.637  12.033  0.00  0.00    +0.127 C 
ATOM      3  C   LIG    1       25.874 -28.930  11.108  0.00  0.00    +0.069 C 
ATOM      4  C   LIG    1       25.656 -29.860  10.113  0.00  0.00    +0.037 C 
ATOM      5  N   LIG    1       26.593 -30.300   9.170  0.00  0.00    -0.325 NA
ATOM      6  C   LIG    1       25.914 -31.380   8.384  0.00  0.00    +0.132 C 
ATOM      7  C   LIG    1       25.768 -30.868   6.883  0.00  0.00    +0.220 C 
ATOM      8  C   LIG    1       24.442 -31.259   6.142  0.00  0.00    +0.232 C 
ATOM      9  C   LIG    1       23.794 -32.548   6.728  0.00  0.00    +0.045 C 
ATOM     10  C   LIG    1       23.442 -32.161   8.215  0.00  0.00    +0.083 C 
ATOM     11  N   LIG    1       22.873 -33.376   8.799  0.00  0.00    -0.294 NA
ATOM     12  C   LIG    1       21.501 -33.571   8.363  0.00  0.00    +0.112 C 
ATOM     13  C   LIG    1       21.421 -33.399   6.852  0.00  0.00    -0.015 C 
ATOM     14  C   LIG    1       23.244 -33.466  10.186  0.00  0.00    +0.086 C 
ATOM     15  C   LIG    1       24.681 -32.928  10.113  0.00  0.00    +0.030 C 
ATOM     16  C   LIG    1       22.448 -32.951   6.096  0.00  0.00    -0.018 C 
ATOM     17  C   LIG    1       24.585 -31.726   9.127  0.00  0.00    +0.037 C 
ATOM     18  C   LIG    1       27.980 -30.468   9.585  0.00  0.00    +0.130 C 
ATOM     19  C   LIG    1       24.416 -30.488  10.013  0.00  0.00    -0.016 C 
ATOM     20  C   LIG    1       23.353 -30.133  10.864  0.00  0.00    +0.014 C 
ENDROOT
BRANCH   1  27
ATOM     21  C   LIG    1       18.190 -26.632  14.272  0.00  0.00    -0.059 C 
ATOM     22  C   LIG    1       18.179 -27.872  15.202  0.00  0.00    +0.115 C 
ATOM     23  N   LIG    1       19.483 -28.481  15.498  0.00  0.00    -0.294 NA
ATOM     24  C   LIG    1       19.675 -29.883  15.097  0.00  0.00    +0.122 C 
ATOM     25  C   LIG    1       20.070 -30.219  13.655  0.00  0.00    -0.004 C 
ATOM     26  C   LIG    1       21.227 -29.929  12.879  0.00  0.00    +0.043 C 
ATOM     27  C   LIG    1       22.439 -28.920  13.032  0.00  0.00    +0.136 C 
ATOM     28  C   LIG    1       21.804 -27.403  12.933  0.00  0.00    +0.038 C 
ATOM     29  C   LIG    1       20.435 -27.279  13.653  0.00  0.00    +0.027 C 
ATOM     30  N   LIG    1       21.085 -30.636  11.700  0.00  0.00    -0.356 NA
ATOM     31  H   LIG    1       21.782 -30.684  10.970  0.00  0.00    +0.166 HD
ATOM     32  C   LIG    1       19.809 -31.105  11.552  0.00  0.00    +0.047 C 
ATOM     33  C   LIG    1       19.191 -31.697  10.445  0.00  0.00    +0.026 C 
ATOM     34  C   LIG    1       17.845 -32.049  10.568  0.00  0.00    +0.002 C 
ATOM     35  C   LIG    1       17.159 -31.847  11.761  0.00  0.00    +0.001 C 
ATOM     36  C   LIG    1       17.804 -31.282  12.865  0.00  0.00    +0.010 C 
ATOM     37  C   LIG    1       19.155 -30.885  12.758  0.00  0.00    +0.004 C 
ATOM     38  C   LIG    1       20.552 -27.569  15.152  0.00  0.00    +0.092 C 
ATOM     39  C   LIG    1       19.296 -26.288  13.552  0.00  0.00    -0.022 C 
BRANCH  21  41
ATOM     40  C   LIG    1       15.784 -26.579  15.005  0.00  0.00    +0.008 C 
ATOM     41  C   LIG    1       16.905 -25.843  14.287  0.00  0.00    +0.028 C 
ENDBRANCH  21  41
BRANCH  27  42
ATOM     42  C   LIG    1       23.143 -29.064  14.432  0.00  0.00    +0.324 C 
ATOM     43  O   LIG    1       23.296 -28.138  15.227  0.00  0.00    -0.249 OA
BRANCH  42  44
ATOM     44  O   LIG    1       23.549 -30.341  14.682  0.00  0.00    -0.467 OA
ATOM     45  C   LIG    1       22.704 -31.177  15.473  0.00  0.00    +0.280 C 
ENDBRANCH  42  44
ENDBRANCH  27  42
ENDBRANCH   1  27
BRANCH   2  46
ATOM     46  O   LIG    1       25.144 -27.899  13.156  0.00  0.00    -0.495 OA
ATOM     47  C   LIG    1       26.290 -27.053  13.085  0.00  0.00    +0.277 C 
ENDBRANCH   2  46
BRANCH   7  48
ATOM     48  O   LIG    1       25.836 -29.404   6.890  0.00  0.00    -0.373 OA
ATOM     49  H   LIG    1       24.961 -29.118   6.550  0.00  0.00    +0.211 HD
ENDBRANCH   7  48
BRANCH   7  50
ATOM     50  C   LIG    1       27.028 -31.285   6.074  0.00  0.00    +0.345 C 
ATOM     51  O   LIG    1       27.251 -31.001   4.906  0.00  0.00    -0.247 OA
BRANCH  50  52
ATOM     52  O   LIG    1       27.927 -31.925   6.868  0.00  0.00    -0.466 OA
ATOM     53  C   LIG    1       28.424 -33.186   6.415  0.00  0.00    +0.280 C 
ENDBRANCH  50  52
ENDBRANCH   7  50
BRANCH   9  54
ATOM     54  C   LIG    1       24.699 -33.824   6.581  0.00  0.00    +0.013 C 
ATOM     55  C   LIG    1       25.746 -33.805   5.461  0.00  0.00    +0.005 C 
ENDBRANCH   9  54
BRANCH   8  56
ATOM     56  O   LIG    1       23.507 -30.153   6.422  0.00  0.00    -0.457 OA
BRANCH  56  57
ATOM     57  C   LIG    1       23.746 -28.894   5.976  0.00  0.00    +0.304 C 
ATOM     58  O   LIG    1       23.748 -27.886   6.634  0.00  0.00    -0.251 OA
ATOM     59  C   LIG    1       24.075 -28.979   4.501  0.00  0.00    +0.136 C 
ENDBRANCH  56  57
ENDBRANCH   8  56
TORSDOF 11
ENDMDL
MODEL 2
REMARK VINA RESULT:      -0.5      2.592      5.386
REMARK  Name = *****
REMARK                            x       y       z     vdW  Elec       q    Type
REMARK                         _______ _______ _______ _____ _____    ______ ____
ROOT
ATOM      1  C   LIG    1       24.985 -30.679  11.041  0.00  0.00    +0.017 C 
ATOM      2  C   LIG    1       24.221 -31.876  11.208  0.00  0.00    +0.127 C 
ATOM      3  C   LIG    1       23.767 -32.622  10.108  0.00  0.00    +0.069 C 
ATOM      4  C   LIG    1       23.969 -32.156   8.825  0.00  0.00    +0.037 C 
ATOM      5  N   LIG    1       23.514 -32.756   7.645  0.00  0.00    -0.325 NA
ATOM      6  C   LIG    1       23.890 -31.823   6.534  0.00  0.00    +0.132 C 
ATOM      7  C   LIG    1       24.952 -32.570   5.612  0.00  0.00    +0.220 C 
ATOM      8  C   LIG    1       26.111 -31.685   5.032  0.00  0.00    +0.232 C 
ATOM      9  C   LIG    1       25.713 -30.184   4.925  0.00  0.00    +0.045 C 
ATOM     10  C   LIG    1       25.449 -29.747   6.415  0.00  0.00    +0.083 C 
ATOM     11  N   LIG    1       25.027 -28.349   6.332  0.00  0.00    -0.294 NA
ATOM     12  C   LIG    1       26.166 -27.473   6.117  0.00  0.00    +0.112 C 
ATOM     13  C   LIG    1       27.026 -28.029   4.990  0.00  0.00    -0.015 C 
ATOM     14  C   LIG    1       24.049 -28.076   7.351  0.00  0.00    +0.086 C 
ATOM     15  C   LIG    1       23.264 -29.397   7.326  0.00  0.00    +0.030 C 
ATOM     16  C   LIG    1       26.829 -29.244   4.430  0.00  0.00    -0.018 C 
ATOM     17  C   LIG    1       24.365 -30.490   7.193  0.00  0.00    +0.037 C 
ATOM     18  C   LIG    1       22.204 -33.395   7.642  0.00  0.00    +0.130 C 
ATOM     19  C   LIG    1       24.648 -30.956   8.625  0.00  0.00    -0.016 C 
ATOM     20  C   LIG    1       25.201 -30.246   9.707  0.00  0.00    +0.014 C 
ENDROOT
BRANCH   1  27
ATOM     21  C   LIG    1       26.463 -25.306  14.175  0.00  0.00    -0.059 C 
ATOM     22  C   LIG    1       25.959 -26.070  15.426  0.00  0.00    +0.115 C 
ATOM     23  N   LIG    1       26.060 -27.536  15.382  0.00  0.00    -0.294 NA
ATOM     24  C   LIG    1       24.808 -28.298  15.500  0.00  0.00    +0.122 C 
ATOM     25  C   LIG    1       23.929 -28.523  14.265  0.00  0.00    -0.004 C 
ATOM     26  C   LIG    1       24.139 -29.224  13.046  0.00  0.00    +0.043 C 
ATOM     27  C   LIG    1       25.417 -29.804  12.307  0.00  0.00    +0.136 C 
ATOM     28  C   LIG    1       26.355 -28.512  11.905  0.00  0.00    +0.038 C 
ATOM     29  C   LIG    1       26.374 -27.419  13.006  0.00  0.00    +0.027 C 
ATOM     30  N   LIG    1       22.926 -29.218  12.385  0.00  0.00    -0.356 NA
ATOM     31  H   LIG    1       22.741 -29.697  11.515  0.00  0.00    +0.166 HD
ATOM     32  C   LIG    1       22.058 -28.323  12.949  0.00  0.00    +0.047 C 
ATOM     33  C   LIG    1       20.815 -27.868  12.494  0.00  0.00    +0.026 C 
ATOM     34  C   LIG    1       20.156 -26.910  13.268  0.00  0.00    +0.002 C 
ATOM     35  C   LIG    1       20.705 -26.454  14.462  0.00  0.00    +0.001 C 
ATOM     36  C   LIG    1       21.934 -26.945  14.912  0.00  0.00    +0.010 C 
ATOM     37  C   LIG    1       22.638 -27.889  14.134  0.00  0.00    +0.004 C 
ATOM     38  C   LIG    1       26.956 -27.945  14.322  0.00  0.00    +0.092 C 
ATOM     39  C   LIG    1       26.729 -25.948  13.002  0.00  0.00    -0.022 C 
BRANCH  21  41
ATOM     40  C   LIG    1       25.615 -23.232  15.321  0.00  0.00    +0.008 C 
ATOM     41  C   LIG    1       26.671 -23.829  14.404  0.00  0.00    +0.028 C 
ENDBRANCH  21  41
BRANCH  27  42
ATOM     42  C   LIG    1       26.257 -30.743  13.250  0.00  0.00    +0.324 C 
ATOM     43  O   LIG    1       27.466 -30.932  13.137  0.00  0.00    -0.249 OA
BRANCH  42  44
ATOM     44  O   LIG    1       25.497 -31.314  14.228  0.00  0.00    -0.467 OA
ATOM     45  C   LIG    1       26.112 -31.590  15.487  0.00  0.00    +0.280 C 
ENDBRANCH  42  44
ENDBRANCH  27  42
ENDBRANCH   1  27
BRANCH   2  46
ATOM     46  O   LIG    1       23.818 -32.210  12.478  0.00  0.00    -0.495 OA
ATOM     47  C   LIG    1       22.957 -33.341  12.594  0.00  0.00    +0.277 C 
ENDBRANCH   2  46
BRANCH   7  48
ATOM     48  O   LIG    1       25.582 -33.629   6.405  0.00  0.00    -0.373 OA
ATOM     49  H   LIG    1       26.293 -33.978   5.826  0.00  0.00    +0.211 HD
ENDBRANCH   7  48
BRANCH   7  50
ATOM     50  C   LIG    1       24.203 -33.349   4.496  0.00  0.00    +0.345 C 
ATOM     51  O   LIG    1       22.990 -33.452   4.390  0.00  0.00    -0.247 OA
BRANCH  50  52
ATOM     52  O   LIG    1       25.074 -33.825   3.566  0.00  0.00    -0.466 OA
ATOM     53  C   LIG    1       25.507 -32.920   2.547  0.00  0.00    +0.280 C 
ENDBRANCH  50  52
ENDBRANCH   7  50
BRANCH   9  54
ATOM     54  C   LIG    1       24.513 -29.925   3.944  0.00  0.00    +0.013 C 
ATOM     55  C   LIG    1       24.025 -28.477   3.812  0.00  0.00    +0.005 C 
ENDBRANCH   9  54
BRANCH   8  56
ATOM     56  O   LIG    1       27.191 -31.765   6.033  0.00  0.00    -0.457 OA
BRANCH  56  57
ATOM     57  C   LIG    1       27.818 -32.937   6.306  0.00  0.00    +0.304 C 
ATOM     58  O   LIG    1       27.972 -33.434   7.392  0.00  0.00    -0.251 OA
ATOM     59  C   LIG    1       28.245 -33.552   4.992  0.00  0.00    +0.136 C 
ENDBRANCH  56  57
ENDBRANCH   8  56
TORSDOF 11
ENDMDL
