MODEL 1
REMARK VINA RESULT:      21.4      0.000      0.000
REMARK  Name = *****
REMARK                            x       y       z     vdW  Elec       q    Type
REMARK                         _______ _______ _______ _____ _____    ______ ____
ROOT
ATOM      1  C   LIG    1       26.551 -19.364   4.089  0.00  0.00    +0.338 C 
ATOM      2  O   LIG    1       27.008 -20.165   3.246  0.00  0.00    -0.245 OA
ENDROOT
BRANCH   1   5
ATOM      3  C   LIG    1       22.789 -20.062   4.852  0.00  0.00    +0.065 C 
ATOM      4  C   LIG    1       23.962 -19.295   4.207  0.00  0.00    +0.096 C 
ATOM      5  C   LIG    1       25.308 -19.613   4.871  0.00  0.00    +0.065 C 
ATOM      6  C   LIG    1       25.345 -20.249   6.078  0.00  0.00    +0.016 C 
ATOM      7  C   LIG    1       26.600 -20.558   6.858  0.00  0.00    +0.061 C 
ATOM      8  N   LIG    1       24.172 -20.666   6.671  0.00  0.00    -0.321 N 
ATOM      9  H   LIG    1       24.265 -21.240   7.505  0.00  0.00    +0.152 HD
ATOM     10  C   LIG    1       22.950 -20.715   6.020  0.00  0.00    +0.016 C 
ATOM     11  C   LIG    1       21.913 -21.569   6.714  0.00  0.00    +0.061 C 
BRANCH   4  12
ATOM     12  C   LIG    1       23.684 -17.781   4.187  0.00  0.00    -0.029 A 
ATOM     13  C   LIG    1       24.403 -16.939   3.316  0.00  0.00    +0.088 A 
ATOM     14  C   LIG    1       24.135 -15.562   3.285  0.00  0.00    +0.273 A 
ATOM     15  C   LIG    1       23.143 -15.008   4.103  0.00  0.00    +0.084 A 
ATOM     16  C   LIG    1       22.443 -15.834   4.981  0.00  0.00    +0.007 A 
ATOM     17  C   LIG    1       22.718 -17.204   5.031  0.00  0.00    +0.005 A 
BRANCH  14  18
ATOM     18  N   LIG    1       24.912 -14.686   2.399  0.00  0.00    +0.080 N 
ATOM     19  O   LIG    1       25.908 -15.164   1.836  0.00  0.00    -0.576 OA
ATOM     20  O   LIG    1       24.536 -13.510   2.276  0.00  0.00    +0.041 OA
ENDBRANCH  14  18
ENDBRANCH   4  12
BRANCH   3  21
ATOM     21  C   LIG    1       21.521 -20.034   4.052  0.00  0.00    +0.337 C 
ATOM     22  O   LIG    1       21.113 -20.974   3.400  0.00  0.00    -0.245 OA
BRANCH  21  24
ATOM     23  C   LIG    1       19.934 -18.451   3.226  0.00  0.00    +0.280 C 
ATOM     24  O   LIG    1       20.955 -18.796   4.157  0.00  0.00    -0.465 OA
ENDBRANCH  21  24
ENDBRANCH   3  21
ENDBRANCH   1   5
BRANCH   1  25
ATOM     25  O   LIG    1       27.046 -18.148   4.387  0.00  0.00    -0.454 OA
BRANCH  25  26
ATOM     26  C   LIG    1       28.322 -18.006   5.085  0.00  0.00    +0.121 C 
ATOM     27  C   LIG    1       29.435 -18.480   4.124  0.00  0.00    +0.057 C 
ATOM     28  C   LIG    1       28.376 -18.984   6.273  0.00  0.00    +0.057 C 
BRANCH  26  29
ATOM     29  C   LIG    1       28.536 -16.529   5.572  0.00  0.00    +0.131 C 
BRANCH  29  30
ATOM     30  N   LIG    1       27.677 -15.447   4.999  0.00  0.00    -0.302 NA
ATOM     31  C   LIG    1       27.258 -15.893   3.663  0.00  0.00    +0.105 C 
BRANCH  30  32
ATOM     32  C   LIG    1       26.538 -15.132   5.876  0.00  0.00    +0.085 C 
BRANCH  32  33
ATOM     33  C   LIG    1       26.679 -13.914   6.793  0.00  0.00    +0.028 C 
BRANCH  33  34
ATOM     34  C   LIG    1       26.653 -12.549   6.028  0.00  0.00    +0.050 C 
BRANCH  34  35
ATOM     35  C   LIG    1       25.239 -12.091   5.637  0.00  0.00    -0.040 A 
ATOM     36  C   LIG    1       24.894 -11.806   4.304  0.00  0.00    +0.004 A 
ATOM     37  C   LIG    1       23.578 -11.522   3.939  0.00  0.00    +0.000 A 
ATOM     38  C   LIG    1       22.587 -11.449   4.911  0.00  0.00    +0.000 A 
ATOM     39  C   LIG    1       22.915 -11.670   6.246  0.00  0.00    +0.000 A 
ATOM     40  C   LIG    1       24.227 -11.998   6.607  0.00  0.00    +0.004 A 
ENDBRANCH  34  35
BRANCH  34  41
ATOM     41  C   LIG    1       27.607 -12.561   4.826  0.00  0.00    -0.040 A 
ATOM     42  C   LIG    1       27.488 -13.514   3.799  0.00  0.00    +0.004 A 
ATOM     43  C   LIG    1       28.333 -13.500   2.689  0.00  0.00    +0.000 A 
ATOM     44  C   LIG    1       29.309 -12.520   2.571  0.00  0.00    +0.000 A 
ATOM     45  C   LIG    1       29.458 -11.571   3.580  0.00  0.00    +0.000 A 
ATOM     46  C   LIG    1       28.621 -11.594   4.703  0.00  0.00    +0.004 A 
ENDBRANCH  34  41
ENDBRANCH  33  34
ENDBRANCH  32  33
ENDBRANCH  30  32
ENDBRANCH  29  30
ENDBRANCH  26  29
ENDBRANCH  25  26
ENDBRANCH   1  25
TORSDOF 14
ENDMDL
