MODEL 1
REMARK VINA RESULT:      -8.1      0.000      0.000
REMARK  Name = *****
REMARK                            x       y       z     vdW  Elec       q    Type
REMARK                         _______ _______ _______ _____ _____    ______ ____
ROOT
ATOM      1  C   LIG    1       24.158 -22.192   7.479  0.00  0.00    +0.066 C 
ATOM      2  C   LIG    1       24.649 -23.523   6.896  0.00  0.00    +0.045 C 
ATOM      3  C   LIG    1       23.598 -24.564   6.590  0.00  0.00    +0.063 C 
ATOM      4  N   LIG    1       25.869 -23.794   6.521  0.00  0.00    -0.158 NA
ATOM      5  N   LIG    1       26.895 -22.916   6.822  0.00  0.00    -0.149 NA
ATOM      6  C   LIG    1       26.841 -21.664   6.435  0.00  0.00    +0.101 C 
ATOM      7  C   LIG    1       25.667 -21.025   5.820  0.00  0.00    +0.010 A 
ATOM      8  C   LIG    1       25.861 -20.244   4.679  0.00  0.00    +0.059 A 
ATOM      9  C   LIG    1       24.824 -19.461   4.180  0.00  0.00    +0.162 A 
ATOM     10  C   LIG    1       23.574 -19.478   4.824  0.00  0.00    +0.162 A 
ATOM     11  C   LIG    1       23.380 -20.317   5.942  0.00  0.00    +0.054 A 
ATOM     12  C   LIG    1       24.416 -21.125   6.431  0.00  0.00    -0.026 A 
ENDROOT
BRANCH   6  13
ATOM     13  C   LIG    1       28.031 -20.799   6.717  0.00  0.00    +0.006 A 
ATOM     14  C   LIG    1       28.899 -21.153   7.752  0.00  0.00    +0.059 A 
ATOM     15  C   LIG    1       30.003 -20.353   8.098  0.00  0.00    +0.162 A 
ATOM     16  C   LIG    1       30.244 -19.182   7.355  0.00  0.00    +0.162 A 
ATOM     17  C   LIG    1       29.367 -18.838   6.315  0.00  0.00    +0.050 A 
ATOM     18  C   LIG    1       28.268 -19.629   5.995  0.00  0.00    +0.014 A 
BRANCH  15  19
ATOM     19  O   LIG    1       30.823 -20.663   9.156  0.00  0.00    -0.491 OA
ATOM     20  C   LIG    1       31.359 -21.989   9.178  0.00  0.00    +0.277 C 
ENDBRANCH  15  19
BRANCH  16  21
ATOM     21  O   LIG    1       31.226 -18.241   7.488  0.00  0.00    -0.491 OA
ATOM     22  C   LIG    1       31.392 -17.534   8.703  0.00  0.00    +0.277 C 
ENDBRANCH  16  21
ENDBRANCH   6  13
BRANCH   1  24
ATOM     23  C   LIG    1       25.412 -20.611   9.049  0.00  0.00    +0.005 C 
ATOM     24  C   LIG    1       24.659 -21.932   8.909  0.00  0.00    +0.011 C 
ENDBRANCH   1  24
BRANCH   9  25
ATOM     25  O   LIG    1       24.993 -18.747   3.024  0.00  0.00    -0.491 OA
ATOM     26  C   LIG    1       25.817 -17.589   3.116  0.00  0.00    +0.277 C 
ENDBRANCH   9  25
BRANCH  10  27
ATOM     27  O   LIG    1       22.454 -18.757   4.487  0.00  0.00    -0.491 OA
ATOM     28  C   LIG    1       22.482 -17.361   4.757  0.00  0.00    +0.277 C 
ENDBRANCH  10  27
TORSDOF 6
ENDMDL
MODEL 2
REMARK VINA RESULT:      -7.5      2.836      5.007
REMARK  Name = *****
REMARK                            x       y       z     vdW  Elec       q    Type
REMARK                         _______ _______ _______ _____ _____    ______ ____
ROOT
ATOM      1  C   LIG    1       24.083 -21.761   4.448  0.00  0.00    +0.066 C 
ATOM      2  C   LIG    1       23.173 -21.168   5.531  0.00  0.00    +0.045 C 
ATOM      3  C   LIG    1       21.685 -21.347   5.348  0.00  0.00    +0.063 C 
ATOM      4  N   LIG    1       23.565 -20.638   6.658  0.00  0.00    -0.158 NA
ATOM      5  N   LIG    1       24.909 -20.386   6.872  0.00  0.00    -0.149 NA
ATOM      6  C   LIG    1       25.793 -21.351   6.788  0.00  0.00    +0.101 C 
ATOM      7  C   LIG    1       25.508 -22.712   6.306  0.00  0.00    +0.010 A 
ATOM      8  C   LIG    1       25.995 -23.791   7.047  0.00  0.00    +0.059 A 
ATOM      9  C   LIG    1       25.927 -25.082   6.534  0.00  0.00    +0.162 A 
ATOM     10  C   LIG    1       25.346 -25.294   5.270  0.00  0.00    +0.162 A 
ATOM     11  C   LIG    1       24.808 -24.199   4.561  0.00  0.00    +0.054 A 
ATOM     12  C   LIG    1       24.853 -22.900   5.088  0.00  0.00    -0.026 A 
ENDROOT
BRANCH   6  13
ATOM     13  C   LIG    1       27.215 -21.020   7.124  0.00  0.00    +0.006 A 
ATOM     14  C   LIG    1       27.851 -19.983   6.438  0.00  0.00    +0.059 A 
ATOM     15  C   LIG    1       29.201 -19.660   6.673  0.00  0.00    +0.162 A 
ATOM     16  C   LIG    1       29.907 -20.389   7.647  0.00  0.00    +0.162 A 
ATOM     17  C   LIG    1       29.256 -21.427   8.333  0.00  0.00    +0.050 A 
ATOM     18  C   LIG    1       27.926 -21.748   8.078  0.00  0.00    +0.014 A 
BRANCH  15  19
ATOM     19  O   LIG    1       29.850 -18.684   5.956  0.00  0.00    -0.491 OA
ATOM     20  C   LIG    1       29.061 -17.959   5.009  0.00  0.00    +0.277 C 
ENDBRANCH  15  19
BRANCH  16  21
ATOM     21  O   LIG    1       31.206 -20.284   8.056  0.00  0.00    -0.491 OA
ATOM     22  C   LIG    1       31.618 -19.222   8.896  0.00  0.00    +0.277 C 
ENDBRANCH  16  21
ENDBRANCH   6  13
BRANCH   1  24
ATOM     23  C   LIG    1       24.116 -19.390   3.494  0.00  0.00    +0.005 C 
ATOM     24  C   LIG    1       24.880 -20.698   3.674  0.00  0.00    +0.011 C 
ENDBRANCH   1  24
BRANCH   9  25
ATOM     25  O   LIG    1       26.344 -26.147   7.286  0.00  0.00    -0.491 OA
ATOM     26  C   LIG    1       25.459 -27.261   7.345  0.00  0.00    +0.277 C 
ENDBRANCH   9  25
BRANCH  10  27
ATOM     27  O   LIG    1       25.217 -26.487   4.603  0.00  0.00    -0.491 OA
ATOM     28  C   LIG    1       26.419 -27.155   4.237  0.00  0.00    +0.277 C 
ENDBRANCH  10  27
TORSDOF 6
ENDMDL
MODEL 3
REMARK VINA RESULT:      -7.0      7.953     10.966
REMARK  Name = *****
REMARK                            x       y       z     vdW  Elec       q    Type
REMARK                         _______ _______ _______ _____ _____    ______ ____
ROOT
ATOM      1  C   LIG    1       26.052 -28.333  13.114  0.00  0.00    +0.066 C 
ATOM      2  C   LIG    1       26.776 -29.684  13.174  0.00  0.00    +0.045 C 
ATOM      3  C   LIG    1       27.112 -30.219  14.546  0.00  0.00    +0.063 C 
ATOM      4  N   LIG    1       27.013 -30.474  12.162  0.00  0.00    -0.158 NA
ATOM      5  N   LIG    1       26.789 -30.029  10.871  0.00  0.00    -0.149 NA
ATOM      6  C   LIG    1       25.607 -29.593  10.509  0.00  0.00    +0.101 C 
ATOM      7  C   LIG    1       24.479 -29.364  11.425  0.00  0.00    +0.010 A 
ATOM      8  C   LIG    1       23.220 -29.847  11.059  0.00  0.00    +0.059 A 
ATOM      9  C   LIG    1       22.091 -29.487  11.787  0.00  0.00    +0.162 A 
ATOM     10  C   LIG    1       22.230 -28.648  12.907  0.00  0.00    +0.162 A 
ATOM     11  C   LIG    1       23.515 -28.216  13.297  0.00  0.00    +0.054 A 
ATOM     12  C   LIG    1       24.658 -28.598  12.579  0.00  0.00    -0.026 A 
ENDROOT
BRANCH   6  13
ATOM     13  C   LIG    1       25.417 -29.216   9.072  0.00  0.00    +0.006 A 
ATOM     14  C   LIG    1       24.542 -29.965   8.283  0.00  0.00    +0.059 A 
ATOM     15  C   LIG    1       24.360 -29.692   6.914  0.00  0.00    +0.162 A 
ATOM     16  C   LIG    1       25.064 -28.614   6.345  0.00  0.00    +0.162 A 
ATOM     17  C   LIG    1       25.938 -27.865   7.148  0.00  0.00    +0.050 A 
ATOM     18  C   LIG    1       26.121 -28.158   8.497  0.00  0.00    +0.014 A 
BRANCH  15  19
ATOM     19  O   LIG    1       23.550 -30.465   6.119  0.00  0.00    -0.491 OA
ATOM     20  C   LIG    1       23.777 -31.876   6.162  0.00  0.00    +0.277 C 
ENDBRANCH  15  19
BRANCH  16  21
ATOM     21  O   LIG    1       25.074 -28.149   5.061  0.00  0.00    -0.491 OA
ATOM     22  C   LIG    1       25.683 -26.912   4.744  0.00  0.00    +0.277 C 
ENDBRANCH  16  21
ENDBRANCH   6  13
BRANCH   1  24
ATOM     23  C   LIG    1       26.660 -25.850  13.059  0.00  0.00    +0.005 C 
ATOM     24  C   LIG    1       26.883 -27.227  12.441  0.00  0.00    +0.011 C 
ENDBRANCH   1  24
BRANCH   9  25
ATOM     25  O   LIG    1       20.868 -30.012  11.468  0.00  0.00    -0.491 OA
ATOM     26  C   LIG    1       20.872 -31.122  10.577  0.00  0.00    +0.277 C 
ENDBRANCH   9  25
BRANCH  10  27
ATOM     27  O   LIG    1       21.230 -28.175  13.722  0.00  0.00    -0.491 OA
ATOM     28  C   LIG    1       20.611 -26.952  13.339  0.00  0.00    +0.277 C 
ENDBRANCH  10  27
TORSDOF 6
ENDMDL
MODEL 4
REMARK VINA RESULT:      -7.0      8.279     11.413
REMARK  Name = *****
REMARK                            x       y       z     vdW  Elec       q    Type
REMARK                         _______ _______ _______ _____ _____    ______ ____
ROOT
ATOM      1  C   LIG    1       25.548 -28.381  12.974  0.00  0.00    +0.066 C 
ATOM      2  C   LIG    1       26.259 -29.628  13.516  0.00  0.00    +0.045 C 
ATOM      3  C   LIG    1       26.419 -29.725  15.015  0.00  0.00    +0.063 C 
ATOM      4  N   LIG    1       26.622 -30.669  12.818  0.00  0.00    -0.158 NA
ATOM      5  N   LIG    1       26.562 -30.630  11.437  0.00  0.00    -0.149 NA
ATOM      6  C   LIG    1       25.435 -30.362  10.823  0.00  0.00    +0.101 C 
ATOM      7  C   LIG    1       24.200 -29.918  11.488  0.00  0.00    +0.010 A 
ATOM      8  C   LIG    1       22.998 -30.533  11.131  0.00  0.00    +0.059 A 
ATOM      9  C   LIG    1       21.786 -30.018  11.580  0.00  0.00    +0.162 A 
ATOM     10  C   LIG    1       21.783 -28.883  12.411  0.00  0.00    +0.162 A 
ATOM     11  C   LIG    1       23.009 -28.309  12.807  0.00  0.00    +0.054 A 
ATOM     12  C   LIG    1       24.233 -28.842  12.377  0.00  0.00    -0.026 A 
ENDROOT
BRANCH   6  13
ATOM     13  C   LIG    1       25.427 -30.429   9.326  0.00  0.00    +0.006 A 
ATOM     14  C   LIG    1       25.174 -29.267   8.595  0.00  0.00    +0.059 A 
ATOM     15  C   LIG    1       25.104 -29.277   7.189  0.00  0.00    +0.162 A 
ATOM     16  C   LIG    1       25.324 -30.491   6.514  0.00  0.00    +0.162 A 
ATOM     17  C   LIG    1       25.581 -31.653   7.259  0.00  0.00    +0.050 A 
ATOM     18  C   LIG    1       25.630 -31.632   8.650  0.00  0.00    +0.014 A 
BRANCH  15  19
ATOM     19  O   LIG    1       24.792 -28.149   6.469  0.00  0.00    -0.491 OA
ATOM     20  C   LIG    1       25.743 -27.083   6.514  0.00  0.00    +0.277 C 
ENDBRANCH  15  19
BRANCH  16  21
ATOM     21  O   LIG    1       25.304 -30.772   5.177  0.00  0.00    -0.491 OA
ATOM     22  C   LIG    1       25.873 -31.969   4.680  0.00  0.00    +0.277 C 
ENDBRANCH  16  21
ENDBRANCH   6  13
BRANCH   1  24
ATOM     23  C   LIG    1       26.731 -26.127  12.738  0.00  0.00    +0.005 C 
ATOM     24  C   LIG    1       26.457 -27.490  12.110  0.00  0.00    +0.011 C 
ENDBRANCH   1  24
BRANCH   9  25
ATOM     25  O   LIG    1       20.612 -30.658  11.284  0.00  0.00    -0.491 OA
ATOM     26  C   LIG    1       20.704 -31.753  10.379  0.00  0.00    +0.277 C 
ENDBRANCH   9  25
BRANCH  10  27
ATOM     27  O   LIG    1       20.688 -28.230  12.924  0.00  0.00    -0.491 OA
ATOM     28  C   LIG    1       20.787 -26.818  13.062  0.00  0.00    +0.277 C 
ENDBRANCH  10  27
TORSDOF 6
ENDMDL
MODEL 5
REMARK VINA RESULT:      -6.9      7.149      9.764
REMARK  Name = *****
REMARK                            x       y       z     vdW  Elec       q    Type
REMARK                         _______ _______ _______ _____ _____    ______ ____
ROOT
ATOM      1  C   LIG    1       24.256 -31.399   9.512  0.00  0.00    +0.066 C 
ATOM      2  C   LIG    1       25.539 -32.184   9.814  0.00  0.00    +0.045 C 
ATOM      3  C   LIG    1       25.779 -33.438   9.006  0.00  0.00    +0.063 C 
ATOM      4  N   LIG    1       26.503 -31.805  10.609  0.00  0.00    -0.158 NA
ATOM      5  N   LIG    1       26.331 -30.702  11.425  0.00  0.00    -0.149 NA
ATOM      6  C   LIG    1       26.022 -29.534  10.916  0.00  0.00    +0.101 C 
ATOM      7  C   LIG    1       25.662 -29.299   9.509  0.00  0.00    +0.010 A 
ATOM      8  C   LIG    1       26.258 -28.224   8.844  0.00  0.00    +0.059 A 
ATOM      9  C   LIG    1       25.807 -27.840   7.586  0.00  0.00    +0.162 A 
ATOM     10  C   LIG    1       24.758 -28.555   6.980  0.00  0.00    +0.162 A 
ATOM     11  C   LIG    1       24.207 -29.673   7.641  0.00  0.00    +0.054 A 
ATOM     12  C   LIG    1       24.677 -30.077   8.899  0.00  0.00    -0.026 A 
ENDROOT
BRANCH   6  13
ATOM     13  C   LIG    1       25.944 -28.367  11.853  0.00  0.00    +0.006 A 
ATOM     14  C   LIG    1       24.767 -28.152  12.574  0.00  0.00    +0.059 A 
ATOM     15  C   LIG    1       24.616 -27.046  13.431  0.00  0.00    +0.162 A 
ATOM     16  C   LIG    1       25.695 -26.156  13.576  0.00  0.00    +0.162 A 
ATOM     17  C   LIG    1       26.874 -26.383  12.849  0.00  0.00    +0.050 A 
ATOM     18  C   LIG    1       27.004 -27.472  11.992  0.00  0.00    +0.014 A 
BRANCH  15  19
ATOM     19  O   LIG    1       23.438 -26.795  14.093  0.00  0.00    -0.491 OA
ATOM     20  C   LIG    1       22.269 -26.658  13.282  0.00  0.00    +0.277 C 
ENDBRANCH  15  19
BRANCH  16  21
ATOM     21  O   LIG    1       25.804 -25.018  14.325  0.00  0.00    -0.491 OA
ATOM     22  C   LIG    1       27.074 -24.509  14.688  0.00  0.00    +0.277 C 
ENDBRANCH  16  21
ENDBRANCH   6  13
BRANCH   1  24
ATOM     23  C   LIG    1       22.259 -30.227  10.596  0.00  0.00    +0.005 C 
ATOM     24  C   LIG    1       23.273 -31.363  10.694  0.00  0.00    +0.011 C 
ENDBRANCH   1  24
BRANCH   9  25
ATOM     25  O   LIG    1       26.432 -26.829   6.907  0.00  0.00    -0.491 OA
ATOM     26  C   LIG    1       25.746 -25.583   6.862  0.00  0.00    +0.277 C 
ENDBRANCH   9  25
BRANCH  10  27
ATOM     27  O   LIG    1       24.174 -28.305   5.762  0.00  0.00    -0.491 OA
ATOM     28  C   LIG    1       24.782 -28.898   4.621  0.00  0.00    +0.277 C 
ENDBRANCH  10  27
TORSDOF 6
ENDMDL
MODEL 6
REMARK VINA RESULT:      -6.6      7.020     10.661
REMARK  Name = *****
REMARK                            x       y       z     vdW  Elec       q    Type
REMARK                         _______ _______ _______ _____ _____    ______ ____
ROOT
ATOM      1  C   LIG    1       25.393 -32.294   6.890  0.00  0.00    +0.066 C 
ATOM      2  C   LIG    1       23.977 -32.375   6.307  0.00  0.00    +0.045 C 
ATOM      3  C   LIG    1       23.327 -33.738   6.277  0.00  0.00    +0.063 C 
ATOM      4  N   LIG    1       23.231 -31.363   5.955  0.00  0.00    -0.158 NA
ATOM      5  N   LIG    1       23.775 -30.092   5.899  0.00  0.00    -0.149 NA
ATOM      6  C   LIG    1       24.347 -29.561   6.952  0.00  0.00    +0.101 C 
ATOM      7  C   LIG    1       24.627 -30.276   8.207  0.00  0.00    +0.010 A 
ATOM      8  C   LIG    1       24.293 -29.655   9.412  0.00  0.00    +0.059 A 
ATOM      9  C   LIG    1       24.716 -30.197  10.622  0.00  0.00    +0.162 A 
ATOM     10  C   LIG    1       25.467 -31.386  10.621  0.00  0.00    +0.162 A 
ATOM     11  C   LIG    1       25.746 -32.031   9.398  0.00  0.00    +0.054 A 
ATOM     12  C   LIG    1       25.299 -31.500   8.179  0.00  0.00    -0.026 A 
ENDROOT
BRANCH   6  13
ATOM     13  C   LIG    1       24.829 -28.147   6.841  0.00  0.00    +0.006 A 
ATOM     14  C   LIG    1       23.945 -27.160   6.400  0.00  0.00    +0.059 A 
ATOM     15  C   LIG    1       24.354 -25.824   6.226  0.00  0.00    +0.162 A 
ATOM     16  C   LIG    1       25.683 -25.482   6.536  0.00  0.00    +0.162 A 
ATOM     17  C   LIG    1       26.562 -26.481   6.983  0.00  0.00    +0.050 A 
ATOM     18  C   LIG    1       26.149 -27.802   7.133  0.00  0.00    +0.014 A 
BRANCH  15  19
ATOM     19  O   LIG    1       23.506 -24.863   5.732  0.00  0.00    -0.491 OA
ATOM     20  C   LIG    1       22.903 -23.992   6.692  0.00  0.00    +0.277 C 
ENDBRANCH  15  19
BRANCH  16  21
ATOM     21  O   LIG    1       26.326 -24.280   6.450  0.00  0.00    -0.491 OA
ATOM     22  C   LIG    1       26.084 -23.260   7.400  0.00  0.00    +0.277 C 
ENDBRANCH  16  21
ENDBRANCH   6  13
BRANCH   1  24
ATOM     23  C   LIG    1       26.330 -32.614   4.533  0.00  0.00    +0.005 C 
ATOM     24  C   LIG    1       26.452 -31.869   5.859  0.00  0.00    +0.011 C 
ENDBRANCH   1  24
BRANCH   9  25
ATOM     25  O   LIG    1       24.334 -29.624  11.805  0.00  0.00    -0.491 OA
ATOM     26  C   LIG    1       25.203 -28.627  12.331  0.00  0.00    +0.277 C 
ENDBRANCH   9  25
BRANCH  10  27
ATOM     27  O   LIG    1       25.983 -32.045  11.711  0.00  0.00    -0.491 OA
ATOM     28  C   LIG    1       25.154 -33.024  12.325  0.00  0.00    +0.277 C 
ENDBRANCH  10  27
TORSDOF 6
ENDMDL
MODEL 7
REMARK VINA RESULT:      -6.3      6.953      9.588
REMARK  Name = *****
REMARK                            x       y       z     vdW  Elec       q    Type
REMARK                         _______ _______ _______ _____ _____    ______ ____
ROOT
ATOM      1  C   LIG    1       25.166 -31.418   8.720  0.00  0.00    +0.066 C 
ATOM      2  C   LIG    1       26.588 -31.901   9.034  0.00  0.00    +0.045 C 
ATOM      3  C   LIG    1       27.181 -32.931   8.101  0.00  0.00    +0.063 C 
ATOM      4  N   LIG    1       27.380 -31.415   9.951  0.00  0.00    -0.158 NA
ATOM      5  N   LIG    1       26.890 -30.514  10.879  0.00  0.00    -0.149 NA
ATOM      6  C   LIG    1       26.323 -29.397  10.494  0.00  0.00    +0.101 C 
ATOM      7  C   LIG    1       25.992 -29.059   9.100  0.00  0.00    +0.010 A 
ATOM      8  C   LIG    1       26.331 -27.789   8.629  0.00  0.00    +0.059 A 
ATOM      9  C   LIG    1       25.866 -27.352   7.392  0.00  0.00    +0.162 A 
ATOM     10  C   LIG    1       25.067 -28.208   6.613  0.00  0.00    +0.162 A 
ATOM     11  C   LIG    1       24.782 -29.509   7.080  0.00  0.00    +0.054 A 
ATOM     12  C   LIG    1       25.271 -29.960   8.314  0.00  0.00    -0.026 A 
ENDROOT
BRANCH   6  13
ATOM     13  C   LIG    1       25.901 -28.430  11.557  0.00  0.00    +0.006 A 
ATOM     14  C   LIG    1       26.791 -27.432  11.961  0.00  0.00    +0.059 A 
ATOM     15  C   LIG    1       26.471 -26.527  12.990  0.00  0.00    +0.162 A 
ATOM     16  C   LIG    1       25.208 -26.623  13.601  0.00  0.00    +0.162 A 
ATOM     17  C   LIG    1       24.319 -27.628  13.185  0.00  0.00    +0.050 A 
ATOM     18  C   LIG    1       24.656 -28.527  12.178  0.00  0.00    +0.014 A 
BRANCH  15  19
ATOM     19  O   LIG    1       27.368 -25.585  13.434  0.00  0.00    -0.491 OA
ATOM     20  C   LIG    1       28.053 -25.884  14.652  0.00  0.00    +0.277 C 
ENDBRANCH  15  19
BRANCH  16  21
ATOM     21  O   LIG    1       24.660 -25.886  14.612  0.00  0.00    -0.491 OA
ATOM     22  C   LIG    1       23.362 -26.173  15.097  0.00  0.00    +0.277 C 
ENDBRANCH  16  21
ENDBRANCH   6  13
BRANCH   1  24
ATOM     23  C   LIG    1       22.932 -30.864   9.831  0.00  0.00    +0.005 C 
ATOM     24  C   LIG    1       24.144 -31.791   9.806  0.00  0.00    +0.011 C 
ENDBRANCH   1  24
BRANCH   9  25
ATOM     25  O   LIG    1       26.251 -26.134   6.901  0.00  0.00    -0.491 OA
ATOM     26  C   LIG    1       25.234 -25.141   6.814  0.00  0.00    +0.277 C 
ENDBRANCH   9  25
BRANCH  10  27
ATOM     27  O   LIG    1       24.505 -27.937   5.389  0.00  0.00    -0.491 OA
ATOM     28  C   LIG    1       25.388 -27.876   4.274  0.00  0.00    +0.277 C 
ENDBRANCH  10  27
TORSDOF 6
ENDMDL
MODEL 8
REMARK VINA RESULT:      -6.2      2.884      5.899
REMARK  Name = *****
REMARK                            x       y       z     vdW  Elec       q    Type
REMARK                         _______ _______ _______ _____ _____    ______ ____
ROOT
ATOM      1  C   LIG    1       28.176 -20.415   6.871  0.00  0.00    +0.066 C 
ATOM      2  C   LIG    1       27.682 -20.127   8.295  0.00  0.00    +0.045 C 
ATOM      3  C   LIG    1       28.104 -18.815   8.912  0.00  0.00    +0.063 C 
ATOM      4  N   LIG    1       26.828 -20.846   8.972  0.00  0.00    -0.158 NA
ATOM      5  N   LIG    1       26.442 -22.087   8.498  0.00  0.00    -0.149 NA
ATOM      6  C   LIG    1       25.908 -22.214   7.307  0.00  0.00    +0.101 C 
ATOM      7  C   LIG    1       25.821 -21.138   6.307  0.00  0.00    +0.010 A 
ATOM      8  C   LIG    1       24.604 -20.945   5.648  0.00  0.00    +0.059 A 
ATOM      9  C   LIG    1       24.525 -20.081   4.560  0.00  0.00    +0.162 A 
ATOM     10  C   LIG    1       25.677 -19.390   4.142  0.00  0.00    +0.162 A 
ATOM     11  C   LIG    1       26.883 -19.554   4.854  0.00  0.00    +0.054 A 
ATOM     12  C   LIG    1       26.959 -20.405   5.966  0.00  0.00    -0.026 A 
ENDROOT
BRANCH   6  13
ATOM     13  C   LIG    1       25.431 -23.575   6.901  0.00  0.00    +0.006 A 
ATOM     14  C   LIG    1       26.371 -24.557   6.580  0.00  0.00    +0.059 A 
ATOM     15  C   LIG    1       25.983 -25.837   6.144  0.00  0.00    +0.162 A 
ATOM     16  C   LIG    1       24.610 -26.131   6.060  0.00  0.00    +0.162 A 
ATOM     17  C   LIG    1       23.674 -25.138   6.388  0.00  0.00    +0.050 A 
ATOM     18  C   LIG    1       24.072 -23.870   6.802  0.00  0.00    +0.014 A 
BRANCH  15  19
ATOM     19  O   LIG    1       26.903 -26.785   5.766  0.00  0.00    -0.491 OA
ATOM     20  C   LIG    1       26.806 -27.266   4.423  0.00  0.00    +0.277 C 
ENDBRANCH  15  19
BRANCH  16  21
ATOM     21  O   LIG    1       23.977 -27.276   5.663  0.00  0.00    -0.491 OA
ATOM     22  C   LIG    1       24.094 -28.467   6.418  0.00  0.00    +0.277 C 
ENDBRANCH  16  21
ENDBRANCH   6  13
BRANCH   1  24
ATOM     23  C   LIG    1       30.121 -21.682   7.943  0.00  0.00    +0.005 C 
ATOM     24  C   LIG    1       29.123 -21.624   6.790  0.00  0.00    +0.011 C 
ENDBRANCH   1  24
BRANCH   9  25
ATOM     25  O   LIG    1       23.321 -19.841   3.956  0.00  0.00    -0.491 OA
ATOM     26  C   LIG    1       22.420 -18.994   4.662  0.00  0.00    +0.277 C 
ENDBRANCH   9  25
BRANCH  10  27
ATOM     27  O   LIG    1       25.788 -18.523   3.082  0.00  0.00    -0.491 OA
ATOM     28  C   LIG    1       25.963 -17.145   3.392  0.00  0.00    +0.277 C 
ENDBRANCH  10  27
TORSDOF 6
ENDMDL
MODEL 9
REMARK VINA RESULT:      -6.0      8.393     12.134
REMARK  Name = *****
REMARK                            x       y       z     vdW  Elec       q    Type
REMARK                         _______ _______ _______ _____ _____    ______ ____
ROOT
ATOM      1  C   LIG    1       23.114 -31.896  12.343  0.00  0.00    +0.066 C 
ATOM      2  C   LIG    1       21.877 -31.004  12.178  0.00  0.00    +0.045 C 
ATOM      3  C   LIG    1       21.039 -30.761  13.411  0.00  0.00    +0.063 C 
ATOM      4  N   LIG    1       21.552 -30.332  11.106  0.00  0.00    -0.158 NA
ATOM      5  N   LIG    1       22.235 -30.548   9.923  0.00  0.00    -0.149 NA
ATOM      6  C   LIG    1       23.536 -30.400   9.863  0.00  0.00    +0.101 C 
ATOM      7  C   LIG    1       24.410 -30.172  11.025  0.00  0.00    +0.010 A 
ATOM      8  C   LIG    1       25.374 -29.165  10.941  0.00  0.00    +0.059 A 
ATOM      9  C   LIG    1       26.349 -29.043  11.926  0.00  0.00    +0.162 A 
ATOM     10  C   LIG    1       26.344 -29.931  13.017  0.00  0.00    +0.162 A 
ATOM     11  C   LIG    1       25.328 -30.905  13.115  0.00  0.00    +0.054 A 
ATOM     12  C   LIG    1       24.330 -31.014  12.136  0.00  0.00    -0.026 A 
ENDROOT
BRANCH   6  13
ATOM     13  C   LIG    1       24.192 -30.560   8.526  0.00  0.00    +0.006 A 
ATOM     14  C   LIG    1       24.105 -29.521   7.597  0.00  0.00    +0.059 A 
ATOM     15  C   LIG    1       24.657 -29.633   6.307  0.00  0.00    +0.162 A 
ATOM     16  C   LIG    1       25.336 -30.817   5.968  0.00  0.00    +0.162 A 
ATOM     17  C   LIG    1       25.421 -31.854   6.911  0.00  0.00    +0.050 A 
ATOM     18  C   LIG    1       24.855 -31.736   8.177  0.00  0.00    +0.014 A 
BRANCH  15  19
ATOM     19  O   LIG    1       24.518 -28.640   5.369  0.00  0.00    -0.491 OA
ATOM     20  C   LIG    1       24.434 -27.302   5.866  0.00  0.00    +0.277 C 
ENDBRANCH  15  19
BRANCH  16  21
ATOM     21  O   LIG    1       25.946 -31.179   4.800  0.00  0.00    -0.491 OA
ATOM     22  C   LIG    1       26.241 -32.536   4.528  0.00  0.00    +0.277 C 
ENDBRANCH  16  21
ENDBRANCH   6  13
BRANCH   1  24
ATOM     23  C   LIG    1       24.396 -33.825  11.262  0.00  0.00    +0.005 C 
ATOM     24  C   LIG    1       23.030 -33.206  11.543  0.00  0.00    +0.011 C 
ENDBRANCH   1  24
BRANCH   9  25
ATOM     25  O   LIG    1       27.254 -28.017  11.878  0.00  0.00    -0.491 OA
ATOM     26  C   LIG    1       26.832 -26.779  12.440  0.00  0.00    +0.277 C 
ENDBRANCH   9  25
BRANCH  10  27
ATOM     27  O   LIG    1       27.236 -29.972  14.061  0.00  0.00    -0.491 OA
ATOM     28  C   LIG    1       26.845 -29.330  15.269  0.00  0.00    +0.277 C 
ENDBRANCH  10  27
TORSDOF 6
ENDMDL
