MODEL 1
REMARK VINA RESULT:      -7.5      0.000      0.000
REMARK  Name = *****
REMARK                            x       y       z     vdW  Elec       q    Type
REMARK                         _______ _______ _______ _____ _____    ______ ____
ROOT
ATOM      1  C   LIG    1       26.235 -30.121   9.464  0.00  0.00    +0.107 C 
ENDROOT
BRANCH   1   2
ATOM      2  N   LIG    1       26.010 -29.252   8.271  0.00  0.00    -0.308 N 
ATOM      3  H   LIG    1       26.796 -28.716   7.924  0.00  0.00    +0.149 HD
ATOM      4  C   LIG    1       24.768 -29.171   7.640  0.00  0.00    +0.234 C 
ATOM      5  O   LIG    1       23.772 -29.666   8.166  0.00  0.00    -0.274 OA
BRANCH   4   6
ATOM      6  C   LIG    1       24.646 -28.237   6.379  0.00  0.00    +0.168 C 
BRANCH   6   7
ATOM      7  N   LIG    1       24.708 -26.807   6.758  0.00  0.00    -0.298 N 
ATOM      8  H   LIG    1       25.279 -26.519   7.539  0.00  0.00    +0.150 HD
ATOM      9  C   LIG    1       24.092 -25.790   6.036  0.00  0.00    +0.263 C 
ATOM     10  O   LIG    1       23.436 -25.941   5.038  0.00  0.00    -0.269 OA
BRANCH   9  11
ATOM     11  C   LIG    1       24.327 -24.409   6.554  0.00  0.00    +0.126 A 
ATOM     12  N   LIG    1       25.620 -24.027   6.719  0.00  0.00    -0.242 NA
ATOM     13  C   LIG    1       25.831 -22.801   7.229  0.00  0.00    +0.072 A 
ATOM     14  C   LIG    1       24.776 -21.897   7.505  0.00  0.00    +0.000 A 
ATOM     15  C   LIG    1       25.050 -20.600   7.966  0.00  0.00    +0.010 A 
ATOM     16  C   LIG    1       26.362 -20.205   8.202  0.00  0.00    +0.001 A 
ATOM     17  C   LIG    1       27.400 -21.109   7.999  0.00  0.00    +0.002 A 
ATOM     18  C   LIG    1       23.460 -22.329   7.313  0.00  0.00    +0.012 A 
ATOM     19  C   LIG    1       27.125 -22.391   7.512  0.00  0.00    +0.028 A 
ATOM     20  C   LIG    1       23.226 -23.615   6.847  0.00  0.00    +0.034 A 
ENDBRANCH   9  11
ENDBRANCH   6   7
BRANCH   6  21
ATOM     21  C   LIG    1       25.690 -28.577   5.297  0.00  0.00    +0.127 C 
BRANCH  21  22
ATOM     22  C   LIG    1       26.500 -27.463   4.683  0.00  0.00    +0.213 C 
ATOM     23  O   LIG    1       27.515 -27.012   5.212  0.00  0.00    -0.276 OA
ATOM     24  N   LIG    1       25.972 -26.842   3.594  0.00  0.00    -0.329 N 
ATOM     25  H   LIG    1       26.514 -26.075   3.216  0.00  0.00    +0.145 HD
ATOM     26  H   LIG    1       25.216 -27.216   3.040  0.00  0.00    +0.145 HD
ENDBRANCH  21  22
ENDBRANCH   6  21
ENDBRANCH   4   6
ENDBRANCH   1   2
BRANCH   1  27
ATOM     27  C   LIG    1       27.071 -29.410  10.633  0.00  0.00    +0.149 C 
BRANCH  27  28
ATOM     28  O   LIG    1       26.700 -28.024  10.703  0.00  0.00    -0.389 OA
ATOM     29  H   LIG    1       27.112 -27.565   9.949  0.00  0.00    +0.210 HD
ENDBRANCH  27  28
BRANCH  27  30
ATOM     30  C   LIG    1       26.926 -30.072  12.057  0.00  0.00    +0.118 C 
BRANCH  30  32
ATOM     31  C   LIG    1       24.483 -29.481  12.087  0.00  0.00    +0.143 C 
ATOM     32  N   LIG    1       25.722 -29.753  12.895  0.00  0.00    -0.289 NA
ATOM     33  C   LIG    1       25.389 -30.705  13.971  0.00  0.00    +0.089 C 
ATOM     34  C   LIG    1       24.914 -32.103  13.500  0.00  0.00    +0.006 C 
ATOM     35  C   LIG    1       24.350 -32.088  12.064  0.00  0.00    -0.005 C 
ATOM     36  C   LIG    1       23.469 -33.309  11.774  0.00  0.00    +0.004 C 
ATOM     37  C   LIG    1       22.284 -33.468  12.720  0.00  0.00    +0.000 C 
ATOM     38  C   LIG    1       22.494 -32.791  14.073  0.00  0.00    +0.000 C 
ATOM     39  C   LIG    1       23.960 -32.791  14.509  0.00  0.00    +0.005 C 
ATOM     40  C   LIG    1       23.672 -30.751  11.705  0.00  0.00    +0.032 C 
BRANCH  31  43
ATOM     41  N   LIG    1       22.290 -28.905  13.197  0.00  0.00    -0.309 N 
ATOM     42  H   LIG    1       21.972 -29.763  12.767  0.00  0.00    +0.149 HD
ATOM     43  C   LIG    1       23.554 -28.434  12.833  0.00  0.00    +0.231 C 
ATOM     44  O   LIG    1       23.904 -27.283  13.089  0.00  0.00    -0.274 OA
BRANCH  41  46
ATOM     45  C   LIG    1       19.978 -28.897  14.086  0.00  0.00    +0.031 C 
ATOM     46  C   LIG    1       21.274 -28.078  13.902  0.00  0.00    +0.026 C 
ATOM     47  C   LIG    1       21.756 -27.662  15.308  0.00  0.00    +0.031 C 
ATOM     48  C   LIG    1       20.911 -26.824  13.086  0.00  0.00    +0.031 C 
ENDBRANCH  41  46
ENDBRANCH  31  43
ENDBRANCH  30  32
ENDBRANCH  27  30
ENDBRANCH   1  27
BRANCH   1  49
ATOM     49  C   LIG    1       26.933 -31.485   9.077  0.00  0.00    +0.060 C 
BRANCH  49  50
ATOM     50  C   LIG    1       26.435 -32.316   7.898  0.00  0.00    -0.045 A 
ATOM     51  C   LIG    1       25.248 -33.057   7.933  0.00  0.00    +0.003 A 
ATOM     52  C   LIG    1       24.819 -33.787   6.813  0.00  0.00    +0.000 A 
ATOM     53  C   LIG    1       25.589 -33.823   5.653  0.00  0.00    +0.000 A 
ATOM     54  C   LIG    1       26.813 -33.166   5.629  0.00  0.00    +0.000 A 
ATOM     55  C   LIG    1       27.238 -32.433   6.746  0.00  0.00    +0.003 A 
ENDBRANCH  49  50
ENDBRANCH   1  49
TORSDOF 14
ENDMDL
MODEL 2
REMARK VINA RESULT:      -7.5      2.304      9.389
REMARK  Name = *****
REMARK                            x       y       z     vdW  Elec       q    Type
REMARK                         _______ _______ _______ _____ _____    ______ ____
ROOT
ATOM      1  C   LIG    1       26.067 -27.373   7.146  0.00  0.00    +0.107 C 
ENDROOT
BRANCH   1   2
ATOM      2  N   LIG    1       26.290 -27.332   8.622  0.00  0.00    -0.308 N 
ATOM      3  H   LIG    1       26.156 -26.445   9.094  0.00  0.00    +0.149 HD
ATOM      4  C   LIG    1       26.665 -28.464   9.344  0.00  0.00    +0.234 C 
ATOM      5  O   LIG    1       27.011 -29.488   8.756  0.00  0.00    -0.274 OA
BRANCH   4   6
ATOM      6  C   LIG    1       26.856 -28.313  10.898  0.00  0.00    +0.168 C 
BRANCH   6   7
ATOM      7  N   LIG    1       25.573 -28.475  11.619  0.00  0.00    -0.298 N 
ATOM      8  H   LIG    1       24.957 -29.239  11.383  0.00  0.00    +0.150 HD
ATOM      9  C   LIG    1       25.187 -27.681  12.695  0.00  0.00    +0.263 C 
ATOM     10  O   LIG    1       25.829 -26.775  13.160  0.00  0.00    -0.269 OA
BRANCH   9  11
ATOM     11  C   LIG    1       23.881 -28.047  13.319  0.00  0.00    +0.126 A 
ATOM     12  N   LIG    1       22.817 -27.254  13.027  0.00  0.00    -0.242 NA
ATOM     13  C   LIG    1       21.651 -27.557  13.626  0.00  0.00    +0.072 A 
ATOM     14  C   LIG    1       21.491 -28.695  14.453  0.00  0.00    +0.000 A 
ATOM     15  C   LIG    1       20.235 -29.011  14.995  0.00  0.00    +0.010 A 
ATOM     16  C   LIG    1       19.144 -28.181  14.762  0.00  0.00    +0.001 A 
ATOM     17  C   LIG    1       19.309 -27.024  14.007  0.00  0.00    +0.002 A 
ATOM     18  C   LIG    1       22.610 -29.489  14.720  0.00  0.00    +0.012 A 
ATOM     19  C   LIG    1       20.554 -26.727  13.446  0.00  0.00    +0.028 A 
ATOM     20  C   LIG    1       23.834 -29.152  14.159  0.00  0.00    +0.034 A 
ENDBRANCH   9  11
ENDBRANCH   6   7
BRANCH   6  21
ATOM     21  C   LIG    1       27.933 -29.269  11.450  0.00  0.00    +0.127 C 
BRANCH  21  22
ATOM     22  C   LIG    1       28.019 -29.500  12.938  0.00  0.00    +0.213 C 
ATOM     23  O   LIG    1       27.485 -30.460  13.492  0.00  0.00    -0.276 OA
ATOM     24  N   LIG    1       28.565 -28.504  13.687  0.00  0.00    -0.329 N 
ATOM     25  H   LIG    1       28.583 -28.663  14.687  0.00  0.00    +0.145 HD
ATOM     26  H   LIG    1       29.118 -27.750  13.310  0.00  0.00    +0.145 HD
ENDBRANCH  21  22
ENDBRANCH   6  21
ENDBRANCH   4   6
ENDBRANCH   1   2
BRANCH   1  27
ATOM     27  C   LIG    1       26.119 -25.932   6.444  0.00  0.00    +0.149 C 
BRANCH  27  28
ATOM     28  O   LIG    1       26.128 -26.102   5.018  0.00  0.00    -0.389 OA
ATOM     29  H   LIG    1       26.187 -25.218   4.611  0.00  0.00    +0.210 HD
ENDBRANCH  27  28
BRANCH  27  30
ATOM     30  C   LIG    1       24.959 -24.946   6.854  0.00  0.00    +0.118 C 
BRANCH  30  32
ATOM     31  C   LIG    1       26.373 -22.890   6.554  0.00  0.00    +0.143 C 
ATOM     32  N   LIG    1       25.306 -23.576   7.361  0.00  0.00    -0.289 NA
ATOM     33  C   LIG    1       24.186 -22.639   7.564  0.00  0.00    +0.089 C 
ATOM     34  C   LIG    1       23.464 -22.175   6.273  0.00  0.00    +0.006 C 
ATOM     35  C   LIG    1       24.346 -22.311   5.014  0.00  0.00    -0.005 C 
ATOM     36  C   LIG    1       23.843 -21.442   3.855  0.00  0.00    +0.004 C 
ATOM     37  C   LIG    1       23.751 -19.955   4.180  0.00  0.00    +0.000 C 
ATOM     38  C   LIG    1       23.599 -19.669   5.672  0.00  0.00    +0.000 C 
ATOM     39  C   LIG    1       22.828 -20.767   6.406  0.00  0.00    +0.005 C 
ATOM     40  C   LIG    1       25.846 -22.114   5.316  0.00  0.00    +0.032 C 
BRANCH  31  43
ATOM     41  N   LIG    1       28.349 -21.350   6.867  0.00  0.00    -0.309 N 
ATOM     42  H   LIG    1       28.657 -21.745   5.989  0.00  0.00    +0.149 HD
ATOM     43  C   LIG    1       27.238 -21.934   7.479  0.00  0.00    +0.231 C 
ATOM     44  O   LIG    1       26.963 -21.705   8.656  0.00  0.00    -0.274 OA
BRANCH  41  46
ATOM     45  C   LIG    1       30.114 -19.646   6.522  0.00  0.00    +0.031 C 
ATOM     46  C   LIG    1       29.283 -20.426   7.565  0.00  0.00    +0.026 C 
ATOM     47  C   LIG    1       28.524 -19.386   8.416  0.00  0.00    +0.031 C 
ATOM     48  C   LIG    1       30.274 -21.200   8.453  0.00  0.00    +0.031 C 
ENDBRANCH  41  46
ENDBRANCH  31  43
ENDBRANCH  30  32
ENDBRANCH  27  30
ENDBRANCH   1  27
BRANCH   1  49
ATOM     49  C   LIG    1       24.706 -28.087   6.774  0.00  0.00    +0.060 C 
BRANCH  49  50
ATOM     50  C   LIG    1       24.666 -29.574   6.437  0.00  0.00    -0.045 A 
ATOM     51  C   LIG    1       23.992 -30.517   7.222  0.00  0.00    +0.003 A 
ATOM     52  C   LIG    1       23.964 -31.873   6.858  0.00  0.00    +0.000 A 
ATOM     53  C   LIG    1       24.642 -32.317   5.726  0.00  0.00    +0.000 A 
ATOM     54  C   LIG    1       25.390 -31.411   4.983  0.00  0.00    +0.000 A 
ATOM     55  C   LIG    1       25.414 -30.057   5.344  0.00  0.00    +0.003 A 
ENDBRANCH  49  50
ENDBRANCH   1  49
TORSDOF 14
ENDMDL
MODEL 3
REMARK VINA RESULT:      -7.3      2.489      5.330
REMARK  Name = *****
REMARK                            x       y       z     vdW  Elec       q    Type
REMARK                         _______ _______ _______ _____ _____    ______ ____
ROOT
ATOM      1  C   LIG    1       22.727 -32.420  11.062  0.00  0.00    +0.107 C 
ENDROOT
BRANCH   1   2
ATOM      2  N   LIG    1       23.592 -32.201   9.865  0.00  0.00    -0.308 N 
ATOM      3  H   LIG    1       24.270 -32.919   9.635  0.00  0.00    +0.149 HD
ATOM      4  C   LIG    1       23.482 -31.057   9.074  0.00  0.00    +0.234 C 
ATOM      5  O   LIG    1       22.802 -30.105   9.453  0.00  0.00    -0.274 OA
BRANCH   4   6
ATOM      6  C   LIG    1       24.431 -30.935   7.824  0.00  0.00    +0.168 C 
BRANCH   6   7
ATOM      7  N   LIG    1       24.491 -29.542   7.326  0.00  0.00    -0.298 N 
ATOM      8  H   LIG    1       24.308 -28.775   7.955  0.00  0.00    +0.150 HD
ATOM      9  C   LIG    1       24.884 -29.201   6.035  0.00  0.00    +0.263 C 
ATOM     10  O   LIG    1       25.210 -29.979   5.175  0.00  0.00    -0.269 OA
BRANCH   9  11
ATOM     11  C   LIG    1       24.932 -27.736   5.751  0.00  0.00    +0.126 A 
ATOM     12  N   LIG    1       24.100 -26.943   6.474  0.00  0.00    -0.242 NA
ATOM     13  C   LIG    1       24.110 -25.629   6.186  0.00  0.00    +0.072 A 
ATOM     14  C   LIG    1       25.002 -25.061   5.244  0.00  0.00    +0.000 A 
ATOM     15  C   LIG    1       25.027 -23.674   5.033  0.00  0.00    +0.010 A 
ATOM     16  C   LIG    1       24.141 -22.846   5.714  0.00  0.00    +0.001 A 
ATOM     17  C   LIG    1       23.215 -23.404   6.591  0.00  0.00    +0.002 A 
ATOM     18  C   LIG    1       25.848 -25.914   4.528  0.00  0.00    +0.012 A 
ATOM     19  C   LIG    1       23.212 -24.782   6.820  0.00  0.00    +0.028 A 
ATOM     20  C   LIG    1       25.803 -27.279   4.770  0.00  0.00    +0.034 A 
ENDBRANCH   9  11
ENDBRANCH   6   7
BRANCH   6  21
ATOM     21  C   LIG    1       25.841 -31.491   8.105  0.00  0.00    +0.127 C 
BRANCH  21  22
ATOM     22  C   LIG    1       26.605 -30.987   9.303  0.00  0.00    +0.213 C 
ATOM     23  O   LIG    1       26.740 -31.650  10.331  0.00  0.00    -0.276 OA
ATOM     24  N   LIG    1       27.001 -29.686   9.280  0.00  0.00    -0.329 N 
ATOM     25  H   LIG    1       27.483 -29.357  10.108  0.00  0.00    +0.145 HD
ATOM     26  H   LIG    1       27.030 -29.118   8.448  0.00  0.00    +0.145 HD
ENDBRANCH  21  22
ENDBRANCH   6  21
ENDBRANCH   4   6
ENDBRANCH   1   2
BRANCH   1  27
ATOM     27  C   LIG    1       23.536 -32.885  12.366  0.00  0.00    +0.149 C 
BRANCH  27  28
ATOM     28  O   LIG    1       24.939 -32.926  12.062  0.00  0.00    -0.389 OA
ATOM     29  H   LIG    1       25.088 -32.392  11.261  0.00  0.00    +0.210 HD
ENDBRANCH  27  28
BRANCH  27  30
ATOM     30  C   LIG    1       23.296 -32.003  13.651  0.00  0.00    +0.118 C 
BRANCH  30  32
ATOM     31  C   LIG    1       24.440 -30.011  12.632  0.00  0.00    +0.143 C 
ATOM     32  N   LIG    1       24.157 -30.795  13.883  0.00  0.00    -0.289 NA
ATOM     33  C   LIG    1       23.723 -29.862  14.940  0.00  0.00    +0.089 C 
ATOM     34  C   LIG    1       22.408 -29.094  14.652  0.00  0.00    +0.006 C 
ATOM     35  C   LIG    1       22.086 -29.006  13.146  0.00  0.00    -0.005 C 
ATOM     36  C   LIG    1       21.091 -27.883  12.829  0.00  0.00    +0.004 C 
ATOM     37  C   LIG    1       21.547 -26.497  13.273  0.00  0.00    +0.000 C 
ATOM     38  C   LIG    1       22.558 -26.529  14.416  0.00  0.00    +0.000 C 
ATOM     39  C   LIG    1       22.345 -27.715  15.358  0.00  0.00    +0.005 C 
ATOM     40  C   LIG    1       23.354 -28.961  12.269  0.00  0.00    +0.032 C 
BRANCH  31  43
ATOM     41  N   LIG    1       26.764 -29.913  13.614  0.00  0.00    -0.309 N 
ATOM     42  H   LIG    1       26.385 -30.558  14.294  0.00  0.00    +0.149 HD
ATOM     43  C   LIG    1       25.867 -29.324  12.720  0.00  0.00    +0.231 C 
ATOM     44  O   LIG    1       26.185 -28.341  12.052  0.00  0.00    -0.274 OA
BRANCH  41  46
ATOM     45  C   LIG    1       28.941 -29.475  12.517  0.00  0.00    +0.031 C 
ATOM     46  C   LIG    1       28.147 -29.416  13.841  0.00  0.00    +0.026 C 
ATOM     47  C   LIG    1       28.154 -27.946  14.312  0.00  0.00    +0.031 C 
ATOM     48  C   LIG    1       28.895 -30.292  14.862  0.00  0.00    +0.031 C 
ENDBRANCH  41  46
ENDBRANCH  31  43
ENDBRANCH  30  32
ENDBRANCH  27  30
ENDBRANCH   1  27
BRANCH   1  49
ATOM     49  C   LIG    1       21.567 -33.453  10.771  0.00  0.00    +0.060 C 
BRANCH  49  50
ATOM     50  C   LIG    1       20.209 -32.985  10.257  0.00  0.00    -0.045 A 
ATOM     51  C   LIG    1       19.380 -33.779   9.456  0.00  0.00    +0.003 A 
ATOM     52  C   LIG    1       18.127 -33.312   9.026  0.00  0.00    +0.000 A 
ATOM     53  C   LIG    1       17.699 -32.029   9.356  0.00  0.00    +0.000 A 
ATOM     54  C   LIG    1       18.544 -31.193  10.075  0.00  0.00    +0.000 A 
ATOM     55  C   LIG    1       19.792 -31.662  10.508  0.00  0.00    +0.003 A 
ENDBRANCH  49  50
ENDBRANCH   1  49
TORSDOF 14
ENDMDL
MODEL 4
REMARK VINA RESULT:      -7.1      2.239      3.663
REMARK  Name = *****
REMARK                            x       y       z     vdW  Elec       q    Type
REMARK                         _______ _______ _______ _____ _____    ______ ____
ROOT
ATOM      1  C   LIG    1       25.152 -28.702   7.268  0.00  0.00    +0.107 C 
ENDROOT
BRANCH   1   2
ATOM      2  N   LIG    1       24.709 -27.276   7.296  0.00  0.00    -0.308 N 
ATOM      3  H   LIG    1       23.765 -27.082   7.610  0.00  0.00    +0.149 HD
ATOM      4  C   LIG    1       25.552 -26.233   6.913  0.00  0.00    +0.234 C 
ATOM      5  O   LIG    1       26.622 -26.474   6.355  0.00  0.00    -0.274 OA
BRANCH   4   6
ATOM      6  C   LIG    1       24.990 -24.766   6.998  0.00  0.00    +0.168 C 
BRANCH   6   7
ATOM      7  N   LIG    1       26.075 -23.764   6.891  0.00  0.00    -0.298 N 
ATOM      8  H   LIG    1       26.857 -23.934   6.277  0.00  0.00    +0.150 HD
ATOM      9  C   LIG    1       26.046 -22.526   7.526  0.00  0.00    +0.263 C 
ATOM     10  O   LIG    1       25.160 -22.123   8.233  0.00  0.00    -0.269 OA
BRANCH   9  11
ATOM     11  C   LIG    1       27.214 -21.639   7.241  0.00  0.00    +0.126 A 
ATOM     12  N   LIG    1       28.285 -21.749   8.067  0.00  0.00    -0.242 NA
ATOM     13  C   LIG    1       29.318 -20.918   7.839  0.00  0.00    +0.072 A 
ATOM     14  C   LIG    1       29.349 -20.025   6.741  0.00  0.00    +0.000 A 
ATOM     15  C   LIG    1       30.482 -19.231   6.500  0.00  0.00    +0.010 A 
ATOM     16  C   LIG    1       31.567 -19.279   7.368  0.00  0.00    +0.001 A 
ATOM     17  C   LIG    1       31.516 -20.104   8.487  0.00  0.00    +0.002 A 
ATOM     18  C   LIG    1       28.228 -19.949   5.909  0.00  0.00    +0.012 A 
ATOM     19  C   LIG    1       30.399 -20.915   8.708  0.00  0.00    +0.028 A 
ATOM     20  C   LIG    1       27.130 -20.756   6.171  0.00  0.00    +0.034 A 
ENDBRANCH   9  11
ENDBRANCH   6   7
BRANCH   6  21
ATOM     21  C   LIG    1       23.881 -24.504   5.959  0.00  0.00    +0.127 C 
BRANCH  21  22
ATOM     22  C   LIG    1       22.846 -23.444   6.240  0.00  0.00    +0.213 C 
ATOM     23  O   LIG    1       21.799 -23.682   6.842  0.00  0.00    -0.276 OA
ATOM     24  N   LIG    1       23.025 -22.233   5.647  0.00  0.00    -0.329 N 
ATOM     25  H   LIG    1       22.302 -21.545   5.820  0.00  0.00    +0.145 HD
ATOM     26  H   LIG    1       23.894 -21.925   5.240  0.00  0.00    +0.145 HD
ENDBRANCH  21  22
ENDBRANCH   6  21
ENDBRANCH   4   6
ENDBRANCH   1   2
BRANCH   1  27
ATOM     27  C   LIG    1       26.425 -29.001   8.197  0.00  0.00    +0.149 C 
BRANCH  27  28
ATOM     28  O   LIG    1       26.603 -27.914   9.118  0.00  0.00    -0.389 OA
ATOM     29  H   LIG    1       26.504 -28.266  10.020  0.00  0.00    +0.210 HD
ENDBRANCH  27  28
BRANCH  27  30
ATOM     30  C   LIG    1       26.370 -30.364   8.988  0.00  0.00    +0.118 C 
BRANCH  30  32
ATOM     31  C   LIG    1       24.289 -29.792  10.276  0.00  0.00    +0.143 C 
ATOM     32  N   LIG    1       25.656 -30.418  10.308  0.00  0.00    -0.289 NA
ATOM     33  C   LIG    1       25.561 -31.738  10.959  0.00  0.00    +0.089 C 
ATOM     34  C   LIG    1       24.670 -32.777  10.230  0.00  0.00    +0.006 C 
ATOM     35  C   LIG    1       23.628 -32.121   9.300  0.00  0.00    -0.005 C 
ATOM     36  C   LIG    1       22.473 -33.071   8.961  0.00  0.00    +0.004 C 
ATOM     37  C   LIG    1       21.720 -33.602  10.175  0.00  0.00    +0.000 C 
ATOM     38  C   LIG    1       22.551 -33.592  11.456  0.00  0.00    +0.000 C 
ATOM     39  C   LIG    1       24.040 -33.816  11.193  0.00  0.00    +0.005 C 
ATOM     40  C   LIG    1       23.154 -30.747   9.814  0.00  0.00    +0.032 C 
BRANCH  31  43
ATOM     41  N   LIG    1       22.578 -29.103  12.001  0.00  0.00    -0.309 N 
ATOM     42  H   LIG    1       21.922 -29.239  11.244  0.00  0.00    +0.149 HD
ATOM     43  C   LIG    1       23.938 -29.158  11.688  0.00  0.00    +0.231 C 
ATOM     44  O   LIG    1       24.791 -28.741  12.471  0.00  0.00    -0.274 OA
BRANCH  41  46
ATOM     45  C   LIG    1       20.515 -28.736  13.322  0.00  0.00    +0.031 C 
ATOM     46  C   LIG    1       22.048 -28.545  13.273  0.00  0.00    +0.026 C 
ATOM     47  C   LIG    1       22.638 -29.268  14.502  0.00  0.00    +0.031 C 
ATOM     48  C   LIG    1       22.323 -27.033  13.377  0.00  0.00    +0.031 C 
ENDBRANCH  41  46
ENDBRANCH  31  43
ENDBRANCH  30  32
ENDBRANCH  27  30
ENDBRANCH   1  27
BRANCH   1  49
ATOM     49  C   LIG    1       25.450 -29.198   5.797  0.00  0.00    +0.060 C 
BRANCH  49  50
ATOM     50  C   LIG    1       25.206 -30.649   5.394  0.00  0.00    -0.045 A 
ATOM     51  C   LIG    1       26.002 -31.326   4.462  0.00  0.00    +0.003 A 
ATOM     52  C   LIG    1       25.753 -32.671   4.140  0.00  0.00    +0.000 A 
ATOM     53  C   LIG    1       24.680 -33.349   4.713  0.00  0.00    +0.000 A 
ATOM     54  C   LIG    1       23.826 -32.668   5.572  0.00  0.00    +0.000 A 
ATOM     55  C   LIG    1       24.079 -31.328   5.897  0.00  0.00    +0.003 A 
ENDBRANCH  49  50
ENDBRANCH   1  49
TORSDOF 14
ENDMDL
MODEL 5
REMARK VINA RESULT:      -7.0      2.796      5.271
REMARK  Name = *****
REMARK                            x       y       z     vdW  Elec       q    Type
REMARK                         _______ _______ _______ _____ _____    ______ ____
ROOT
ATOM      1  C   LIG    1       24.983 -26.763   6.735  0.00  0.00    +0.107 C 
ENDROOT
BRANCH   1   2
ATOM      2  N   LIG    1       25.196 -25.326   6.390  0.00  0.00    -0.308 N 
ATOM      3  H   LIG    1       26.140 -25.030   6.167  0.00  0.00    +0.149 HD
ATOM      4  C   LIG    1       24.146 -24.408   6.365  0.00  0.00    +0.234 C 
ATOM      5  O   LIG    1       23.043 -24.717   6.816  0.00  0.00    -0.274 OA
BRANCH   4   6
ATOM      6  C   LIG    1       24.479 -22.922   5.971  0.00  0.00    +0.168 C 
BRANCH   6   7
ATOM      7  N   LIG    1       25.795 -22.503   6.506  0.00  0.00    -0.298 N 
ATOM      8  H   LIG    1       26.570 -23.150   6.497  0.00  0.00    +0.150 HD
ATOM      9  C   LIG    1       26.073 -21.213   6.946  0.00  0.00    +0.263 C 
ATOM     10  O   LIG    1       25.294 -20.295   6.957  0.00  0.00    -0.269 OA
BRANCH   9  11
ATOM     11  C   LIG    1       27.479 -20.984   7.393  0.00  0.00    +0.126 A 
ATOM     12  N   LIG    1       27.850 -19.696   7.616  0.00  0.00    -0.242 NA
ATOM     13  C   LIG    1       29.130 -19.486   7.974  0.00  0.00    +0.072 A 
ATOM     14  C   LIG    1       30.042 -20.544   8.203  0.00  0.00    +0.000 A 
ATOM     15  C   LIG    1       31.346 -20.277   8.648  0.00  0.00    +0.010 A 
ATOM     16  C   LIG    1       31.770 -18.965   8.824  0.00  0.00    +0.001 A 
ATOM     17  C   LIG    1       30.902 -17.917   8.536  0.00  0.00    +0.002 A 
ATOM     18  C   LIG    1       29.615 -21.855   7.969  0.00  0.00    +0.012 A 
ATOM     19  C   LIG    1       29.595 -18.187   8.120  0.00  0.00    +0.028 A 
ATOM     20  C   LIG    1       28.316 -22.082   7.539  0.00  0.00    +0.034 A 
ENDBRANCH   9  11
ENDBRANCH   6   7
BRANCH   6  21
ATOM     21  C   LIG    1       24.392 -22.687   4.449  0.00  0.00    +0.127 C 
BRANCH  21  22
ATOM     22  C   LIG    1       23.931 -21.346   3.938  0.00  0.00    +0.213 C 
ATOM     23  O   LIG    1       24.452 -20.789   2.972  0.00  0.00    -0.276 OA
ATOM     24  N   LIG    1       23.021 -20.675   4.695  0.00  0.00    -0.329 N 
ATOM     25  H   LIG    1       22.750 -19.762   4.353  0.00  0.00    +0.145 HD
ATOM     26  H   LIG    1       22.470 -21.099   5.425  0.00  0.00    +0.145 HD
ENDBRANCH  21  22
ENDBRANCH   6  21
ENDBRANCH   4   6
ENDBRANCH   1   2
BRANCH   1  27
ATOM     27  C   LIG    1       26.280 -27.480   7.347  0.00  0.00    +0.149 C 
BRANCH  27  28
ATOM     28  O   LIG    1       27.456 -26.941   6.723  0.00  0.00    -0.389 OA
ATOM     29  H   LIG    1       27.191 -26.553   5.869  0.00  0.00    +0.210 HD
ENDBRANCH  27  28
BRANCH  27  30
ATOM     30  C   LIG    1       26.420 -27.386   8.914  0.00  0.00    +0.118 C 
BRANCH  30  32
ATOM     31  C   LIG    1       26.757 -28.485  11.149  0.00  0.00    +0.143 C 
ATOM     32  N   LIG    1       27.013 -28.541   9.669  0.00  0.00    -0.289 NA
ATOM     33  C   LIG    1       26.685 -29.893   9.180  0.00  0.00    +0.089 C 
ATOM     34  C   LIG    1       25.203 -30.317   9.338  0.00  0.00    +0.006 C 
ATOM     35  C   LIG    1       24.469 -29.524  10.440  0.00  0.00    -0.005 C 
ATOM     36  C   LIG    1       23.198 -30.235  10.919  0.00  0.00    +0.004 C 
ATOM     37  C   LIG    1       23.430 -31.642  11.458  0.00  0.00    +0.000 C 
ATOM     38  C   LIG    1       24.696 -32.299  10.911  0.00  0.00    +0.000 C 
ATOM     39  C   LIG    1       25.024 -31.850   9.486  0.00  0.00    +0.005 C 
ATOM     40  C   LIG    1       25.404 -29.107  11.594  0.00  0.00    +0.032 C 
BRANCH  31  43
ATOM     41  N   LIG    1       28.094 -28.746  13.275  0.00  0.00    -0.309 N 
ATOM     42  H   LIG    1       27.594 -27.915  13.562  0.00  0.00    +0.149 HD
ATOM     43  C   LIG    1       27.958 -29.148  11.945  0.00  0.00    +0.231 C 
ATOM     44  O   LIG    1       28.727 -29.968  11.444  0.00  0.00    -0.274 OA
BRANCH  41  46
ATOM     45  C   LIG    1       29.484 -28.177  15.245  0.00  0.00    +0.031 C 
ATOM     46  C   LIG    1       29.157 -29.252  14.185  0.00  0.00    +0.026 C 
ATOM     47  C   LIG    1       28.702 -30.518  14.941  0.00  0.00    +0.031 C 
ATOM     48  C   LIG    1       30.457 -29.545  13.415  0.00  0.00    +0.031 C 
ENDBRANCH  41  46
ENDBRANCH  31  43
ENDBRANCH  30  32
ENDBRANCH  27  30
ENDBRANCH   1  27
BRANCH   1  49
ATOM     49  C   LIG    1       24.459 -27.596   5.498  0.00  0.00    +0.060 C 
BRANCH  49  50
ATOM     50  C   LIG    1       24.549 -29.119   5.481  0.00  0.00    -0.045 A 
ATOM     51  C   LIG    1       23.622 -29.945   6.128  0.00  0.00    +0.003 A 
ATOM     52  C   LIG    1       23.733 -31.343   6.065  0.00  0.00    +0.000 A 
ATOM     53  C   LIG    1       24.795 -31.940   5.389  0.00  0.00    +0.000 A 
ATOM     54  C   LIG    1       25.773 -31.136   4.816  0.00  0.00    +0.000 A 
ATOM     55  C   LIG    1       25.659 -29.741   4.876  0.00  0.00    +0.003 A 
ENDBRANCH  49  50
ENDBRANCH   1  49
TORSDOF 14
ENDMDL
MODEL 6
REMARK VINA RESULT:      -6.6      3.967      8.173
REMARK  Name = *****
REMARK                            x       y       z     vdW  Elec       q    Type
REMARK                         _______ _______ _______ _____ _____    ______ ____
ROOT
ATOM      1  C   LIG    1       24.968 -24.205   6.543  0.00  0.00    +0.107 C 
ENDROOT
BRANCH   1   2
ATOM      2  N   LIG    1       26.112 -23.273   6.308  0.00  0.00    -0.308 N 
ATOM      3  H   LIG    1       26.637 -23.380   5.448  0.00  0.00    +0.149 HD
ATOM      4  C   LIG    1       26.457 -22.282   7.226  0.00  0.00    +0.234 C 
ATOM      5  O   LIG    1       25.950 -22.271   8.347  0.00  0.00    -0.274 OA
BRANCH   4   6
ATOM      6  C   LIG    1       27.669 -21.343   6.871  0.00  0.00    +0.168 C 
BRANCH   6   7
ATOM      7  N   LIG    1       27.238 -20.197   6.037  0.00  0.00    -0.298 N 
ATOM      8  H   LIG    1       26.263 -19.939   6.003  0.00  0.00    +0.150 HD
ATOM      9  C   LIG    1       28.120 -19.369   5.349  0.00  0.00    +0.263 C 
ATOM     10  O   LIG    1       29.319 -19.481   5.338  0.00  0.00    -0.269 OA
BRANCH   9  11
ATOM     11  C   LIG    1       27.485 -18.235   4.614  0.00  0.00    +0.126 A 
ATOM     12  N   LIG    1       28.088 -17.023   4.716  0.00  0.00    -0.242 NA
ATOM     13  C   LIG    1       27.491 -15.992   4.091  0.00  0.00    +0.072 A 
ATOM     14  C   LIG    1       26.338 -16.153   3.285  0.00  0.00    +0.000 A 
ATOM     15  C   LIG    1       25.794 -15.060   2.592  0.00  0.00    +0.010 A 
ATOM     16  C   LIG    1       26.356 -13.796   2.729  0.00  0.00    +0.001 A 
ATOM     17  C   LIG    1       27.447 -13.616   3.573  0.00  0.00    +0.002 A 
ATOM     18  C   LIG    1       25.754 -17.421   3.201  0.00  0.00    +0.012 A 
ATOM     19  C   LIG    1       28.004 -14.712   4.239  0.00  0.00    +0.028 A 
ATOM     20  C   LIG    1       26.324 -18.480   3.892  0.00  0.00    +0.034 A 
ENDBRANCH   9  11
ENDBRANCH   6   7
BRANCH   6  21
ATOM     21  C   LIG    1       28.428 -20.868   8.126  0.00  0.00    +0.127 C 
BRANCH  21  22
ATOM     22  C   LIG    1       29.896 -21.185   8.261  0.00  0.00    +0.213 C 
ATOM     23  O   LIG    1       30.327 -21.994   9.081  0.00  0.00    -0.276 OA
ATOM     24  N   LIG    1       30.763 -20.409   7.555  0.00  0.00    -0.329 N 
ATOM     25  H   LIG    1       31.745 -20.615   7.685  0.00  0.00    +0.145 HD
ATOM     26  H   LIG    1       30.493 -19.812   6.789  0.00  0.00    +0.145 HD
ENDBRANCH  21  22
ENDBRANCH   6  21
ENDBRANCH   4   6
ENDBRANCH   1   2
BRANCH   1  27
ATOM     27  C   LIG    1       24.914 -25.433   5.514  0.00  0.00    +0.149 C 
BRANCH  27  28
ATOM     28  O   LIG    1       26.205 -25.597   4.905  0.00  0.00    -0.389 OA
ATOM     29  H   LIG    1       26.840 -25.825   5.608  0.00  0.00    +0.210 HD
ENDBRANCH  27  28
BRANCH  27  30
ATOM     30  C   LIG    1       24.441 -26.804   6.133  0.00  0.00    +0.118 C 
BRANCH  30  32
ATOM     31  C   LIG    1       24.871 -28.410   8.018  0.00  0.00    +0.143 C 
ATOM     32  N   LIG    1       25.441 -27.676   6.836  0.00  0.00    -0.289 NA
ATOM     33  C   LIG    1       26.196 -28.629   6.002  0.00  0.00    +0.089 C 
ATOM     34  C   LIG    1       25.361 -29.779   5.383  0.00  0.00    +0.006 C 
ATOM     35  C   LIG    1       24.056 -30.053   6.160  0.00  0.00    -0.005 C 
ATOM     36  C   LIG    1       23.484 -31.444   5.860  0.00  0.00    +0.004 C 
ATOM     37  C   LIG    1       24.437 -32.594   6.163  0.00  0.00    +0.000 C 
ATOM     38  C   LIG    1       25.908 -32.184   6.138  0.00  0.00    +0.000 C 
ATOM     39  C   LIG    1       26.190 -31.065   5.135  0.00  0.00    +0.005 C 
ATOM     40  C   LIG    1       24.190 -29.763   7.668  0.00  0.00    +0.032 C 
BRANCH  31  43
ATOM     41  N   LIG    1       25.568 -29.304  10.274  0.00  0.00    -0.309 N 
ATOM     42  H   LIG    1       24.573 -29.400  10.422  0.00  0.00    +0.149 HD
ATOM     43  C   LIG    1       25.984 -28.622   9.128  0.00  0.00    +0.231 C 
ATOM     44  O   LIG    1       27.142 -28.225   9.007  0.00  0.00    -0.274 OA
BRANCH  41  46
ATOM     45  C   LIG    1       27.829 -30.095  10.906  0.00  0.00    +0.031 C 
ATOM     46  C   LIG    1       26.461 -29.600  11.426  0.00  0.00    +0.026 C 
ATOM     47  C   LIG    1       26.725 -28.341  12.279  0.00  0.00    +0.031 C 
ATOM     48  C   LIG    1       25.878 -30.716  12.312  0.00  0.00    +0.031 C 
ENDBRANCH  41  46
ENDBRANCH  31  43
ENDBRANCH  30  32
ENDBRANCH  27  30
ENDBRANCH   1  27
BRANCH   1  49
ATOM     49  C   LIG    1       23.580 -23.450   6.530  0.00  0.00    +0.060 C 
BRANCH  49  50
ATOM     50  C   LIG    1       23.420 -22.112   5.815  0.00  0.00    -0.045 A 
ATOM     51  C   LIG    1       23.786 -21.911   4.479  0.00  0.00    +0.003 A 
ATOM     52  C   LIG    1       23.598 -20.666   3.857  0.00  0.00    +0.000 A 
ATOM     53  C   LIG    1       23.080 -19.589   4.571  0.00  0.00    +0.000 A 
ATOM     54  C   LIG    1       22.793 -19.744   5.922  0.00  0.00    +0.000 A 
ATOM     55  C   LIG    1       22.976 -20.988   6.540  0.00  0.00    +0.003 A 
ENDBRANCH  49  50
ENDBRANCH   1  49
TORSDOF 14
ENDMDL
MODEL 7
REMARK VINA RESULT:      -6.5      2.506      4.943
REMARK  Name = *****
REMARK                            x       y       z     vdW  Elec       q    Type
REMARK                         _______ _______ _______ _____ _____    ______ ____
ROOT
ATOM      1  C   LIG    1       23.729 -31.634  10.836  0.00  0.00    +0.107 C 
ENDROOT
BRANCH   1   2
ATOM      2  N   LIG    1       24.579 -31.423   9.626  0.00  0.00    -0.308 N 
ATOM      3  H   LIG    1       25.538 -31.129   9.770  0.00  0.00    +0.149 HD
ATOM      4  C   LIG    1       24.089 -31.622   8.335  0.00  0.00    +0.234 C 
ATOM      5  O   LIG    1       22.884 -31.791   8.149  0.00  0.00    -0.274 OA
BRANCH   4   6
ATOM      6  C   LIG    1       25.075 -31.388   7.132  0.00  0.00    +0.168 C 
BRANCH   6   7
ATOM      7  N   LIG    1       25.000 -29.995   6.636  0.00  0.00    -0.298 N 
ATOM      8  H   LIG    1       24.548 -29.799   5.755  0.00  0.00    +0.150 HD
ATOM      9  C   LIG    1       25.440 -28.893   7.362  0.00  0.00    +0.263 C 
ATOM     10  O   LIG    1       25.934 -28.931   8.460  0.00  0.00    -0.269 OA
BRANCH   9  11
ATOM     11  C   LIG    1       25.221 -27.570   6.705  0.00  0.00    +0.126 A 
ATOM     12  N   LIG    1       25.776 -26.486   7.307  0.00  0.00    -0.242 NA
ATOM     13  C   LIG    1       25.539 -25.289   6.741  0.00  0.00    +0.072 A 
ATOM     14  C   LIG    1       24.826 -25.147   5.526  0.00  0.00    +0.000 A 
ATOM     15  C   LIG    1       24.670 -23.884   4.934  0.00  0.00    +0.010 A 
ATOM     16  C   LIG    1       25.175 -22.751   5.562  0.00  0.00    +0.001 A 
ATOM     17  C   LIG    1       25.817 -22.873   6.790  0.00  0.00    +0.002 A 
ATOM     18  C   LIG    1       24.279 -26.291   4.936  0.00  0.00    +0.012 A 
ATOM     19  C   LIG    1       25.996 -24.136   7.362  0.00  0.00    +0.028 A 
ATOM     20  C   LIG    1       24.462 -27.525   5.543  0.00  0.00    +0.034 A 
ENDBRANCH   9  11
ENDBRANCH   6   7
BRANCH   6  21
ATOM     21  C   LIG    1       26.524 -31.783   7.479  0.00  0.00    +0.127 C 
BRANCH  21  22
ATOM     22  C   LIG    1       27.240 -32.787   6.612  0.00  0.00    +0.213 C 
ATOM     23  O   LIG    1       28.221 -33.420   7.001  0.00  0.00    -0.276 OA
ATOM     24  N   LIG    1       26.871 -32.849   5.304  0.00  0.00    -0.329 N 
ATOM     25  H   LIG    1       27.386 -33.505   4.730  0.00  0.00    +0.145 HD
ATOM     26  H   LIG    1       26.018 -32.455   4.938  0.00  0.00    +0.145 HD
ENDBRANCH  21  22
ENDBRANCH   6  21
ENDBRANCH   4   6
ENDBRANCH   1   2
BRANCH   1  27
ATOM     27  C   LIG    1       24.532 -32.215  12.096  0.00  0.00    +0.149 C 
BRANCH  27  28
ATOM     28  O   LIG    1       25.916 -31.848  11.984  0.00  0.00    -0.389 OA
ATOM     29  H   LIG    1       26.453 -32.630  12.205  0.00  0.00    +0.210 HD
ENDBRANCH  27  28
BRANCH  27  30
ATOM     30  C   LIG    1       23.977 -31.774  13.504  0.00  0.00    +0.118 C 
BRANCH  30  32
ATOM     31  C   LIG    1       24.586 -29.392  12.982  0.00  0.00    +0.143 C 
ATOM     32  N   LIG    1       24.347 -30.424  14.049  0.00  0.00    -0.289 NA
ATOM     33  C   LIG    1       23.454 -29.852  15.073  0.00  0.00    +0.089 C 
ATOM     34  C   LIG    1       22.037 -29.464  14.579  0.00  0.00    +0.006 C 
ATOM     35  C   LIG    1       21.982 -29.219  13.057  0.00  0.00    -0.005 C 
ATOM     36  C   LIG    1       20.755 -28.398  12.644  0.00  0.00    +0.004 C 
ATOM     37  C   LIG    1       20.654 -27.037  13.321  0.00  0.00    +0.000 C 
ATOM     38  C   LIG    1       21.397 -26.965  14.653  0.00  0.00    +0.000 C 
ATOM     39  C   LIG    1       21.408 -28.304  15.393  0.00  0.00    +0.005 C 
ATOM     40  C   LIG    1       23.305 -28.658  12.497  0.00  0.00    +0.032 C 
BRANCH  31  43
ATOM     41  N   LIG    1       25.191 -27.072  13.776  0.00  0.00    -0.309 N 
ATOM     42  H   LIG    1       24.259 -26.840  13.461  0.00  0.00    +0.149 HD
ATOM     43  C   LIG    1       25.677 -28.344  13.461  0.00  0.00    +0.231 C 
ATOM     44  O   LIG    1       26.873 -28.612  13.559  0.00  0.00    -0.274 OA
BRANCH  41  46
ATOM     45  C   LIG    1       27.080 -25.601  13.142  0.00  0.00    +0.031 C 
ATOM     46  C   LIG    1       26.053 -25.953  14.241  0.00  0.00    +0.026 C 
ATOM     47  C   LIG    1       25.228 -24.679  14.522  0.00  0.00    +0.031 C 
ATOM     48  C   LIG    1       26.847 -26.346  15.500  0.00  0.00    +0.031 C 
ENDBRANCH  41  46
ENDBRANCH  31  43
ENDBRANCH  30  32
ENDBRANCH  27  30
ENDBRANCH   1  27
BRANCH   1  49
ATOM     49  C   LIG    1       22.489 -32.566  10.531  0.00  0.00    +0.060 C 
BRANCH  49  50
ATOM     50  C   LIG    1       21.110 -32.249  11.099  0.00  0.00    -0.045 A 
ATOM     51  C   LIG    1       20.140 -31.528  10.393  0.00  0.00    +0.003 A 
ATOM     52  C   LIG    1       18.874 -31.281  10.950  0.00  0.00    +0.000 A 
ATOM     53  C   LIG    1       18.570 -31.715  12.238  0.00  0.00    +0.000 A 
ATOM     54  C   LIG    1       19.549 -32.355  12.988  0.00  0.00    +0.000 A 
ATOM     55  C   LIG    1       20.810 -32.605  12.430  0.00  0.00    +0.003 A 
ENDBRANCH  49  50
ENDBRANCH   1  49
TORSDOF 14
ENDMDL
MODEL 8
REMARK VINA RESULT:      -6.4      2.597      9.726
REMARK  Name = *****
REMARK                            x       y       z     vdW  Elec       q    Type
REMARK                         _______ _______ _______ _____ _____    ______ ____
ROOT
ATOM      1  C   LIG    1       25.908 -27.313   6.535  0.00  0.00    +0.107 C 
ENDROOT
BRANCH   1   2
ATOM      2  N   LIG    1       25.531 -27.548   7.961  0.00  0.00    -0.308 N 
ATOM      3  H   LIG    1       24.718 -27.061   8.320  0.00  0.00    +0.149 HD
ATOM      4  C   LIG    1       26.258 -28.409   8.784  0.00  0.00    +0.234 C 
ATOM      5  O   LIG    1       27.346 -28.849   8.413  0.00  0.00    -0.274 OA
BRANCH   4   6
ATOM      6  C   LIG    1       25.764 -28.598  10.266  0.00  0.00    +0.168 C 
BRANCH   6   7
ATOM      7  N   LIG    1       24.614 -29.527  10.337  0.00  0.00    -0.298 N 
ATOM      8  H   LIG    1       23.719 -29.195  10.664  0.00  0.00    +0.150 HD
ATOM      9  C   LIG    1       24.656 -30.843   9.885  0.00  0.00    +0.263 C 
ATOM     10  O   LIG    1       25.614 -31.383   9.396  0.00  0.00    -0.269 OA
BRANCH   9  11
ATOM     11  C   LIG    1       23.370 -31.594   9.995  0.00  0.00    +0.126 A 
ATOM     12  N   LIG    1       22.233 -30.856  10.088  0.00  0.00    -0.242 NA
ATOM     13  C   LIG    1       21.080 -31.532  10.234  0.00  0.00    +0.072 A 
ATOM     14  C   LIG    1       21.015 -32.946  10.202  0.00  0.00    +0.000 A 
ATOM     15  C   LIG    1       19.778 -33.605  10.282  0.00  0.00    +0.010 A 
ATOM     16  C   LIG    1       18.606 -32.875  10.441  0.00  0.00    +0.001 A 
ATOM     17  C   LIG    1       18.668 -31.489  10.542  0.00  0.00    +0.002 A 
ATOM     18  C   LIG    1       22.209 -33.667  10.095  0.00  0.00    +0.012 A 
ATOM     19  C   LIG    1       19.898 -30.834  10.433  0.00  0.00    +0.028 A 
ATOM     20  C   LIG    1       23.412 -32.982  10.008  0.00  0.00    +0.034 A 
ENDBRANCH   9  11
ENDBRANCH   6   7
BRANCH   6  21
ATOM     21  C   LIG    1       26.901 -29.039  11.209  0.00  0.00    +0.127 C 
BRANCH  21  22
ATOM     22  C   LIG    1       26.784 -28.754  12.685  0.00  0.00    +0.213 C 
ATOM     23  O   LIG    1       25.708 -28.775  13.282  0.00  0.00    -0.276 OA
ATOM     24  N   LIG    1       27.899 -28.294  13.316  0.00  0.00    -0.329 N 
ATOM     25  H   LIG    1       27.791 -28.076  14.298  0.00  0.00    +0.145 HD
ATOM     26  H   LIG    1       28.830 -28.355  12.935  0.00  0.00    +0.145 HD
ENDBRANCH  21  22
ENDBRANCH   6  21
ENDBRANCH   4   6
ENDBRANCH   1   2
BRANCH   1  27
ATOM     27  C   LIG    1       25.866 -25.769   6.102  0.00  0.00    +0.149 C 
BRANCH  27  28
ATOM     28  O   LIG    1       25.657 -25.682   4.684  0.00  0.00    -0.389 OA
ATOM     29  H   LIG    1       24.844 -26.175   4.470  0.00  0.00    +0.210 HD
ENDBRANCH  27  28
BRANCH  27  30
ATOM     30  C   LIG    1       24.791 -24.893   6.853  0.00  0.00    +0.118 C 
BRANCH  30  32
ATOM     31  C   LIG    1       26.275 -22.887   6.550  0.00  0.00    +0.143 C 
ATOM     32  N   LIG    1       25.174 -23.528   7.348  0.00  0.00    -0.289 NA
ATOM     33  C   LIG    1       24.081 -22.553   7.519  0.00  0.00    +0.089 C 
ATOM     34  C   LIG    1       23.396 -22.084   6.210  0.00  0.00    +0.006 C 
ATOM     35  C   LIG    1       24.294 -22.265   4.968  0.00  0.00    -0.005 C 
ATOM     36  C   LIG    1       23.838 -21.397   3.790  0.00  0.00    +0.004 C 
ATOM     37  C   LIG    1       23.788 -19.904   4.093  0.00  0.00    +0.000 C 
ATOM     38  C   LIG    1       23.620 -19.592   5.578  0.00  0.00    +0.000 C 
ATOM     39  C   LIG    1       22.803 -20.655   6.314  0.00  0.00    +0.005 C 
ATOM     40  C   LIG    1       25.794 -22.112   5.293  0.00  0.00    +0.032 C 
BRANCH  31  43
ATOM     41  N   LIG    1       28.271 -21.372   6.864  0.00  0.00    -0.309 N 
ATOM     42  H   LIG    1       28.570 -21.766   5.982  0.00  0.00    +0.149 HD
ATOM     43  C   LIG    1       27.155 -21.947   7.477  0.00  0.00    +0.231 C 
ATOM     44  O   LIG    1       26.887 -21.720   8.656  0.00  0.00    -0.274 OA
BRANCH  41  46
ATOM     45  C   LIG    1       30.043 -19.676   6.521  0.00  0.00    +0.031 C 
ATOM     46  C   LIG    1       29.218 -20.463   7.563  0.00  0.00    +0.026 C 
ATOM     47  C   LIG    1       28.475 -19.429   8.435  0.00  0.00    +0.031 C 
ATOM     48  C   LIG    1       30.213 -21.255   8.431  0.00  0.00    +0.031 C 
ENDBRANCH  41  46
ENDBRANCH  31  43
ENDBRANCH  30  32
ENDBRANCH  27  30
ENDBRANCH   1  27
BRANCH   1  49
ATOM     49  C   LIG    1       25.015 -28.159   5.542  0.00  0.00    +0.060 C 
BRANCH  49  50
ATOM     50  C   LIG    1       24.943 -29.678   5.651  0.00  0.00    -0.045 A 
ATOM     51  C   LIG    1       25.910 -30.530   5.105  0.00  0.00    +0.003 A 
ATOM     52  C   LIG    1       25.812 -31.923   5.252  0.00  0.00    +0.000 A 
ATOM     53  C   LIG    1       24.725 -32.491   5.911  0.00  0.00    +0.000 A 
ATOM     54  C   LIG    1       23.710 -31.668   6.383  0.00  0.00    +0.000 A 
ATOM     55  C   LIG    1       23.811 -30.277   6.240  0.00  0.00    +0.003 A 
ENDBRANCH  49  50
ENDBRANCH   1  49
TORSDOF 14
ENDMDL
MODEL 9
REMARK VINA RESULT:      -6.2      2.396      9.182
REMARK  Name = *****
REMARK                            x       y       z     vdW  Elec       q    Type
REMARK                         _______ _______ _______ _____ _____    ______ ____
ROOT
ATOM      1  C   LIG    1       26.021 -27.520   7.093  0.00  0.00    +0.107 C 
ENDROOT
BRANCH   1   2
ATOM      2  N   LIG    1       26.308 -27.389   8.553  0.00  0.00    -0.308 N 
ATOM      3  H   LIG    1       26.209 -26.472   8.972  0.00  0.00    +0.149 HD
ATOM      4  C   LIG    1       26.696 -28.481   9.330  0.00  0.00    +0.234 C 
ATOM      5  O   LIG    1       27.001 -29.546   8.794  0.00  0.00    -0.274 OA
BRANCH   4   6
ATOM      6  C   LIG    1       26.957 -28.236  10.862  0.00  0.00    +0.168 C 
BRANCH   6   7
ATOM      7  N   LIG    1       25.687 -28.119  11.614  0.00  0.00    -0.298 N 
ATOM      8  H   LIG    1       24.948 -28.789  11.460  0.00  0.00    +0.150 HD
ATOM      9  C   LIG    1       25.468 -27.178  12.616  0.00  0.00    +0.263 C 
ATOM     10  O   LIG    1       26.262 -26.352  12.985  0.00  0.00    -0.269 OA
BRANCH   9  11
ATOM     11  C   LIG    1       24.139 -27.267  13.292  0.00  0.00    +0.126 A 
ATOM     12  N   LIG    1       23.312 -28.267  12.891  0.00  0.00    -0.242 NA
ATOM     13  C   LIG    1       22.097 -28.318  13.467  0.00  0.00    +0.072 A 
ATOM     14  C   LIG    1       21.709 -27.441  14.508  0.00  0.00    +0.000 A 
ATOM     15  C   LIG    1       20.458 -27.582  15.129  0.00  0.00    +0.010 A 
ATOM     16  C   LIG    1       19.568 -28.558  14.695  0.00  0.00    +0.001 A 
ATOM     17  C   LIG    1       19.915 -29.380  13.627  0.00  0.00    +0.002 A 
ATOM     18  C   LIG    1       22.595 -26.431  14.895  0.00  0.00    +0.012 A 
ATOM     19  C   LIG    1       21.172 -29.255  13.030  0.00  0.00    +0.028 A 
ATOM     20  C   LIG    1       23.826 -26.327  14.266  0.00  0.00    +0.034 A 
ENDBRANCH   9  11
ENDBRANCH   6   7
BRANCH   6  21
ATOM     21  C   LIG    1       27.876 -29.309  11.478  0.00  0.00    +0.127 C 
BRANCH  21  22
ATOM     22  C   LIG    1       27.883 -29.501  12.973  0.00  0.00    +0.213 C 
ATOM     23  O   LIG    1       27.228 -30.380  13.533  0.00  0.00    -0.276 OA
ATOM     24  N   LIG    1       28.510 -28.549  13.716  0.00  0.00    -0.329 N 
ATOM     25  H   LIG    1       28.474 -28.677  14.719  0.00  0.00    +0.145 HD
ATOM     26  H   LIG    1       29.155 -27.872  13.339  0.00  0.00    +0.145 HD
ENDBRANCH  21  22
ENDBRANCH   6  21
ENDBRANCH   4   6
ENDBRANCH   1   2
BRANCH   1  27
ATOM     27  C   LIG    1       26.011 -26.121   6.309  0.00  0.00    +0.149 C 
BRANCH  27  28
ATOM     28  O   LIG    1       26.199 -26.365   4.906  0.00  0.00    -0.389 OA
ATOM     29  H   LIG    1       25.619 -27.105   4.651  0.00  0.00    +0.210 HD
ENDBRANCH  27  28
BRANCH  27  30
ATOM     30  C   LIG    1       24.721 -25.241   6.528  0.00  0.00    +0.118 C 
BRANCH  30  32
ATOM     31  C   LIG    1       23.637 -22.974   6.560  0.00  0.00    +0.143 C 
ATOM     32  N   LIG    1       24.653 -23.873   5.913  0.00  0.00    -0.289 NA
ATOM     33  C   LIG    1       25.925 -23.138   5.783  0.00  0.00    +0.089 C 
ATOM     34  C   LIG    1       26.581 -22.702   7.118  0.00  0.00    +0.006 C 
ATOM     35  C   LIG    1       25.568 -22.610   8.278  0.00  0.00    -0.005 C 
ATOM     36  C   LIG    1       26.089 -21.750   9.436  0.00  0.00    +0.004 C 
ATOM     37  C   LIG    1       26.453 -20.323   9.044  0.00  0.00    +0.000 C 
ATOM     38  C   LIG    1       26.797 -20.170   7.564  0.00  0.00    +0.000 C 
ATOM     39  C   LIG    1       27.447 -21.424   6.979  0.00  0.00    +0.005 C 
ATOM     40  C   LIG    1       24.158 -22.204   7.805  0.00  0.00    +0.032 C 
BRANCH  31  43
ATOM     41  N   LIG    1       23.907 -20.963   5.056  0.00  0.00    -0.309 N 
ATOM     42  H   LIG    1       24.745 -20.807   5.599  0.00  0.00    +0.149 HD
ATOM     43  C   LIG    1       23.035 -21.963   5.496  0.00  0.00    +0.231 C 
ATOM     44  O   LIG    1       21.884 -22.038   5.070  0.00  0.00    -0.274 OA
BRANCH  41  46
ATOM     45  C   LIG    1       23.205 -20.591   2.710  0.00  0.00    +0.031 C 
ATOM     46  C   LIG    1       23.531 -19.921   4.064  0.00  0.00    +0.026 C 
ATOM     47  C   LIG    1       22.273 -19.143   4.504  0.00  0.00    +0.031 C 
ATOM     48  C   LIG    1       24.691 -18.939   3.820  0.00  0.00    +0.031 C 
ENDBRANCH  41  46
ENDBRANCH  31  43
ENDBRANCH  30  32
ENDBRANCH  27  30
ENDBRANCH   1  27
BRANCH   1  49
ATOM     49  C   LIG    1       24.661 -28.280   6.825  0.00  0.00    +0.060 C 
BRANCH  49  50
ATOM     50  C   LIG    1       24.651 -29.733   6.362  0.00  0.00    -0.045 A 
ATOM     51  C   LIG    1       25.420 -30.197   5.287  0.00  0.00    +0.003 A 
ATOM     52  C   LIG    1       25.395 -31.550   4.912  0.00  0.00    +0.000 A 
ATOM     53  C   LIG    1       24.572 -32.455   5.578  0.00  0.00    +0.000 A 
ATOM     54  C   LIG    1       23.736 -31.997   6.589  0.00  0.00    +0.000 A 
ATOM     55  C   LIG    1       23.765 -30.647   6.966  0.00  0.00    +0.003 A 
ENDBRANCH  49  50
ENDBRANCH   1  49
TORSDOF 14
ENDMDL
