MODEL 1
REMARK VINA RESULT:      -5.2      0.000      0.000
REMARK  Name = *****
REMARK                            x       y       z     vdW  Elec       q    Type
REMARK                         _______ _______ _______ _____ _____    ______ ____
ROOT
ATOM      1  C   LIG    1       24.149 -21.543   6.450  0.00  0.00    +0.146 C 
ENDROOT
BRANCH   1   2
ATOM      2  C   LIG    1       23.283 -20.381   6.024  0.00  0.00    +0.032 C 
ATOM      3  C   LIG    1       23.193 -19.871   4.791  0.00  0.00    +0.079 C 
ATOM      4 CL   LIG    1       22.172 -18.548   4.411  0.00  0.00    -0.092 Cl
ENDBRANCH   1   2
BRANCH   1   6
ATOM      5  C   LIG    1       25.820 -20.705   8.365  0.00  0.00    +0.007 C 
ATOM      6  C   LIG    1       25.057 -21.075   7.515  0.00  0.00    -0.067 C 
ENDBRANCH   1   6
BRANCH   1   7
ATOM      7  O   LIG    1       24.938 -21.980   5.347  0.00  0.00    -0.373 OA
ATOM      8  H   LIG    1       24.334 -22.411   4.720  0.00  0.00    +0.212 HD
ENDBRANCH   1   7
BRANCH   1   9
ATOM      9  C   LIG    1       23.270 -22.711   6.946  0.00  0.00    +0.049 C 
ATOM     10  C   LIG    1       23.833 -24.095   6.624  0.00  0.00    +0.008 C 
ENDBRANCH   1   9
TORSDOF 4
ENDMDL
MODEL 2
REMARK VINA RESULT:      -5.1      2.295      3.701
REMARK  Name = *****
REMARK                            x       y       z     vdW  Elec       q    Type
REMARK                         _______ _______ _______ _____ _____    ______ ____
ROOT
ATOM      1  C   LIG    1       23.725 -21.213   5.604  0.00  0.00    +0.146 C 
ENDROOT
BRANCH   1   2
ATOM      2  C   LIG    1       25.082 -20.875   6.174  0.00  0.00    +0.032 C 
ATOM      3  C   LIG    1       25.380 -20.716   7.468  0.00  0.00    +0.079 C 
ATOM      4 CL   LIG    1       26.960 -20.335   8.012  0.00  0.00    -0.092 Cl
ENDBRANCH   1   2
BRANCH   1   6
ATOM      5  C   LIG    1       22.840 -23.416   6.838  0.00  0.00    +0.007 C 
ATOM      6  C   LIG    1       23.224 -22.419   6.290  0.00  0.00    -0.067 C 
ENDBRANCH   1   6
BRANCH   1   7
ATOM      7  O   LIG    1       23.849 -21.505   4.215  0.00  0.00    -0.373 OA
ATOM      8  H   LIG    1       23.567 -22.426   4.092  0.00  0.00    +0.212 HD
ENDBRANCH   1   7
BRANCH   1   9
ATOM      9  C   LIG    1       22.756 -20.025   5.792  0.00  0.00    +0.049 C 
ATOM     10  C   LIG    1       22.605 -19.143   4.554  0.00  0.00    +0.008 C 
ENDBRANCH   1   9
TORSDOF 4
ENDMDL
MODEL 3
REMARK VINA RESULT:      -5.1      2.820      3.678
REMARK  Name = *****
REMARK                            x       y       z     vdW  Elec       q    Type
REMARK                         _______ _______ _______ _____ _____    ______ ____
ROOT
ATOM      1  C   LIG    1       24.283 -21.544   7.144  0.00  0.00    +0.146 C 
ENDROOT
BRANCH   1   2
ATOM      2  C   LIG    1       24.544 -23.013   6.908  0.00  0.00    +0.032 C 
ATOM      3  C   LIG    1       23.628 -23.941   6.607  0.00  0.00    +0.079 C 
ATOM      4 CL   LIG    1       24.031 -25.587   6.354  0.00  0.00    -0.092 Cl
ENDBRANCH   1   2
BRANCH   1   6
ATOM      5  C   LIG    1       26.368 -20.526   8.477  0.00  0.00    +0.007 C 
ATOM      6  C   LIG    1       25.425 -20.988   7.893  0.00  0.00    -0.067 C 
ENDBRANCH   1   6
BRANCH   1   7
ATOM      7  O   LIG    1       23.108 -21.388   7.934  0.00  0.00    -0.373 OA
ATOM      8  H   LIG    1       22.387 -21.155   7.327  0.00  0.00    +0.212 HD
ENDBRANCH   1   7
BRANCH   1   9
ATOM      9  C   LIG    1       24.095 -20.812   5.797  0.00  0.00    +0.049 C 
ATOM     10  C   LIG    1       22.789 -20.025   5.693  0.00  0.00    +0.008 C 
ENDBRANCH   1   9
TORSDOF 4
ENDMDL
MODEL 4
REMARK VINA RESULT:      -5.1      2.131      3.378
REMARK  Name = *****
REMARK                            x       y       z     vdW  Elec       q    Type
REMARK                         _______ _______ _______ _____ _____    ______ ____
ROOT
ATOM      1  C   LIG    1       25.950 -21.549   7.897  0.00  0.00    +0.146 C 
ENDROOT
BRANCH   1   2
ATOM      2  C   LIG    1       25.029 -20.738   7.016  0.00  0.00    +0.032 C 
ATOM      3  C   LIG    1       23.707 -20.896   6.894  0.00  0.00    +0.079 C 
ATOM      4 CL   LIG    1       22.750 -19.916   5.864  0.00  0.00    -0.092 Cl
ENDBRANCH   1   2
BRANCH   1   6
ATOM      5  C   LIG    1       25.835 -24.094   7.076  0.00  0.00    +0.007 C 
ATOM      6  C   LIG    1       25.883 -22.957   7.460  0.00  0.00    -0.067 C 
ENDBRANCH   1   6
BRANCH   1   7
ATOM      7  O   LIG    1       25.504 -21.476   9.248  0.00  0.00    -0.373 OA
ATOM      8  H   LIG    1       26.266 -21.201   9.784  0.00  0.00    +0.212 HD
ENDBRANCH   1   7
BRANCH   1   9
ATOM      9  C   LIG    1       27.393 -21.008   7.804  0.00  0.00    +0.049 C 
ATOM     10  C   LIG    1       27.717 -20.324   6.476  0.00  0.00    +0.008 C 
ENDBRANCH   1   9
TORSDOF 4
ENDMDL
MODEL 5
REMARK VINA RESULT:      -5.1      2.458      3.231
REMARK  Name = *****
REMARK                            x       y       z     vdW  Elec       q    Type
REMARK                         _______ _______ _______ _____ _____    ______ ____
ROOT
ATOM      1  C   LIG    1       23.869 -21.221   6.723  0.00  0.00    +0.146 C 
ENDROOT
BRANCH   1   2
ATOM      2  C   LIG    1       25.289 -20.719   6.842  0.00  0.00    +0.032 C 
ATOM      3  C   LIG    1       26.158 -20.557   5.838  0.00  0.00    +0.079 C 
ATOM      4 CL   LIG    1       27.751 -19.975   6.081  0.00  0.00    -0.092 Cl
ENDBRANCH   1   2
BRANCH   1   6
ATOM      5  C   LIG    1       22.532 -19.519   5.149  0.00  0.00    +0.007 C 
ATOM      6  C   LIG    1       23.125 -20.296   5.847  0.00  0.00    -0.067 C 
ENDBRANCH   1   6
BRANCH   1   7
ATOM      7  O   LIG    1       23.252 -21.218   8.007  0.00  0.00    -0.373 OA
ATOM      8  H   LIG    1       23.250 -20.299   8.319  0.00  0.00    +0.212 HD
ENDBRANCH   1   7
BRANCH   1   9
ATOM      9  C   LIG    1       23.856 -22.656   6.152  0.00  0.00    +0.049 C 
ATOM     10  C   LIG    1       22.776 -23.555   6.751  0.00  0.00    +0.008 C 
ENDBRANCH   1   9
TORSDOF 4
ENDMDL
MODEL 6
REMARK VINA RESULT:      -5.0      1.060      1.060
REMARK  Name = *****
REMARK                            x       y       z     vdW  Elec       q    Type
REMARK                         _______ _______ _______ _____ _____    ______ ____
ROOT
ATOM      1  C   LIG    1       24.423 -21.723   5.884  0.00  0.00    +0.146 C 
ENDROOT
BRANCH   1   2
ATOM      2  C   LIG    1       23.360 -20.679   5.635  0.00  0.00    +0.032 C 
ATOM      3  C   LIG    1       23.334 -19.801   4.626  0.00  0.00    +0.079 C 
ATOM      4 CL   LIG    1       22.075 -18.655   4.431  0.00  0.00    -0.092 Cl
ENDBRANCH   1   2
BRANCH   1   6
ATOM      5  C   LIG    1       26.718 -20.480   6.474  0.00  0.00    +0.007 C 
ATOM      6  C   LIG    1       25.680 -21.029   6.222  0.00  0.00    -0.067 C 
ENDBRANCH   1   6
BRANCH   1   7
ATOM      7  O   LIG    1       24.633 -22.483   4.698  0.00  0.00    -0.373 OA
ATOM      8  H   LIG    1       25.115 -21.913   4.078  0.00  0.00    +0.212 HD
ENDBRANCH   1   7
BRANCH   1   9
ATOM      9  C   LIG    1       23.986 -22.666   7.026  0.00  0.00    +0.049 C 
ATOM     10  C   LIG    1       22.737 -23.488   6.712  0.00  0.00    +0.008 C 
ENDBRANCH   1   9
TORSDOF 4
ENDMDL
MODEL 7
REMARK VINA RESULT:      -5.0      2.527      3.841
REMARK  Name = *****
REMARK                            x       y       z     vdW  Elec       q    Type
REMARK                         _______ _______ _______ _____ _____    ______ ____
ROOT
ATOM      1  C   LIG    1       24.974 -21.117   6.210  0.00  0.00    +0.146 C 
ENDROOT
BRANCH   1   2
ATOM      2  C   LIG    1       24.803 -22.608   6.035  0.00  0.00    +0.032 C 
ATOM      3  C   LIG    1       23.926 -23.385   6.681  0.00  0.00    +0.079 C 
ATOM      4 CL   LIG    1       23.810 -25.072   6.404  0.00  0.00    -0.092 Cl
ENDBRANCH   1   2
BRANCH   1   6
ATOM      5  C   LIG    1       22.722 -19.919   5.403  0.00  0.00    +0.007 C 
ATOM      6  C   LIG    1       23.740 -20.454   5.750  0.00  0.00    -0.067 C 
ENDBRANCH   1   6
BRANCH   1   7
ATOM      7  O   LIG    1       26.057 -20.663   5.403  0.00  0.00    -0.373 OA
ATOM      8  H   LIG    1       25.754 -19.862   4.947  0.00  0.00    +0.212 HD
ENDBRANCH   1   7
BRANCH   1   9
ATOM      9  C   LIG    1       25.265 -20.784   7.690  0.00  0.00    +0.049 C 
ATOM     10  C   LIG    1       26.729 -20.457   7.979  0.00  0.00    +0.008 C 
ENDBRANCH   1   9
TORSDOF 4
ENDMDL
MODEL 8
REMARK VINA RESULT:      -4.9      4.222      5.436
REMARK  Name = *****
REMARK                            x       y       z     vdW  Elec       q    Type
REMARK                         _______ _______ _______ _____ _____    ______ ____
ROOT
ATOM      1  C   LIG    1       24.621 -24.722   5.997  0.00  0.00    +0.146 C 
ENDROOT
BRANCH   1   2
ATOM      2  C   LIG    1       24.189 -26.170   6.018  0.00  0.00    +0.032 C 
ATOM      3  C   LIG    1       24.833 -27.196   5.451  0.00  0.00    +0.079 C 
ATOM      4 CL   LIG    1       24.258 -28.808   5.537  0.00  0.00    -0.092 Cl
ENDBRANCH   1   2
BRANCH   1   6
ATOM      5  C   LIG    1       22.595 -23.203   6.864  0.00  0.00    +0.007 C 
ATOM      6  C   LIG    1       23.496 -23.899   6.479  0.00  0.00    -0.067 C 
ENDBRANCH   1   6
BRANCH   1   7
ATOM      7  O   LIG    1       24.923 -24.333   4.660  0.00  0.00    -0.373 OA
ATOM      8  H   LIG    1       25.318 -23.448   4.705  0.00  0.00    +0.212 HD
ENDBRANCH   1   7
BRANCH   1   9
ATOM      9  C   LIG    1       25.870 -24.525   6.882  0.00  0.00    +0.049 C 
ATOM     10  C   LIG    1       26.196 -23.063   7.184  0.00  0.00    +0.008 C 
ENDBRANCH   1   9
TORSDOF 4
ENDMDL
MODEL 9
REMARK VINA RESULT:      -4.9      5.903      7.332
REMARK  Name = *****
REMARK                            x       y       z     vdW  Elec       q    Type
REMARK                         _______ _______ _______ _____ _____    ______ ____
ROOT
ATOM      1  C   LIG    1       30.480 -19.978   7.708  0.00  0.00    +0.146 C 
ENDROOT
BRANCH   1   2
ATOM      2  C   LIG    1       30.151 -18.791   8.583  0.00  0.00    +0.032 C 
ATOM      3  C   LIG    1       30.867 -18.351   9.623  0.00  0.00    +0.079 C 
ATOM      4 CL   LIG    1       30.405 -16.986  10.551  0.00  0.00    -0.092 Cl
ENDBRANCH   1   2
BRANCH   1   6
ATOM      5  C   LIG    1       31.063 -22.051   9.297  0.00  0.00    +0.007 C 
ATOM      6  C   LIG    1       30.785 -21.125   8.584  0.00  0.00    -0.067 C 
ENDBRANCH   1   6
BRANCH   1   7
ATOM      7  O   LIG    1       31.636 -19.689   6.927  0.00  0.00    -0.373 OA
ATOM      8  H   LIG    1       32.099 -20.530   6.783  0.00  0.00    +0.212 HD
ENDBRANCH   1   7
BRANCH   1   9
ATOM      9  C   LIG    1       29.295 -20.296   6.771  0.00  0.00    +0.049 C 
ATOM     10  C   LIG    1       27.933 -20.289   7.465  0.00  0.00    +0.008 C 
ENDBRANCH   1   9
TORSDOF 4
ENDMDL
