MODEL 1
REMARK VINA RESULT:      -8.5      0.000      0.000
REMARK  Name = *****
REMARK                            x       y       z     vdW  Elec       q    Type
REMARK                         _______ _______ _______ _____ _____    ______ ____
ROOT
ATOM      1  C   LIG    1       24.687 -28.308   6.760  0.00  0.00    +0.213 C 
ENDROOT
BRANCH   1   2
ATOM      2  C   LIG    1       24.748 -29.723   6.192  0.00  0.00    -0.025 A 
ATOM      3  C   LIG    1       25.765 -30.175   5.337  0.00  0.00    +0.005 A 
ATOM      4  C   LIG    1       25.758 -31.483   4.843  0.00  0.00    +0.000 A 
ATOM      5  C   LIG    1       24.742 -32.363   5.203  0.00  0.00    +0.000 A 
ATOM      6  C   LIG    1       23.737 -31.941   6.067  0.00  0.00    +0.000 A 
ATOM      7  C   LIG    1       23.742 -30.636   6.561  0.00  0.00    +0.005 A 
ENDBRANCH   1   2
BRANCH   1  10
ATOM      8  N   LIG    1       25.679 -28.818   8.955  0.00  0.00    -0.301 N 
ATOM      9  H   LIG    1       24.869 -29.417   9.099  0.00  0.00    +0.150 HD
ATOM     10  C   LIG    1       25.745 -28.043   7.815  0.00  0.00    +0.232 C 
ATOM     11  O   LIG    1       26.645 -27.219   7.649  0.00  0.00    -0.275 OA
BRANCH   8  17
ATOM     12  C   LIG    1       24.584 -31.752  11.403  0.00  0.00    +0.025 C 
ATOM     13  C   LIG    1       24.879 -30.693  12.484  0.00  0.00    +0.042 C 
ATOM     14  CA  LIG    1       26.392 -30.618  12.806  0.00  0.00    +0.201 C 
ATOM     15  N   LIG    1       27.004 -29.649  11.880  0.00  0.00    -0.271 N 
ATOM     16  C   LIG    1       26.147 -28.505  11.491  0.00  0.00    +0.165 C 
ATOM     17  CA  LIG    1       26.678 -28.672  10.043  0.00  0.00    +0.190 C 
ATOM     18  C   LIG    1       27.281 -29.987  10.587  0.00  0.00    +0.240 C 
ATOM     19  O   LIG    1       27.686 -31.034  10.117  0.00  0.00    -0.273 OA
ATOM     20  S   LIG    1       24.421 -29.039  11.819  0.00  0.00    -0.127 S 
ATOM     21  C   LIG    1       23.962 -30.981  13.678  0.00  0.00    +0.025 C 
BRANCH  14  22
ATOM     22  C   LIG    1       26.755 -30.170  14.236  0.00  0.00    +0.327 C 
ATOM     23  O   LIG    1       26.551 -29.062  14.707  0.00  0.00    -0.249 OA
BRANCH  22  24
ATOM     24  OXT LIG    1       27.225 -31.175  15.020  0.00  0.00    -0.479 OA
ATOM     25  HXT LIG    1       27.286 -30.899  15.957  0.00  0.00    +0.295 HD
ENDBRANCH  22  24
ENDBRANCH  14  22
ENDBRANCH   8  17
ENDBRANCH   1  10
BRANCH   1  26
ATOM     26  C   LIG    1       24.710 -27.178   5.755  0.00  0.00    +0.329 C 
ATOM     27  O   LIG    1       25.481 -27.085   4.808  0.00  0.00    -0.249 OA
BRANCH  26  28
ATOM     28  O   LIG    1       23.798 -26.201   6.172  0.00  0.00    -0.425 OA
BRANCH  28  29
ATOM     29  C   LIG    1       24.112 -24.852   6.454  0.00  0.00    +0.132 A 
ATOM     30  C   LIG    1       25.408 -24.372   6.627  0.00  0.00    +0.050 A 
ATOM     31  C   LIG    1       25.562 -23.047   6.992  0.00  0.00    -0.041 A 
ATOM     32  C   LIG    1       26.838 -22.332   7.308  0.00  0.00    +0.036 C 
ATOM     33  C   LIG    1       26.373 -20.871   7.258  0.00  0.00    +0.009 C 
ATOM     34  C   LIG    1       24.893 -20.865   7.665  0.00  0.00    +0.036 C 
ATOM     35  C   LIG    1       24.455 -22.215   7.190  0.00  0.00    -0.044 A 
ATOM     36  C   LIG    1       23.165 -22.685   7.017  0.00  0.00    +0.007 A 
ATOM     37  C   LIG    1       22.995 -24.018   6.638  0.00  0.00    +0.046 A 
ENDBRANCH  28  29
ENDBRANCH  26  28
ENDBRANCH   1  26
TORSDOF 8
ENDMDL
MODEL 2
REMARK VINA RESULT:      -7.5      2.798      4.217
REMARK  Name = *****
REMARK                            x       y       z     vdW  Elec       q    Type
REMARK                         _______ _______ _______ _____ _____    ______ ____
ROOT
ATOM      1  C   LIG    1       24.725 -31.677   5.604  0.00  0.00    +0.213 C 
ENDROOT
BRANCH   1   2
ATOM      2  C   LIG    1       25.762 -32.426   4.771  0.00  0.00    -0.025 A 
ATOM      3  C   LIG    1       26.881 -33.072   5.320  0.00  0.00    +0.005 A 
ATOM      4  C   LIG    1       27.801 -33.733   4.500  0.00  0.00    +0.000 A 
ATOM      5  C   LIG    1       27.613 -33.769   3.123  0.00  0.00    +0.000 A 
ATOM      6  C   LIG    1       26.498 -33.154   2.561  0.00  0.00    +0.000 A 
ATOM      7  C   LIG    1       25.579 -32.493   3.378  0.00  0.00    +0.005 A 
ENDBRANCH   1   2
BRANCH   1  10
ATOM      8  N   LIG    1       23.587 -31.924   7.773  0.00  0.00    -0.301 N 
ATOM      9  H   LIG    1       23.845 -30.954   7.935  0.00  0.00    +0.150 HD
ATOM     10  C   LIG    1       24.041 -32.557   6.634  0.00  0.00    +0.232 C 
ATOM     11  O   LIG    1       23.852 -33.759   6.449  0.00  0.00    -0.275 OA
BRANCH   8  17
ATOM     12  C   LIG    1       24.519 -29.776  10.985  0.00  0.00    +0.025 C 
ATOM     13  C   LIG    1       24.667 -31.168  11.630  0.00  0.00    +0.042 C 
ATOM     14  CA  LIG    1       23.295 -31.738  12.070  0.00  0.00    +0.201 C 
ATOM     15  N   LIG    1       22.724 -32.475  10.929  0.00  0.00    -0.271 N 
ATOM     16  C   LIG    1       23.703 -33.161  10.055  0.00  0.00    +0.165 C 
ATOM     17  CA  LIG    1       22.873 -32.675   8.838  0.00  0.00    +0.190 C 
ATOM     18  C   LIG    1       22.134 -31.816   9.888  0.00  0.00    +0.240 C 
ATOM     19  O   LIG    1       21.438 -30.818   9.883  0.00  0.00    -0.273 OA
ATOM     20  S   LIG    1       25.313 -32.332  10.359  0.00  0.00    -0.127 S 
ATOM     21  C   LIG    1       25.723 -31.058  12.735  0.00  0.00    +0.025 C 
BRANCH  14  22
ATOM     22  C   LIG    1       23.322 -32.708  13.268  0.00  0.00    +0.327 C 
ATOM     23  O   LIG    1       23.878 -33.795  13.291  0.00  0.00    -0.249 OA
BRANCH  22  24
ATOM     24  OXT LIG    1       22.766 -32.196  14.397  0.00  0.00    -0.479 OA
ATOM     25  HXT LIG    1       22.098 -32.804  14.774  0.00  0.00    +0.295 HD
ENDBRANCH  22  24
ENDBRANCH  14  22
ENDBRANCH   8  17
ENDBRANCH   1  10
BRANCH   1  26
ATOM     26  C   LIG    1       25.194 -30.410   6.282  0.00  0.00    +0.329 C 
ATOM     27  O   LIG    1       25.731 -30.348   7.382  0.00  0.00    -0.249 OA
BRANCH  26  28
ATOM     28  O   LIG    1       24.787 -29.319   5.503  0.00  0.00    -0.425 OA
BRANCH  28  29
ATOM     29  C   LIG    1       25.017 -27.959   5.812  0.00  0.00    +0.132 A 
ATOM     30  C   LIG    1       24.007 -27.040   6.089  0.00  0.00    +0.050 A 
ATOM     31  C   LIG    1       24.372 -25.720   6.281  0.00  0.00    -0.041 A 
ATOM     32  C   LIG    1       23.467 -24.551   6.512  0.00  0.00    +0.036 C 
ATOM     33  C   LIG    1       24.469 -23.501   7.009  0.00  0.00    +0.009 C 
ATOM     34  C   LIG    1       25.816 -23.830   6.349  0.00  0.00    +0.036 C 
ATOM     35  C   LIG    1       25.708 -25.315   6.192  0.00  0.00    -0.044 A 
ATOM     36  C   LIG    1       26.715 -26.223   5.920  0.00  0.00    +0.007 A 
ATOM     37  C   LIG    1       26.364 -27.561   5.734  0.00  0.00    +0.046 A 
ENDBRANCH  28  29
ENDBRANCH  26  28
ENDBRANCH   1  26
TORSDOF 8
ENDMDL
MODEL 3
REMARK VINA RESULT:      -7.3      3.594      6.889
REMARK  Name = *****
REMARK                            x       y       z     vdW  Elec       q    Type
REMARK                         _______ _______ _______ _____ _____    ______ ____
ROOT
ATOM      1  C   LIG    1       26.729 -29.525  12.755  0.00  0.00    +0.213 C 
ENDROOT
BRANCH   1   2
ATOM      2  C   LIG    1       26.556 -28.086  13.234  0.00  0.00    -0.025 A 
ATOM      3  C   LIG    1       26.626 -26.970  12.386  0.00  0.00    +0.005 A 
ATOM      4  C   LIG    1       26.468 -25.676  12.890  0.00  0.00    +0.000 A 
ATOM      5  C   LIG    1       26.227 -25.475  14.245  0.00  0.00    +0.000 A 
ATOM      6  C   LIG    1       26.131 -26.570  15.099  0.00  0.00    +0.000 A 
ATOM      7  C   LIG    1       26.289 -27.863  14.598  0.00  0.00    +0.005 A 
ENDBRANCH   1   2
BRANCH   1  10
ATOM      8  N   LIG    1       24.285 -29.821  12.811  0.00  0.00    -0.301 N 
ATOM      9  H   LIG    1       24.234 -28.827  12.607  0.00  0.00    +0.150 HD
ATOM     10  C   LIG    1       25.519 -30.396  13.037  0.00  0.00    +0.232 C 
ATOM     11  O   LIG    1       25.625 -31.569  13.399  0.00  0.00    -0.275 OA
BRANCH   8  17
ATOM     12  C   LIG    1       21.605 -26.888  12.915  0.00  0.00    +0.025 C 
ATOM     13  C   LIG    1       21.017 -27.732  14.062  0.00  0.00    +0.042 C 
ATOM     14  CA  LIG    1       20.138 -28.889  13.523  0.00  0.00    +0.201 C 
ATOM     15  N   LIG    1       21.011 -30.052  13.293  0.00  0.00    -0.271 N 
ATOM     16  C   LIG    1       22.145 -30.198  14.235  0.00  0.00    +0.165 C 
ATOM     17  CA  LIG    1       23.030 -30.587  13.022  0.00  0.00    +0.190 C 
ATOM     18  C   LIG    1       21.812 -30.126  12.189  0.00  0.00    +0.240 C 
ATOM     19  O   LIG    1       21.608 -29.768  11.044  0.00  0.00    -0.273 OA
ATOM     20  S   LIG    1       22.406 -28.534  14.966  0.00  0.00    -0.127 S 
ATOM     21  C   LIG    1       20.325 -26.774  15.037  0.00  0.00    +0.025 C 
BRANCH  14  22
ATOM     22  C   LIG    1       18.996 -29.354  14.448  0.00  0.00    +0.327 C 
ATOM     23  O   LIG    1       19.135 -29.959  15.500  0.00  0.00    -0.249 OA
BRANCH  22  24
ATOM     24  OXT LIG    1       17.768 -28.917  14.063  0.00  0.00    -0.479 OA
ATOM     25  HXT LIG    1       17.399 -28.278  14.706  0.00  0.00    +0.295 HD
ENDBRANCH  22  24
ENDBRANCH  14  22
ENDBRANCH   8  17
ENDBRANCH   1  10
BRANCH   1  26
ATOM     26  C   LIG    1       27.133 -29.709  11.309  0.00  0.00    +0.329 C 
ATOM     27  O   LIG    1       28.265 -29.565  10.864  0.00  0.00    -0.249 OA
BRANCH  26  28
ATOM     28  O   LIG    1       25.975 -29.934  10.555  0.00  0.00    -0.425 OA
BRANCH  28  29
ATOM     29  C   LIG    1       25.717 -29.406   9.270  0.00  0.00    +0.132 A 
ATOM     30  C   LIG    1       26.244 -28.206   8.799  0.00  0.00    +0.050 A 
ATOM     31  C   LIG    1       25.831 -27.764   7.556  0.00  0.00    -0.041 A 
ATOM     32  C   LIG    1       26.195 -26.480   6.879  0.00  0.00    +0.036 C 
ATOM     33  C   LIG    1       25.741 -26.768   5.442  0.00  0.00    +0.009 C 
ATOM     34  C   LIG    1       24.564 -27.750   5.541  0.00  0.00    +0.036 C 
ATOM     35  C   LIG    1       24.907 -28.490   6.796  0.00  0.00    -0.044 A 
ATOM     36  C   LIG    1       24.381 -29.684   7.258  0.00  0.00    +0.007 A 
ATOM     37  C   LIG    1       24.798 -30.148   8.506  0.00  0.00    +0.046 A 
ENDBRANCH  28  29
ENDBRANCH  26  28
ENDBRANCH   1  26
TORSDOF 8
ENDMDL
MODEL 4
REMARK VINA RESULT:      -7.2      3.053      4.755
REMARK  Name = *****
REMARK                            x       y       z     vdW  Elec       q    Type
REMARK                         _______ _______ _______ _____ _____    ______ ____
ROOT
ATOM      1  C   LIG    1       25.609 -30.268   8.209  0.00  0.00    +0.213 C 
ENDROOT
BRANCH   1   2
ATOM      2  C   LIG    1       26.340 -29.666   9.406  0.00  0.00    -0.025 A 
ATOM      3  C   LIG    1       26.056 -28.396   9.932  0.00  0.00    +0.005 A 
ATOM      4  C   LIG    1       26.769 -27.898  11.026  0.00  0.00    +0.000 A 
ATOM      5  C   LIG    1       27.769 -28.663  11.618  0.00  0.00    +0.000 A 
ATOM      6  C   LIG    1       28.050 -29.933  11.126  0.00  0.00    +0.000 A 
ATOM      7  C   LIG    1       27.340 -30.432  10.033  0.00  0.00    +0.005 A 
ENDBRANCH   1   2
BRANCH   1  10
ATOM      8  N   LIG    1       23.795 -31.113   9.643  0.00  0.00    -0.301 N 
ATOM      9  H   LIG    1       23.933 -30.267  10.189  0.00  0.00    +0.150 HD
ATOM     10  C   LIG    1       24.650 -31.380   8.593  0.00  0.00    +0.232 C 
ATOM     11  O   LIG    1       24.596 -32.443   7.975  0.00  0.00    -0.275 OA
BRANCH   8  17
ATOM     12  C   LIG    1       22.147 -29.220  12.725  0.00  0.00    +0.025 C 
ATOM     13  C   LIG    1       22.205 -30.622  13.364  0.00  0.00    +0.042 C 
ATOM     14  CA  LIG    1       21.012 -31.501  12.911  0.00  0.00    +0.201 C 
ATOM     15  N   LIG    1       21.405 -32.195  11.673  0.00  0.00    -0.271 N 
ATOM     16  C   LIG    1       22.836 -32.565  11.572  0.00  0.00    +0.165 C 
ATOM     17  CA  LIG    1       22.791 -32.112  10.089  0.00  0.00    +0.190 C 
ATOM     18  C   LIG    1       21.403 -31.548  10.471  0.00  0.00    +0.240 C 
ATOM     19  O   LIG    1       20.636 -30.714  10.027  0.00  0.00    -0.273 OA
ATOM     20  S   LIG    1       23.719 -31.475  12.757  0.00  0.00    -0.127 S 
ATOM     21  C   LIG    1       22.355 -30.437  14.877  0.00  0.00    +0.025 C 
BRANCH  14  22
ATOM     22  C   LIG    1       20.555 -32.581  13.912  0.00  0.00    +0.327 C 
ATOM     23  O   LIG    1       21.154 -33.615  14.164  0.00  0.00    -0.249 OA
BRANCH  22  24
ATOM     24  OXT LIG    1       19.452 -32.234  14.624  0.00  0.00    -0.479 OA
ATOM     25  HXT LIG    1       19.399 -31.265  14.752  0.00  0.00    +0.295 HD
ENDBRANCH  22  24
ENDBRANCH  14  22
ENDBRANCH   8  17
ENDBRANCH   1  10
BRANCH   1  26
ATOM     26  C   LIG    1       24.888 -29.297   7.302  0.00  0.00    +0.329 C 
ATOM     27  O   LIG    1       23.682 -29.281   7.093  0.00  0.00    -0.249 OA
BRANCH  26  28
ATOM     28  O   LIG    1       25.847 -28.516   6.645  0.00  0.00    -0.425 OA
BRANCH  28  29
ATOM     29  C   LIG    1       25.702 -27.151   6.305  0.00  0.00    +0.132 A 
ATOM     30  C   LIG    1       25.903 -26.100   7.197  0.00  0.00    +0.050 A 
ATOM     31  C   LIG    1       25.634 -24.818   6.754  0.00  0.00    -0.041 A 
ATOM     32  C   LIG    1       25.698 -23.549   7.544  0.00  0.00    +0.036 C 
ATOM     33  C   LIG    1       25.664 -22.504   6.421  0.00  0.00    +0.009 C 
ATOM     34  C   LIG    1       24.869 -23.127   5.265  0.00  0.00    +0.036 C 
ATOM     35  C   LIG    1       25.166 -24.581   5.456  0.00  0.00    -0.044 A 
ATOM     36  C   LIG    1       24.967 -25.621   4.566  0.00  0.00    +0.007 A 
ATOM     37  C   LIG    1       25.246 -26.919   4.996  0.00  0.00    +0.046 A 
ENDBRANCH  28  29
ENDBRANCH  26  28
ENDBRANCH   1  26
TORSDOF 8
ENDMDL
MODEL 5
REMARK VINA RESULT:      -7.2      6.067     10.041
REMARK  Name = *****
REMARK                            x       y       z     vdW  Elec       q    Type
REMARK                         _______ _______ _______ _____ _____    ______ ____
ROOT
ATOM      1  C   LIG    1       26.287 -21.009   6.493  0.00  0.00    +0.213 C 
ENDROOT
BRANCH   1   2
ATOM      2  C   LIG    1       25.385 -20.289   5.493  0.00  0.00    -0.025 A 
ATOM      3  C   LIG    1       25.850 -19.714   4.300  0.00  0.00    +0.005 A 
ATOM      4  C   LIG    1       24.973 -19.060   3.431  0.00  0.00    +0.000 A 
ATOM      5  C   LIG    1       23.617 -18.979   3.732  0.00  0.00    +0.000 A 
ATOM      6  C   LIG    1       23.133 -19.562   4.899  0.00  0.00    +0.000 A 
ATOM      7  C   LIG    1       24.007 -20.215   5.769  0.00  0.00    +0.005 A 
ENDBRANCH   1   2
BRANCH   1  10
ATOM      8  N   LIG    1       28.592 -21.071   7.355  0.00  0.00    -0.301 N 
ATOM      9  H   LIG    1       28.190 -21.489   8.189  0.00  0.00    +0.150 HD
ATOM     10  C   LIG    1       27.751 -20.635   6.352  0.00  0.00    +0.232 C 
ATOM     11  O   LIG    1       28.180 -20.020   5.375  0.00  0.00    -0.275 OA
BRANCH   8  17
ATOM     12  C   LIG    1       29.020 -18.702  10.518  0.00  0.00    +0.025 C 
ATOM     13  C   LIG    1       29.960 -17.933   9.568  0.00  0.00    +0.042 C 
ATOM     14  CA  LIG    1       31.368 -18.579   9.516  0.00  0.00    +0.201 C 
ATOM     15  N   LIG    1       31.356 -19.605   8.459  0.00  0.00    -0.271 N 
ATOM     16  C   LIG    1       30.500 -19.308   7.287  0.00  0.00    +0.165 C 
ATOM     17  CA  LIG    1       30.051 -20.793   7.310  0.00  0.00    +0.190 C 
ATOM     18  C   LIG    1       30.786 -20.828   8.669  0.00  0.00    +0.240 C 
ATOM     19  O   LIG    1       30.772 -21.529   9.663  0.00  0.00    -0.273 OA
ATOM     20  S   LIG    1       29.286 -18.055   7.859  0.00  0.00    -0.127 S 
ATOM     21  C   LIG    1       29.924 -16.456   9.974  0.00  0.00    +0.025 C 
BRANCH  14  22
ATOM     22  C   LIG    1       32.536 -17.623   9.208  0.00  0.00    +0.327 C 
ATOM     23  O   LIG    1       32.950 -17.342   8.094  0.00  0.00    -0.249 OA
BRANCH  22  24
ATOM     24  OXT LIG    1       33.021 -16.982  10.303  0.00  0.00    -0.479 OA
ATOM     25  HXT LIG    1       33.999 -17.004  10.327  0.00  0.00    +0.295 HD
ENDBRANCH  22  24
ENDBRANCH  14  22
ENDBRANCH   8  17
ENDBRANCH   1  10
BRANCH   1  26
ATOM     26  C   LIG    1       25.896 -20.901   7.950  0.00  0.00    +0.329 C 
ATOM     27  O   LIG    1       26.455 -20.201   8.786  0.00  0.00    -0.249 OA
BRANCH  26  28
ATOM     28  O   LIG    1       24.884 -21.835   8.203  0.00  0.00    -0.425 OA
BRANCH  28  29
ATOM     29  C   LIG    1       24.753 -23.094   7.574  0.00  0.00    +0.132 A 
ATOM     30  C   LIG    1       25.822 -23.950   7.310  0.00  0.00    +0.050 A 
ATOM     31  C   LIG    1       25.560 -25.109   6.604  0.00  0.00    -0.041 A 
ATOM     32  C   LIG    1       26.546 -26.134   6.139  0.00  0.00    +0.036 C 
ATOM     33  C   LIG    1       25.611 -27.296   5.779  0.00  0.00    +0.009 C 
ATOM     34  C   LIG    1       24.277 -26.670   5.346  0.00  0.00    +0.036 C 
ATOM     35  C   LIG    1       24.269 -25.413   6.159  0.00  0.00    -0.044 A 
ATOM     36  C   LIG    1       23.204 -24.569   6.419  0.00  0.00    +0.007 A 
ATOM     37  C   LIG    1       23.451 -23.400   7.141  0.00  0.00    +0.046 A 
ENDBRANCH  28  29
ENDBRANCH  26  28
ENDBRANCH   1  26
TORSDOF 8
ENDMDL
MODEL 6
REMARK VINA RESULT:      -7.1      3.764      6.168
REMARK  Name = *****
REMARK                            x       y       z     vdW  Elec       q    Type
REMARK                         _______ _______ _______ _____ _____    ______ ____
ROOT
ATOM      1  C   LIG    1       25.034 -29.705   9.272  0.00  0.00    +0.213 C 
ENDROOT
BRANCH   1   2
ATOM      2  C   LIG    1       25.018 -29.213   7.827  0.00  0.00    -0.025 A 
ATOM      3  C   LIG    1       24.508 -29.963   6.756  0.00  0.00    +0.005 A 
ATOM      4  C   LIG    1       24.532 -29.458   5.452  0.00  0.00    +0.000 A 
ATOM      5  C   LIG    1       25.052 -28.193   5.200  0.00  0.00    +0.000 A 
ATOM      6  C   LIG    1       25.541 -27.425   6.251  0.00  0.00    +0.000 A 
ATOM      7  C   LIG    1       25.520 -27.927   7.553  0.00  0.00    +0.005 A 
ENDBRANCH   1   2
BRANCH   1  10
ATOM      8  N   LIG    1       22.874 -30.682   9.936  0.00  0.00    -0.301 N 
ATOM      9  H   LIG    1       22.618 -29.739  10.217  0.00  0.00    +0.150 HD
ATOM     10  C   LIG    1       24.159 -30.924   9.497  0.00  0.00    +0.232 C 
ATOM     11  O   LIG    1       24.551 -32.066   9.254  0.00  0.00    -0.275 OA
BRANCH   8  17
ATOM     12  C   LIG    1       20.778 -29.280  13.009  0.00  0.00    +0.025 C 
ATOM     13  C   LIG    1       20.888 -30.739  13.495  0.00  0.00    +0.042 C 
ATOM     14  CA  LIG    1       19.822 -31.642  12.824  0.00  0.00    +0.201 C 
ATOM     15  N   LIG    1       20.391 -32.158  11.568  0.00  0.00    -0.271 N 
ATOM     16  C   LIG    1       21.851 -32.412  11.582  0.00  0.00    +0.165 C 
ATOM     17  CA  LIG    1       21.916 -31.794  10.161  0.00  0.00    +0.190 C 
ATOM     18  C   LIG    1       20.456 -31.378  10.449  0.00  0.00    +0.240 C 
ATOM     19  O   LIG    1       19.670 -30.554  10.019  0.00  0.00    -0.273 OA
ATOM     20  S   LIG    1       22.520 -31.407  12.966  0.00  0.00    -0.127 S 
ATOM     21  C   LIG    1       20.871 -30.721  15.027  0.00  0.00    +0.025 C 
BRANCH  14  22
ATOM     22  C   LIG    1       19.359 -32.861  13.647  0.00  0.00    +0.327 C 
ATOM     23  O   LIG    1       20.050 -33.823  13.943  0.00  0.00    -0.249 OA
BRANCH  22  24
ATOM     24  OXT LIG    1       18.105 -32.731  14.155  0.00  0.00    -0.479 OA
ATOM     25  HXT LIG    1       17.666 -31.922  13.822  0.00  0.00    +0.295 HD
ENDBRANCH  22  24
ENDBRANCH  14  22
ENDBRANCH   8  17
ENDBRANCH   1  10
BRANCH   1  26
ATOM     26  C   LIG    1       26.395 -29.965   9.879  0.00  0.00    +0.329 C 
ATOM     27  O   LIG    1       27.396 -30.302   9.260  0.00  0.00    -0.249 OA
BRANCH  26  28
ATOM     28  O   LIG    1       26.276 -29.887  11.272  0.00  0.00    -0.425 OA
BRANCH  28  29
ATOM     29  C   LIG    1       25.973 -28.717  12.006  0.00  0.00    +0.132 A 
ATOM     30  C   LIG    1       24.746 -28.478  12.621  0.00  0.00    +0.050 A 
ATOM     31  C   LIG    1       24.557 -27.249  13.225  0.00  0.00    -0.041 A 
ATOM     32  C   LIG    1       23.311 -26.736  13.876  0.00  0.00    +0.036 C 
ATOM     33  C   LIG    1       23.860 -25.529  14.647  0.00  0.00    +0.009 C 
ATOM     34  C   LIG    1       25.067 -25.010  13.852  0.00  0.00    +0.036 C 
ATOM     35  C   LIG    1       25.559 -26.271  13.214  0.00  0.00    -0.044 A 
ATOM     36  C   LIG    1       26.780 -26.504  12.606  0.00  0.00    +0.007 A 
ATOM     37  C   LIG    1       26.989 -27.745  12.002  0.00  0.00    +0.046 A 
ENDBRANCH  28  29
ENDBRANCH  26  28
ENDBRANCH   1  26
TORSDOF 8
ENDMDL
MODEL 7
REMARK VINA RESULT:      -7.1      4.350      8.454
REMARK  Name = *****
REMARK                            x       y       z     vdW  Elec       q    Type
REMARK                         _______ _______ _______ _____ _____    ______ ____
ROOT
ATOM      1  C   LIG    1       23.796 -28.390  13.042  0.00  0.00    +0.213 C 
ENDROOT
BRANCH   1   2
ATOM      2  C   LIG    1       24.618 -27.125  13.271  0.00  0.00    -0.025 A 
ATOM      3  C   LIG    1       25.990 -27.027  12.992  0.00  0.00    +0.005 A 
ATOM      4  C   LIG    1       26.688 -25.840  13.235  0.00  0.00    +0.000 A 
ATOM      5  C   LIG    1       26.026 -24.730  13.748  0.00  0.00    +0.000 A 
ATOM      6  C   LIG    1       24.661 -24.799  14.010  0.00  0.00    +0.000 A 
ATOM      7  C   LIG    1       23.962 -25.984  13.770  0.00  0.00    +0.005 A 
ENDBRANCH   1   2
BRANCH   1  10
ATOM      8  N   LIG    1       24.751 -29.946  11.390  0.00  0.00    -0.301 N 
ATOM      9  H   LIG    1       24.160 -29.473  10.712  0.00  0.00    +0.150 HD
ATOM     10  C   LIG    1       24.648 -29.605  12.723  0.00  0.00    +0.232 C 
ATOM     11  O   LIG    1       25.257 -30.226  13.595  0.00  0.00    -0.275 OA
BRANCH   8  17
ATOM     12  C   LIG    1       25.146 -29.179   7.510  0.00  0.00    +0.025 C 
ATOM     13  C   LIG    1       24.933 -30.702   7.389  0.00  0.00    +0.042 C 
ATOM     14  CA  LIG    1       26.247 -31.481   7.650  0.00  0.00    +0.201 C 
ATOM     15  N   LIG    1       26.338 -31.743   9.097  0.00  0.00    -0.271 N 
ATOM     16  C   LIG    1       25.048 -31.971   9.789  0.00  0.00    +0.165 C 
ATOM     17  CA  LIG    1       25.583 -31.097  10.954  0.00  0.00    +0.190 C 
ATOM     18  C   LIG    1       26.726 -30.766   9.968  0.00  0.00    +0.240 C 
ATOM     19  O   LIG    1       27.562 -29.890   9.846  0.00  0.00    -0.273 OA
ATOM     20  S   LIG    1       23.762 -31.232   8.706  0.00  0.00    -0.127 S 
ATOM     21  C   LIG    1       24.262 -30.970   6.038  0.00  0.00    +0.025 C 
BRANCH  14  22
ATOM     22  C   LIG    1       26.377 -32.839   6.933  0.00  0.00    +0.327 C 
ATOM     23  O   LIG    1       25.688 -33.824   7.146  0.00  0.00    -0.249 OA
BRANCH  22  24
ATOM     24  OXT LIG    1       27.270 -32.832   5.909  0.00  0.00    -0.479 OA
ATOM     25  HXT LIG    1       28.055 -32.289   6.123  0.00  0.00    +0.295 HD
ENDBRANCH  22  24
ENDBRANCH  14  22
ENDBRANCH   8  17
ENDBRANCH   1  10
BRANCH   1  26
ATOM     26  C   LIG    1       22.811 -28.760  14.128  0.00  0.00    +0.329 C 
ATOM     27  O   LIG    1       23.088 -28.938  15.308  0.00  0.00    -0.249 OA
BRANCH  26  28
ATOM     28  O   LIG    1       21.566 -28.993  13.531  0.00  0.00    -0.425 OA
BRANCH  28  29
ATOM     29  C   LIG    1       20.359 -28.336  13.865  0.00  0.00    +0.132 A 
ATOM     30  C   LIG    1       19.248 -28.976  14.409  0.00  0.00    +0.050 A 
ATOM     31  C   LIG    1       18.101 -28.226  14.598  0.00  0.00    -0.041 A 
ATOM     32  C   LIG    1       16.772 -28.704  15.089  0.00  0.00    +0.036 C 
ATOM     33  C   LIG    1       16.087 -27.372  15.422  0.00  0.00    +0.009 C 
ATOM     34  C   LIG    1       16.677 -26.324  14.468  0.00  0.00    +0.036 C 
ATOM     35  C   LIG    1       18.052 -26.872  14.248  0.00  0.00    -0.044 A 
ATOM     36  C   LIG    1       19.154 -26.231  13.709  0.00  0.00    +0.007 A 
ATOM     37  C   LIG    1       20.322 -26.973  13.523  0.00  0.00    +0.046 A 
ENDBRANCH  28  29
ENDBRANCH  26  28
ENDBRANCH   1  26
TORSDOF 8
ENDMDL
MODEL 8
REMARK VINA RESULT:      -7.0      4.703      9.578
REMARK  Name = *****
REMARK                            x       y       z     vdW  Elec       q    Type
REMARK                         _______ _______ _______ _____ _____    ______ ____
ROOT
ATOM      1  C   LIG    1       24.747 -22.692   5.700  0.00  0.00    +0.213 C 
ENDROOT
BRANCH   1   2
ATOM      2  C   LIG    1       24.056 -21.454   5.135  0.00  0.00    -0.025 A 
ATOM      3  C   LIG    1       22.771 -21.038   5.516  0.00  0.00    +0.005 A 
ATOM      4  C   LIG    1       22.190 -19.898   4.952  0.00  0.00    +0.000 A 
ATOM      5  C   LIG    1       22.886 -19.150   4.009  0.00  0.00    +0.000 A 
ATOM      6  C   LIG    1       24.170 -19.532   3.634  0.00  0.00    +0.000 A 
ATOM      7  C   LIG    1       24.752 -20.670   4.195  0.00  0.00    +0.005 A 
ENDBRANCH   1   2
BRANCH   1  10
ATOM      8  N   LIG    1       26.829 -22.303   6.955  0.00  0.00    -0.301 N 
ATOM      9  H   LIG    1       27.307 -22.522   6.085  0.00  0.00    +0.150 HD
ATOM     10  C   LIG    1       25.457 -22.430   7.016  0.00  0.00    +0.232 C 
ATOM     11  O   LIG    1       24.844 -22.287   8.074  0.00  0.00    -0.275 OA
BRANCH   8  17
ATOM     12  C   LIG    1       28.376 -18.759   6.035  0.00  0.00    +0.025 C 
ATOM     13  C   LIG    1       29.638 -19.361   6.685  0.00  0.00    +0.042 C 
ATOM     14  CA  LIG    1       29.589 -19.247   8.230  0.00  0.00    +0.201 C 
ATOM     15  N   LIG    1       28.911 -20.446   8.751  0.00  0.00    -0.271 N 
ATOM     16  C   LIG    1       29.136 -21.694   7.985  0.00  0.00    +0.165 C 
ATOM     17  CA  LIG    1       27.629 -22.014   8.172  0.00  0.00    +0.190 C 
ATOM     18  C   LIG    1       27.551 -20.564   8.702  0.00  0.00    +0.240 C 
ATOM     19  O   LIG    1       26.682 -19.727   8.861  0.00  0.00    -0.273 OA
ATOM     20  S   LIG    1       29.679 -21.163   6.313  0.00  0.00    -0.127 S 
ATOM     21  C   LIG    1       30.857 -18.722   6.012  0.00  0.00    +0.025 C 
BRANCH  14  22
ATOM     22  C   LIG    1       30.954 -19.153   8.940  0.00  0.00    +0.327 C 
ATOM     23  O   LIG    1       31.766 -20.059   9.044  0.00  0.00    -0.249 OA
BRANCH  22  24
ATOM     24  OXT LIG    1       31.267 -17.898   9.356  0.00  0.00    -0.479 OA
ATOM     25  HXT LIG    1       32.063 -17.898   9.926  0.00  0.00    +0.295 HD
ENDBRANCH  22  24
ENDBRANCH  14  22
ENDBRANCH   8  17
ENDBRANCH   1  10
BRANCH   1  26
ATOM     26  C   LIG    1       23.893 -23.931   5.848  0.00  0.00    +0.329 C 
ATOM     27  O   LIG    1       22.854 -24.005   6.493  0.00  0.00    -0.249 OA
BRANCH  26  28
ATOM     28  O   LIG    1       24.561 -24.999   5.238  0.00  0.00    -0.425 OA
BRANCH  28  29
ATOM     29  C   LIG    1       24.846 -26.244   5.846  0.00  0.00    +0.132 A 
ATOM     30  C   LIG    1       24.185 -27.431   5.540  0.00  0.00    +0.050 A 
ATOM     31  C   LIG    1       24.502 -28.555   6.280  0.00  0.00    -0.041 A 
ATOM     32  C   LIG    1       23.877 -29.911   6.190  0.00  0.00    +0.036 C 
ATOM     33  C   LIG    1       24.897 -30.755   6.966  0.00  0.00    +0.009 C 
ATOM     34  C   LIG    1       25.537 -29.824   8.007  0.00  0.00    +0.036 C 
ATOM     35  C   LIG    1       25.449 -28.503   7.309  0.00  0.00    -0.044 A 
ATOM     36  C   LIG    1       26.111 -27.327   7.616  0.00  0.00    +0.007 A 
ATOM     37  C   LIG    1       25.809 -26.187   6.869  0.00  0.00    +0.046 A 
ENDBRANCH  28  29
ENDBRANCH  26  28
ENDBRANCH   1  26
TORSDOF 8
ENDMDL
MODEL 9
REMARK VINA RESULT:      -6.9      6.067     10.222
REMARK  Name = *****
REMARK                            x       y       z     vdW  Elec       q    Type
REMARK                         _______ _______ _______ _____ _____    ______ ____
ROOT
ATOM      1  C   LIG    1       26.576 -21.027   6.223  0.00  0.00    +0.213 C 
ENDROOT
BRANCH   1   2
ATOM      2  C   LIG    1       25.173 -20.745   5.694  0.00  0.00    -0.025 A 
ATOM      3  C   LIG    1       24.154 -20.164   6.465  0.00  0.00    +0.005 A 
ATOM      4  C   LIG    1       22.884 -19.940   5.923  0.00  0.00    +0.000 A 
ATOM      5  C   LIG    1       22.616 -20.281   4.602  0.00  0.00    +0.000 A 
ATOM      6  C   LIG    1       23.619 -20.837   3.814  0.00  0.00    +0.000 A 
ATOM      7  C   LIG    1       24.887 -21.063   4.353  0.00  0.00    +0.005 A 
ENDBRANCH   1   2
BRANCH   1  10
ATOM      8  N   LIG    1       28.687 -19.867   6.732  0.00  0.00    -0.301 N 
ATOM      9  H   LIG    1       28.749 -20.489   7.534  0.00  0.00    +0.150 HD
ATOM     10  C   LIG    1       27.556 -19.903   5.942  0.00  0.00    +0.232 C 
ATOM     11  O   LIG    1       27.383 -19.095   5.030  0.00  0.00    -0.275 OA
BRANCH   8  17
ATOM     12  C   LIG    1       30.763 -20.206  10.105  0.00  0.00    +0.025 C 
ATOM     13  C   LIG    1       30.779 -18.666  10.018  0.00  0.00    +0.042 C 
ATOM     14  CA  LIG    1       31.889 -18.163   9.061  0.00  0.00    +0.201 C 
ATOM     15  N   LIG    1       31.323 -18.101   7.703  0.00  0.00    -0.271 N 
ATOM     16  C   LIG    1       29.887 -17.742   7.623  0.00  0.00    +0.165 C 
ATOM     17  CA  LIG    1       29.733 -18.832   6.530  0.00  0.00    +0.190 C 
ATOM     18  C   LIG    1       31.166 -19.230   6.951  0.00  0.00    +0.240 C 
ATOM     19  O   LIG    1       31.874 -20.215   6.855  0.00  0.00    -0.273 OA
ATOM     20  S   LIG    1       29.187 -18.109   9.280  0.00  0.00    -0.127 S 
ATOM     21  C   LIG    1       30.840 -18.121  11.448  0.00  0.00    +0.025 C 
BRANCH  14  22
ATOM     22  C   LIG    1       32.467 -16.769   9.376  0.00  0.00    +0.327 C 
ATOM     23  O   LIG    1       32.360 -15.779   8.669  0.00  0.00    -0.249 OA
BRANCH  22  24
ATOM     24  OXT LIG    1       33.024 -16.676  10.612  0.00  0.00    -0.479 OA
ATOM     25  HXT LIG    1       33.960 -16.964  10.605  0.00  0.00    +0.295 HD
ENDBRANCH  22  24
ENDBRANCH  14  22
ENDBRANCH   8  17
ENDBRANCH   1  10
BRANCH   1  26
ATOM     26  C   LIG    1       26.682 -21.411   7.682  0.00  0.00    +0.329 C 
ATOM     27  O   LIG    1       27.619 -21.140   8.422  0.00  0.00    -0.249 OA
BRANCH  26  28
ATOM     28  O   LIG    1       25.596 -22.237   7.997  0.00  0.00    -0.425 OA
BRANCH  28  29
ATOM     29  C   LIG    1       25.285 -23.462   7.364  0.00  0.00    +0.132 A 
ATOM     30  C   LIG    1       26.228 -24.440   7.052  0.00  0.00    +0.050 A 
ATOM     31  C   LIG    1       25.797 -25.549   6.347  0.00  0.00    -0.041 A 
ATOM     32  C   LIG    1       26.629 -26.682   5.835  0.00  0.00    +0.036 C 
ATOM     33  C   LIG    1       25.544 -27.714   5.503  0.00  0.00    +0.009 C 
ATOM     34  C   LIG    1       24.283 -26.922   5.129  0.00  0.00    +0.036 C 
ATOM     35  C   LIG    1       24.462 -25.685   5.951  0.00  0.00    -0.044 A 
ATOM     36  C   LIG    1       23.521 -24.718   6.260  0.00  0.00    +0.007 A 
ATOM     37  C   LIG    1       23.939 -23.598   6.981  0.00  0.00    +0.046 A 
ENDBRANCH  28  29
ENDBRANCH  26  28
ENDBRANCH   1  26
TORSDOF 8
ENDMDL
