MODEL 1
REMARK VINA RESULT:      -5.0      0.000      0.000
REMARK  Name = *****
REMARK                            x       y       z     vdW  Elec       q    Type
REMARK                         _______ _______ _______ _____ _____    ______ ____
ROOT
ATOM      1  N   LIG    1       22.917 -19.675   4.352  0.00  0.00    -0.299 NA
ATOM      2  C   LIG    1       22.142 -18.408   4.439  0.00  0.00    +0.103 C 
ATOM      3  C   LIG    1       22.981 -17.119   4.661  0.00  0.00    +0.120 C 
ATOM      4  N   LIG    1       24.051 -17.000   3.641  0.00  0.00    -0.327 N 
ATOM      5  C   LIG    1       24.851 -18.238   3.486  0.00  0.00    +0.120 C 
ATOM      6  C   LIG    1       23.946 -19.480   3.303  0.00  0.00    +0.103 C 
ENDROOT
BRANCH   4   7
ATOM      7  C   LIG    1       24.756 -15.782   3.698  0.00  0.00    +0.031 A 
ATOM      8  C   LIG    1       24.090 -14.611   4.101  0.00  0.00    +0.043 A 
ATOM      9  C   LIG    1       24.748 -13.375   4.126  0.00  0.00    +0.043 A 
ATOM     10 CL   LIG    1       23.896 -11.953   4.597  0.00  0.00    -0.084 Cl
ATOM     11  C   LIG    1       26.088 -13.276   3.766  0.00  0.00    +0.020 A 
ATOM     12  C   LIG    1       26.771 -14.422   3.379  0.00  0.00    +0.003 A 
ATOM     13  C   LIG    1       26.108 -15.656   3.340  0.00  0.00    +0.023 A 
ENDBRANCH   4   7
BRANCH   1  14
ATOM     14  C   LIG    1       23.498 -20.051   5.660  0.00  0.00    +0.090 C 
BRANCH  14  15
ATOM     15  C   LIG    1       24.409 -21.291   5.599  0.00  0.00    +0.072 C 
BRANCH  15  21
ATOM     16  C   LIG    1       29.151 -19.418   5.927  0.00  0.00    +0.065 C 
ATOM     17  C   LIG    1       27.856 -20.119   6.066  0.00  0.00    +0.033 A 
ATOM     18  N   LIG    1       27.629 -21.037   7.062  0.00  0.00    -0.282 N 
ATOM     19  H   LIG    1       28.255 -21.340   7.791  0.00  0.00    +0.189 HD
ATOM     20  N   LIG    1       26.398 -21.572   7.013  0.00  0.00    -0.179 NA
ATOM     21  C   LIG    1       25.817 -20.971   5.968  0.00  0.00    +0.064 A 
ATOM     22  C   LIG    1       26.695 -20.056   5.343  0.00  0.00    +0.047 A 
ENDBRANCH  15  21
ENDBRANCH  14  15
ENDBRANCH   1  14
TORSDOF 4
ENDMDL
MODEL 2
REMARK VINA RESULT:      -4.6      2.323      5.863
REMARK  Name = *****
REMARK                            x       y       z     vdW  Elec       q    Type
REMARK                         _______ _______ _______ _____ _____    ______ ____
ROOT
ATOM      1  N   LIG    1       22.500 -20.756   4.991  0.00  0.00    -0.299 NA
ATOM      2  C   LIG    1       23.548 -21.007   3.967  0.00  0.00    +0.103 C 
ATOM      3  C   LIG    1       24.975 -20.508   4.325  0.00  0.00    +0.120 C 
ATOM      4  N   LIG    1       25.405 -21.033   5.644  0.00  0.00    -0.327 N 
ATOM      5  C   LIG    1       24.396 -20.834   6.710  0.00  0.00    +0.120 C 
ATOM      6  C   LIG    1       22.996 -21.325   6.266  0.00  0.00    +0.103 C 
ENDROOT
BRANCH   4   7
ATOM      7  C   LIG    1       26.744 -20.735   5.963  0.00  0.00    +0.031 A 
ATOM      8  C   LIG    1       27.352 -19.591   5.416  0.00  0.00    +0.043 A 
ATOM      9  C   LIG    1       28.695 -19.289   5.676  0.00  0.00    +0.043 A 
ATOM     10 CL   LIG    1       29.419 -17.895   4.966  0.00  0.00    -0.084 Cl
ATOM     11  C   LIG    1       29.462 -20.108   6.497  0.00  0.00    +0.020 A 
ATOM     12  C   LIG    1       28.878 -21.236   7.061  0.00  0.00    +0.003 A 
ATOM     13  C   LIG    1       27.539 -21.545   6.790  0.00  0.00    +0.023 A 
ENDBRANCH   4   7
BRANCH   1  14
ATOM     14  C   LIG    1       22.174 -19.316   5.097  0.00  0.00    +0.090 C 
BRANCH  14  15
ATOM     15  C   LIG    1       22.619 -18.489   3.876  0.00  0.00    +0.072 C 
BRANCH  15  21
ATOM     16  C   LIG    1       24.672 -13.837   4.371  0.00  0.00    +0.065 C 
ATOM     17  C   LIG    1       23.873 -15.081   4.412  0.00  0.00    +0.033 A 
ATOM     18  N   LIG    1       22.722 -15.184   5.153  0.00  0.00    -0.282 N 
ATOM     19  H   LIG    1       22.282 -14.483   5.728  0.00  0.00    +0.189 HD
ATOM     20  N   LIG    1       22.148 -16.395   5.069  0.00  0.00    -0.179 NA
ATOM     21  C   LIG    1       22.943 -17.082   4.240  0.00  0.00    +0.064 A 
ATOM     22  C   LIG    1       24.039 -16.299   3.806  0.00  0.00    +0.047 A 
ENDBRANCH  15  21
ENDBRANCH  14  15
ENDBRANCH   1  14
TORSDOF 4
ENDMDL
MODEL 3
REMARK VINA RESULT:      -2.3      1.950      3.926
REMARK  Name = *****
REMARK                            x       y       z     vdW  Elec       q    Type
REMARK                         _______ _______ _______ _____ _____    ______ ____
ROOT
ATOM      1  N   LIG    1       27.622 -20.069   5.266  0.00  0.00    -0.299 NA
ATOM      2  C   LIG    1       26.795 -19.766   4.069  0.00  0.00    +0.103 C 
ATOM      3  C   LIG    1       26.302 -18.297   3.944  0.00  0.00    +0.120 C 
ATOM      4  N   LIG    1       27.437 -17.347   4.042  0.00  0.00    -0.327 N 
ATOM      5  C   LIG    1       28.317 -17.606   5.205  0.00  0.00    +0.120 C 
ATOM      6  C   LIG    1       28.738 -19.093   5.280  0.00  0.00    +0.103 C 
ENDROOT
BRANCH   4   7
ATOM      7  C   LIG    1       27.077 -16.008   3.793  0.00  0.00    +0.031 A 
ATOM      8  C   LIG    1       28.001 -14.980   4.052  0.00  0.00    +0.043 A 
ATOM      9  C   LIG    1       27.662 -13.635   3.858  0.00  0.00    +0.043 A 
ATOM     10 CL   LIG    1       28.807 -12.397   4.213  0.00  0.00    -0.084 Cl
ATOM     11  C   LIG    1       26.402 -13.280   3.389  0.00  0.00    +0.020 A 
ATOM     12  C   LIG    1       25.478 -14.280   3.112  0.00  0.00    +0.003 A 
ATOM     13  C   LIG    1       25.813 -15.624   3.318  0.00  0.00    +0.023 A 
ENDBRANCH   4   7
BRANCH   1  14
ATOM     14  C   LIG    1       26.818 -20.035   6.508  0.00  0.00    +0.090 C 
BRANCH  14  15
ATOM     15  C   LIG    1       25.787 -21.175   6.611  0.00  0.00    +0.072 C 
BRANCH  15  21
ATOM     16  C   LIG    1       21.420 -19.655   4.437  0.00  0.00    +0.065 C 
ATOM     17  C   LIG    1       22.717 -20.255   4.822  0.00  0.00    +0.033 A 
ATOM     18  N   LIG    1       23.386 -21.129   4.003  0.00  0.00    -0.282 N 
ATOM     19  H   LIG    1       23.120 -21.462   3.088  0.00  0.00    +0.189 HD
ATOM     20  N   LIG    1       24.538 -21.571   4.533  0.00  0.00    -0.179 NA
ATOM     21  C   LIG    1       24.615 -20.953   5.718  0.00  0.00    +0.064 A 
ATOM     22  C   LIG    1       23.494 -20.120   5.942  0.00  0.00    +0.047 A 
ENDBRANCH  15  21
ENDBRANCH  14  15
ENDBRANCH   1  14
TORSDOF 4
ENDMDL
MODEL 4
REMARK VINA RESULT:      -2.3      1.719      3.770
REMARK  Name = *****
REMARK                            x       y       z     vdW  Elec       q    Type
REMARK                         _______ _______ _______ _____ _____    ______ ____
ROOT
ATOM      1  N   LIG    1       26.792 -19.930   4.579  0.00  0.00    -0.299 NA
ATOM      2  C   LIG    1       26.073 -19.366   3.406  0.00  0.00    +0.103 C 
ATOM      3  C   LIG    1       25.805 -17.836   3.452  0.00  0.00    +0.120 C 
ATOM      4  N   LIG    1       27.060 -17.085   3.699  0.00  0.00    -0.327 N 
ATOM      5  C   LIG    1       27.839 -17.609   4.844  0.00  0.00    +0.120 C 
ATOM      6  C   LIG    1       28.036 -19.142   4.744  0.00  0.00    +0.103 C 
ENDROOT
BRANCH   4   7
ATOM      7  C   LIG    1       26.911 -15.687   3.609  0.00  0.00    +0.031 A 
ATOM      8  C   LIG    1       25.652 -15.140   3.303  0.00  0.00    +0.043 A 
ATOM      9  C   LIG    1       25.478 -13.757   3.161  0.00  0.00    +0.043 A 
ATOM     10 CL   LIG    1       23.929 -13.119   2.756  0.00  0.00    -0.084 Cl
ATOM     11  C   LIG    1       26.547 -12.884   3.335  0.00  0.00    +0.020 A 
ATOM     12  C   LIG    1       27.797 -13.402   3.654  0.00  0.00    +0.003 A 
ATOM     13  C   LIG    1       27.973 -14.785   3.781  0.00  0.00    +0.023 A 
ENDBRANCH   4   7
BRANCH   1  14
ATOM     14  C   LIG    1       25.946 -19.924   5.793  0.00  0.00    +0.090 C 
BRANCH  14  15
ATOM     15  C   LIG    1       24.940 -21.089   5.854  0.00  0.00    +0.072 C 
BRANCH  15  21
ATOM     16  C   LIG    1       20.909 -18.707   3.809  0.00  0.00    +0.065 C 
ATOM     17  C   LIG    1       21.891 -19.623   4.432  0.00  0.00    +0.033 A 
ATOM     18  N   LIG    1       21.561 -20.903   4.799  0.00  0.00    -0.282 N 
ATOM     19  H   LIG    1       20.675 -21.376   4.703  0.00  0.00    +0.189 HD
ATOM     20  N   LIG    1       22.584 -21.572   5.356  0.00  0.00    -0.179 NA
ATOM     21  C   LIG    1       23.600 -20.701   5.332  0.00  0.00    +0.064 A 
ATOM     22  C   LIG    1       23.211 -19.466   4.764  0.00  0.00    +0.047 A 
ENDBRANCH  15  21
ENDBRANCH  14  15
ENDBRANCH   1  14
TORSDOF 4
ENDMDL
MODEL 5
REMARK VINA RESULT:      -2.2      2.950      7.042
REMARK  Name = *****
REMARK                            x       y       z     vdW  Elec       q    Type
REMARK                         _______ _______ _______ _____ _____    ______ ____
ROOT
ATOM      1  N   LIG    1       27.689 -17.254   3.671  0.00  0.00    -0.299 NA
ATOM      2  C   LIG    1       28.097 -18.498   4.375  0.00  0.00    +0.103 C 
ATOM      3  C   LIG    1       26.996 -19.176   5.238  0.00  0.00    +0.120 C 
ATOM      4  N   LIG    1       25.768 -19.413   4.441  0.00  0.00    -0.327 N 
ATOM      5  C   LIG    1       25.316 -18.216   3.694  0.00  0.00    +0.120 C 
ATOM      6  C   LIG    1       26.473 -17.579   2.887  0.00  0.00    +0.103 C 
ENDROOT
BRANCH   4   7
ATOM      7  C   LIG    1       24.784 -20.154   5.124  0.00  0.00    +0.031 A 
ATOM      8  C   LIG    1       23.519 -20.337   4.537  0.00  0.00    +0.043 A 
ATOM      9  C   LIG    1       22.503 -21.029   5.207  0.00  0.00    +0.043 A 
ATOM     10 CL   LIG    1       20.953 -21.210   4.474  0.00  0.00    -0.084 Cl
ATOM     11  C   LIG    1       22.724 -21.571   6.469  0.00  0.00    +0.020 A 
ATOM     12  C   LIG    1       23.971 -21.417   7.061  0.00  0.00    +0.003 A 
ATOM     13  C   LIG    1       24.983 -20.712   6.397  0.00  0.00    +0.023 A 
ENDBRANCH   4   7
BRANCH   1  14
ATOM     14  C   LIG    1       27.476 -16.136   4.617  0.00  0.00    +0.090 C 
BRANCH  14  15
ATOM     15  C   LIG    1       27.890 -14.762   4.055  0.00  0.00    +0.072 C 
BRANCH  15  21
ATOM     16  C   LIG    1       23.793 -11.820   3.240  0.00  0.00    +0.065 C 
ATOM     17  C   LIG    1       24.963 -12.725   3.188  0.00  0.00    +0.033 A 
ATOM     18  N   LIG    1       25.386 -13.301   2.016  0.00  0.00    -0.282 N 
ATOM     19  H   LIG    1       24.999 -13.197   1.090  0.00  0.00    +0.189 HD
ATOM     20  N   LIG    1       26.455 -14.097   2.176  0.00  0.00    -0.179 NA
ATOM     21  C   LIG    1       26.733 -14.018   3.483  0.00  0.00    +0.064 A 
ATOM     22  C   LIG    1       25.822 -13.172   4.157  0.00  0.00    +0.047 A 
ENDBRANCH  15  21
ENDBRANCH  14  15
ENDBRANCH   1  14
TORSDOF 4
ENDMDL
