MODEL 1
REMARK VINA RESULT:       5.6      0.000      0.000
REMARK  Name = *****
REMARK                            x       y       z     vdW  Elec       q    Type
REMARK                         _______ _______ _______ _____ _____    ______ ____
ROOT
ATOM      1  O   LIG    1       26.971 -16.652   4.794  0.00  0.00    -0.284 OA
ENDROOT
BRANCH   1   2
ATOM      2  P   LIG    1       26.517 -15.489   3.757  0.00  0.00    +0.462 P 
ATOM      3  O   LIG    1       25.804 -16.017   2.551  0.00  0.00    -0.228 OA
BRANCH   2   4
ATOM      4  N   LIG    1       25.664 -14.459   4.684  0.00  0.00    -0.199 NA
ATOM      5  H   LIG    1       26.238 -13.701   5.046  0.00  0.00    +0.135 HD
BRANCH   4   6
ATOM      6  C   LIG    1       24.374 -13.905   4.259  0.00  0.00    +0.171 C 
ATOM      7  C   LIG    1       23.174 -14.561   4.945  0.00  0.00    +0.036 C 
BRANCH   6   8
ATOM      8  C   LIG    1       24.356 -12.408   4.599  0.00  0.00    +0.325 C 
ATOM      9  O   LIG    1       24.694 -11.912   5.666  0.00  0.00    -0.249 OA
BRANCH   8  10
ATOM     10  O   LIG    1       23.952 -11.718   3.495  0.00  0.00    -0.461 OA
BRANCH  10  12
ATOM     11  C   LIG    1       25.775 -12.569   2.190  0.00  0.00    +0.051 C 
ATOM     12  C   LIG    1       24.281 -12.285   2.221  0.00  0.00    +0.170 C 
ATOM     13  C   LIG    1       23.463 -13.565   2.107  0.00  0.00    +0.051 C 
ENDBRANCH  10  12
ENDBRANCH   8  10
ENDBRANCH   6   8
ENDBRANCH   4   6
ENDBRANCH   2   4
BRANCH   2  14
ATOM     14  O   LIG    1       27.927 -14.769   3.414  0.00  0.00    -0.413 OA
BRANCH  14  15
ATOM     15  C   LIG    1       28.397 -13.662   4.076  0.00  0.00    +0.131 A 
ATOM     16  C   LIG    1       28.958 -12.560   3.432  0.00  0.00    +0.046 A 
ATOM     17  C   LIG    1       29.394 -11.456   4.165  0.00  0.00    +0.004 A 
ATOM     18  C   LIG    1       29.288 -11.452   5.552  0.00  0.00    +0.000 A 
ATOM     19  C   LIG    1       28.754 -12.561   6.208  0.00  0.00    +0.004 A 
ATOM     20  C   LIG    1       28.307 -13.664   5.471  0.00  0.00    +0.046 A 
ENDBRANCH  14  15
ENDBRANCH   2  14
ENDBRANCH   1   2
BRANCH   1  21
ATOM     21  C   LIG    1       27.740 -17.723   4.258  0.00  0.00    +0.206 C 
BRANCH  21  22
ATOM     22  C   LIG    1       26.850 -18.927   3.897  0.00  0.00    +0.179 C 
ATOM     23  C   LIG    1       26.739 -19.936   5.065  0.00  0.00    +0.186 C 
ATOM     24  C   LIG    1       25.263 -20.343   5.056  0.00  0.00    +0.182 C 
ATOM     25  C   LIG    1       25.076 -21.570   4.170  0.00  0.00    +0.055 C 
ATOM     26  F   LIG    1       24.884 -20.685   6.319  0.00  0.00    -0.235 F 
ATOM     27  C   LIG    1       24.655 -18.993   4.636  0.00  0.00    +0.263 C 
ATOM     28  O   LIG    1       25.492 -18.507   3.568  0.00  0.00    -0.345 OA
BRANCH  27  29
ATOM     29  N   LIG    1       23.234 -18.903   4.286  0.00  0.00    -0.271 N 
ATOM     30  C   LIG    1       22.469 -20.051   4.502  0.00  0.00    +0.331 C 
ATOM     31  O   LIG    1       22.906 -21.129   4.890  0.00  0.00    -0.246 OA
ATOM     32  N   LIG    1       21.129 -19.929   4.243  0.00  0.00    -0.275 N 
ATOM     33  H   LIG    1       20.573 -20.761   4.395  0.00  0.00    +0.173 HD
ATOM     34  C   LIG    1       20.522 -18.870   3.634  0.00  0.00    +0.254 C 
ATOM     35  O   LIG    1       19.353 -18.890   3.257  0.00  0.00    -0.268 OA
ATOM     36  C   LIG    1       21.365 -17.691   3.447  0.00  0.00    +0.088 C 
ATOM     37  C   LIG    1       22.676 -17.749   3.779  0.00  0.00    +0.098 C 
ENDBRANCH  27  29
BRANCH  23  38
ATOM     38  O   LIG    1       27.066 -19.330   6.322  0.00  0.00    -0.386 OA
ATOM     39  H   LIG    1       27.474 -18.462   6.123  0.00  0.00    +0.210 HD
ENDBRANCH  23  38
ENDBRANCH  21  22
ENDBRANCH   1  21
TORSDOF 12
ENDMDL
MODEL 2
REMARK VINA RESULT:       6.2      2.116      3.681
REMARK  Name = *****
REMARK                            x       y       z     vdW  Elec       q    Type
REMARK                         _______ _______ _______ _____ _____    ______ ____
ROOT
ATOM      1  O   LIG    1       27.558 -16.202   3.110  0.00  0.00    -0.284 OA
ENDROOT
BRANCH   1   2
ATOM      2  P   LIG    1       27.210 -14.632   3.332  0.00  0.00    +0.462 P 
ATOM      3  O   LIG    1       28.411 -13.802   3.667  0.00  0.00    -0.228 OA
BRANCH   2   4
ATOM      4  N   LIG    1       26.425 -14.215   1.969  0.00  0.00    -0.199 NA
ATOM      5  H   LIG    1       25.807 -14.953   1.640  0.00  0.00    +0.135 HD
BRANCH   4   6
ATOM      6  C   LIG    1       25.735 -12.929   1.823  0.00  0.00    +0.171 C 
ATOM      7  C   LIG    1       24.210 -13.048   1.869  0.00  0.00    +0.036 C 
BRANCH   6   8
ATOM      8  C   LIG    1       26.176 -12.011   2.972  0.00  0.00    +0.325 C 
ATOM      9  O   LIG    1       27.332 -11.786   3.304  0.00  0.00    -0.249 OA
BRANCH   8  10
ATOM     10  O   LIG    1       25.065 -11.448   3.526  0.00  0.00    -0.461 OA
BRANCH  10  12
ATOM     11  C   LIG    1       25.152 -11.651   5.914  0.00  0.00    +0.051 C 
ATOM     12  C   LIG    1       24.478 -12.134   4.638  0.00  0.00    +0.170 C 
ATOM     13  C   LIG    1       22.996 -11.778   4.616  0.00  0.00    +0.051 C 
ENDBRANCH  10  12
ENDBRANCH   8  10
ENDBRANCH   6   8
ENDBRANCH   4   6
ENDBRANCH   2   4
BRANCH   2  14
ATOM     14  O   LIG    1       26.110 -14.691   4.520  0.00  0.00    -0.413 OA
BRANCH  14  15
ATOM     15  C   LIG    1       24.924 -15.376   4.424  0.00  0.00    +0.131 A 
ATOM     16  C   LIG    1       24.778 -16.568   3.715  0.00  0.00    +0.046 A 
ATOM     17  C   LIG    1       23.547 -17.226   3.679  0.00  0.00    +0.004 A 
ATOM     18  C   LIG    1       22.447 -16.685   4.339  0.00  0.00    +0.000 A 
ATOM     19  C   LIG    1       22.577 -15.480   5.026  0.00  0.00    +0.004 A 
ATOM     20  C   LIG    1       23.814 -14.826   5.071  0.00  0.00    +0.046 A 
ENDBRANCH  14  15
ENDBRANCH   2  14
ENDBRANCH   1   2
BRANCH   1  21
ATOM     21  C   LIG    1       28.261 -16.857   4.160  0.00  0.00    +0.206 C 
BRANCH  21  22
ATOM     22  C   LIG    1       28.039 -18.380   4.118  0.00  0.00    +0.179 C 
ATOM     23  C   LIG    1       28.571 -19.078   5.392  0.00  0.00    +0.186 C 
ATOM     24  C   LIG    1       27.494 -20.116   5.718  0.00  0.00    +0.182 C 
ATOM     25  C   LIG    1       27.829 -21.435   5.030  0.00  0.00    +0.055 C 
ATOM     26  F   LIG    1       27.480 -20.342   7.061  0.00  0.00    -0.235 F 
ATOM     27  C   LIG    1       26.259 -19.311   5.273  0.00  0.00    +0.263 C 
ATOM     28  O   LIG    1       26.621 -18.710   4.014  0.00  0.00    -0.345 OA
BRANCH  27  29
ATOM     29  N   LIG    1       24.945 -19.960   5.199  0.00  0.00    -0.271 N 
ATOM     30  C   LIG    1       24.357 -20.023   3.934  0.00  0.00    +0.331 C 
ATOM     31  O   LIG    1       24.819 -19.524   2.914  0.00  0.00    -0.246 OA
ATOM     32  N   LIG    1       23.166 -20.697   3.866  0.00  0.00    -0.275 N 
ATOM     33  H   LIG    1       22.735 -20.741   2.952  0.00  0.00    +0.173 HD
ATOM     34  C   LIG    1       22.433 -21.141   4.928  0.00  0.00    +0.254 C 
ATOM     35  O   LIG    1       21.288 -21.571   4.823  0.00  0.00    -0.268 OA
ATOM     36  C   LIG    1       23.104 -21.065   6.224  0.00  0.00    +0.088 C 
ATOM     37  C   LIG    1       24.325 -20.486   6.311  0.00  0.00    +0.098 C 
ENDBRANCH  27  29
BRANCH  23  38
ATOM     38  O   LIG    1       28.703 -18.159   6.484  0.00  0.00    -0.386 OA
ATOM     39  H   LIG    1       27.963 -18.339   7.100  0.00  0.00    +0.210 HD
ENDBRANCH  23  38
ENDBRANCH  21  22
ENDBRANCH   1  21
TORSDOF 12
ENDMDL
MODEL 3
REMARK VINA RESULT:       6.4      2.559      7.582
REMARK  Name = *****
REMARK                            x       y       z     vdW  Elec       q    Type
REMARK                         _______ _______ _______ _____ _____    ______ ____
ROOT
ATOM      1  O   LIG    1       21.801 -17.694   5.519  0.00  0.00    -0.284 OA
ENDROOT
BRANCH   1   2
ATOM      2  P   LIG    1       21.904 -18.571   4.158  0.00  0.00    +0.462 P 
ATOM      3  O   LIG    1       20.691 -18.454   3.286  0.00  0.00    -0.228 OA
BRANCH   2   4
ATOM      4  N   LIG    1       23.302 -18.077   3.487  0.00  0.00    -0.199 NA
ATOM      5  H   LIG    1       23.623 -17.192   3.874  0.00  0.00    +0.135 HD
BRANCH   4   6
ATOM      6  C   LIG    1       24.458 -18.967   3.335  0.00  0.00    +0.171 C 
ATOM      7  C   LIG    1       24.345 -19.912   2.137  0.00  0.00    +0.036 C 
BRANCH   6   8
ATOM      8  C   LIG    1       25.711 -18.101   3.143  0.00  0.00    +0.325 C 
ATOM      9  O   LIG    1       25.730 -16.952   2.721  0.00  0.00    -0.249 OA
BRANCH   8  10
ATOM     10  O   LIG    1       26.795 -18.808   3.572  0.00  0.00    -0.461 OA
BRANCH  10  12
ATOM     11  C   LIG    1       28.468 -19.412   5.180  0.00  0.00    +0.051 C 
ATOM     12  C   LIG    1       27.340 -18.447   4.847  0.00  0.00    +0.170 C 
ATOM     13  C   LIG    1       27.848 -17.018   4.697  0.00  0.00    +0.051 C 
ENDBRANCH  10  12
ENDBRANCH   8  10
ENDBRANCH   6   8
ENDBRANCH   4   6
ENDBRANCH   2   4
BRANCH   2  14
ATOM     14  O   LIG    1       22.149 -20.065   4.732  0.00  0.00    -0.413 OA
BRANCH  14  15
ATOM     15  C   LIG    1       23.364 -20.515   5.185  0.00  0.00    +0.131 A 
ATOM     16  C   LIG    1       24.298 -21.160   4.374  0.00  0.00    +0.046 A 
ATOM     17  C   LIG    1       25.526 -21.571   4.894  0.00  0.00    +0.004 A 
ATOM     18  C   LIG    1       25.823 -21.356   6.236  0.00  0.00    +0.000 A 
ATOM     19  C   LIG    1       24.885 -20.738   7.062  0.00  0.00    +0.004 A 
ATOM     20  C   LIG    1       23.657 -20.316   6.537  0.00  0.00    +0.046 A 
ENDBRANCH  14  15
ENDBRANCH   2  14
ENDBRANCH   1   2
BRANCH   1  21
ATOM     21  C   LIG    1       22.859 -16.777   5.773  0.00  0.00    +0.206 C 
BRANCH  21  22
ATOM     22  C   LIG    1       23.021 -15.773   4.617  0.00  0.00    +0.179 C 
ATOM     23  C   LIG    1       22.316 -14.429   4.914  0.00  0.00    +0.186 C 
ATOM     24  C   LIG    1       23.304 -13.377   4.403  0.00  0.00    +0.182 C 
ATOM     25  C   LIG    1       22.997 -13.050   2.946  0.00  0.00    +0.055 C 
ATOM     26  F   LIG    1       23.153 -12.231   5.124  0.00  0.00    -0.235 F 
ATOM     27  C   LIG    1       24.615 -14.098   4.767  0.00  0.00    +0.263 C 
ATOM     28  O   LIG    1       24.427 -15.470   4.367  0.00  0.00    -0.345 OA
BRANCH  27  29
ATOM     29  N   LIG    1       25.900 -13.573   4.294  0.00  0.00    -0.271 N 
ATOM     30  C   LIG    1       26.996 -13.767   5.138  0.00  0.00    +0.331 C 
ATOM     31  O   LIG    1       26.948 -14.272   6.254  0.00  0.00    -0.246 OA
ATOM     32  N   LIG    1       28.203 -13.340   4.650  0.00  0.00    -0.275 N 
ATOM     33  H   LIG    1       28.999 -13.475   5.262  0.00  0.00    +0.173 HD
ATOM     34  C   LIG    1       28.396 -12.596   3.524  0.00  0.00    +0.254 C 
ATOM     35  O   LIG    1       29.473 -12.081   3.233  0.00  0.00    -0.268 OA
ATOM     36  C   LIG    1       27.220 -12.439   2.671  0.00  0.00    +0.088 C 
ATOM     37  C   LIG    1       26.027 -12.931   3.081  0.00  0.00    +0.098 C 
ENDBRANCH  27  29
BRANCH  23  38
ATOM     38  O   LIG    1       22.096 -14.244   6.318  0.00  0.00    -0.386 OA
ATOM     39  H   LIG    1       22.407 -15.058   6.765  0.00  0.00    +0.210 HD
ENDBRANCH  23  38
ENDBRANCH  21  22
ENDBRANCH   1  21
TORSDOF 12
ENDMDL
