MODEL 1
REMARK VINA RESULT:       0.1      0.000      0.000
REMARK  Name = *****
REMARK                            x       y       z     vdW  Elec       q    Type
REMARK                         _______ _______ _______ _____ _____    ______ ____
ROOT
ATOM      1  O   LIG    1       24.570 -19.225   3.020  0.00  0.00    -0.252 OA
ATOM      2  C   LIG    1       24.694 -18.054   3.355  0.00  0.00    +0.306 C 
ATOM      3  N   LIG    1       23.672 -17.193   3.785  0.00  0.00    -0.272 N 
ATOM      4  C   LIG    1       24.282 -16.098   4.530  0.00  0.00    +0.152 C 
ATOM      5  C   LIG    1       23.624 -14.736   4.456  0.00  0.00    +0.302 C 
ATOM      6  S   LIG    1       23.977 -14.064   2.803  0.00  0.00    -0.004 S 
ATOM      7  C   LIG    1       25.591 -14.993   2.713  0.00  0.00    +0.230 C 
ATOM      8  C   LIG    1       26.681 -13.920   2.743  0.00  0.00    +0.064 C 
ATOM      9  C   LIG    1       26.222 -12.855   3.726  0.00  0.00    +0.059 C 
ATOM     10  C   LIG    1       24.795 -12.519   3.332  0.00  0.00    +0.278 C 
ATOM     11  C   LIG    1       25.672 -15.984   3.903  0.00  0.00    +0.155 C 
ATOM     12  N   LIG    1       25.899 -17.353   3.465  0.00  0.00    -0.271 N 
ENDROOT
BRANCH   3  13
ATOM     13  C   LIG    1       22.343 -17.691   4.077  0.00  0.00    +0.145 C 
BRANCH  13  14
ATOM     14  C   LIG    1       22.345 -19.034   4.768  0.00  0.00    -0.030 A 
ATOM     15  C   LIG    1       21.635 -20.119   4.233  0.00  0.00    +0.005 A 
ATOM     16  C   LIG    1       21.683 -21.374   4.846  0.00  0.00    +0.000 A 
ATOM     17  C   LIG    1       22.432 -21.558   6.007  0.00  0.00    +0.000 A 
ATOM     18  C   LIG    1       23.127 -20.486   6.559  0.00  0.00    +0.000 A 
ATOM     19  C   LIG    1       23.080 -19.232   5.946  0.00  0.00    +0.005 A 
ENDBRANCH  13  14
ENDBRANCH   3  13
BRANCH  12  20
ATOM     20  C   LIG    1       27.205 -17.973   3.377  0.00  0.00    +0.145 C 
BRANCH  20  21
ATOM     21  C   LIG    1       27.581 -18.709   4.645  0.00  0.00    -0.030 A 
ATOM     22  C   LIG    1       26.746 -19.699   5.186  0.00  0.00    +0.005 A 
ATOM     23  C   LIG    1       27.105 -20.371   6.358  0.00  0.00    +0.000 A 
ATOM     24  C   LIG    1       28.304 -20.068   6.999  0.00  0.00    +0.000 A 
ATOM     25  C   LIG    1       29.148 -19.095   6.466  0.00  0.00    +0.000 A 
ATOM     26  C   LIG    1       28.790 -18.421   5.297  0.00  0.00    +0.005 A 
ENDBRANCH  20  21
ENDBRANCH  12  20
TORSDOF 4
ENDMDL
MODEL 2
REMARK VINA RESULT:       2.6      1.825      5.453
REMARK  Name = *****
REMARK                            x       y       z     vdW  Elec       q    Type
REMARK                         _______ _______ _______ _____ _____    ______ ____
ROOT
ATOM      1  O   LIG    1       25.707 -15.526   4.084  0.00  0.00    -0.252 OA
ATOM      2  C   LIG    1       25.007 -16.525   3.986  0.00  0.00    +0.306 C 
ATOM      3  N   LIG    1       23.606 -16.579   4.053  0.00  0.00    -0.272 N 
ATOM      4  C   LIG    1       23.165 -17.815   3.419  0.00  0.00    +0.152 C 
ATOM      5  C   LIG    1       21.923 -18.488   3.964  0.00  0.00    +0.302 C 
ATOM      6  S   LIG    1       22.380 -19.240   5.556  0.00  0.00    -0.004 S 
ATOM      7  C   LIG    1       24.138 -19.496   4.990  0.00  0.00    +0.230 C 
ATOM      8  C   LIG    1       24.316 -21.012   4.886  0.00  0.00    +0.064 C 
ATOM      9  C   LIG    1       23.019 -21.569   4.321  0.00  0.00    +0.059 C 
ATOM     10  C   LIG    1       21.910 -20.961   5.162  0.00  0.00    +0.278 C 
ATOM     11  C   LIG    1       24.348 -18.759   3.642  0.00  0.00    +0.155 C 
ATOM     12  N   LIG    1       25.456 -17.818   3.696  0.00  0.00    -0.271 N 
ENDROOT
BRANCH   3  13
ATOM     13  C   LIG    1       22.807 -15.370   4.046  0.00  0.00    +0.145 C 
BRANCH  13  14
ATOM     14  C   LIG    1       23.598 -14.132   3.691  0.00  0.00    -0.030 A 
ATOM     15  C   LIG    1       23.936 -13.853   2.359  0.00  0.00    +0.005 A 
ATOM     16  C   LIG    1       24.621 -12.680   2.028  0.00  0.00    +0.000 A 
ATOM     17  C   LIG    1       24.985 -11.777   3.026  0.00  0.00    +0.000 A 
ATOM     18  C   LIG    1       24.672 -12.051   4.355  0.00  0.00    +0.000 A 
ATOM     19  C   LIG    1       23.987 -13.222   4.685  0.00  0.00    +0.005 A 
ENDBRANCH  13  14
ENDBRANCH   3  13
BRANCH  12  20
ATOM     20  C   LIG    1       26.809 -18.129   3.281  0.00  0.00    +0.145 C 
BRANCH  20  21
ATOM     21  C   LIG    1       27.678 -18.579   4.435  0.00  0.00    -0.030 A 
ATOM     22  C   LIG    1       28.678 -17.745   4.960  0.00  0.00    +0.005 A 
ATOM     23  C   LIG    1       29.475 -18.171   6.026  0.00  0.00    +0.000 A 
ATOM     24  C   LIG    1       29.278 -19.432   6.585  0.00  0.00    +0.000 A 
ATOM     25  C   LIG    1       28.282 -20.266   6.081  0.00  0.00    +0.000 A 
ATOM     26  C   LIG    1       27.486 -19.842   5.015  0.00  0.00    +0.005 A 
ENDBRANCH  20  21
ENDBRANCH  12  20
TORSDOF 4
ENDMDL
MODEL 3
REMARK VINA RESULT:       2.9      1.874      6.044
REMARK  Name = *****
REMARK                            x       y       z     vdW  Elec       q    Type
REMARK                         _______ _______ _______ _____ _____    ______ ____
ROOT
ATOM      1  O   LIG    1       26.218 -16.756   2.937  0.00  0.00    -0.252 OA
ATOM      2  C   LIG    1       25.427 -17.533   3.454  0.00  0.00    +0.306 C 
ATOM      3  N   LIG    1       25.636 -18.897   3.709  0.00  0.00    -0.272 N 
ATOM      4  C   LIG    1       24.693 -19.320   4.737  0.00  0.00    +0.152 C 
ATOM      5  C   LIG    1       24.170 -20.740   4.680  0.00  0.00    +0.302 C 
ATOM      6  S   LIG    1       22.994 -20.819   3.294  0.00  0.00    -0.004 S 
ATOM      7  C   LIG    1       22.535 -19.025   3.514  0.00  0.00    +0.230 C 
ATOM      8  C   LIG    1       21.081 -19.031   3.986  0.00  0.00    +0.064 C 
ATOM      9  C   LIG    1       20.936 -20.199   4.949  0.00  0.00    +0.059 C 
ATOM     10  C   LIG    1       21.540 -21.397   4.236  0.00  0.00    +0.278 C 
ATOM     11  C   LIG    1       23.509 -18.374   4.530  0.00  0.00    +0.155 C 
ATOM     12  N   LIG    1       24.175 -17.202   3.981  0.00  0.00    -0.271 N 
ENDROOT
BRANCH   3  13
ATOM     13  C   LIG    1       26.947 -19.497   3.559  0.00  0.00    +0.145 C 
BRANCH  13  14
ATOM     14  C   LIG    1       27.802 -19.385   4.799  0.00  0.00    -0.030 A 
ATOM     15  C   LIG    1       27.794 -20.397   5.771  0.00  0.00    +0.005 A 
ATOM     16  C   LIG    1       28.626 -20.317   6.891  0.00  0.00    +0.000 A 
ATOM     17  C   LIG    1       29.470 -19.220   7.059  0.00  0.00    +0.000 A 
ATOM     18  C   LIG    1       29.475 -18.199   6.112  0.00  0.00    +0.000 A 
ATOM     19  C   LIG    1       28.644 -18.280   4.992  0.00  0.00    +0.005 A 
ENDBRANCH  13  14
ENDBRANCH   3  13
BRANCH  12  20
ATOM     20  C   LIG    1       23.708 -15.843   4.163  0.00  0.00    +0.145 C 
BRANCH  20  21
ATOM     21  C   LIG    1       24.778 -14.819   3.848  0.00  0.00    -0.030 A 
ATOM     22  C   LIG    1       24.731 -14.058   2.669  0.00  0.00    +0.005 A 
ATOM     23  C   LIG    1       25.725 -13.116   2.389  0.00  0.00    +0.000 A 
ATOM     24  C   LIG    1       26.772 -12.916   3.286  0.00  0.00    +0.000 A 
ATOM     25  C   LIG    1       26.824 -13.656   4.466  0.00  0.00    +0.000 A 
ATOM     26  C   LIG    1       25.833 -14.600   4.746  0.00  0.00    +0.005 A 
ENDBRANCH  20  21
ENDBRANCH  12  20
TORSDOF 4
ENDMDL
MODEL 4
REMARK VINA RESULT:       3.0      1.779      5.444
REMARK  Name = *****
REMARK                            x       y       z     vdW  Elec       q    Type
REMARK                         _______ _______ _______ _____ _____    ______ ____
ROOT
ATOM      1  O   LIG    1       25.883 -15.637   4.139  0.00  0.00    -0.252 OA
ATOM      2  C   LIG    1       25.146 -16.608   4.030  0.00  0.00    +0.306 C 
ATOM      3  N   LIG    1       23.743 -16.607   4.090  0.00  0.00    -0.272 N 
ATOM      4  C   LIG    1       23.257 -17.820   3.446  0.00  0.00    +0.152 C 
ATOM      5  C   LIG    1       21.986 -18.447   3.979  0.00  0.00    +0.302 C 
ATOM      6  S   LIG    1       22.404 -19.226   5.569  0.00  0.00    -0.004 S 
ATOM      7  C   LIG    1       24.154 -19.548   5.011  0.00  0.00    +0.230 C 
ATOM      8  C   LIG    1       24.272 -21.069   4.899  0.00  0.00    +0.064 C 
ATOM      9  C   LIG    1       22.957 -21.571   4.324  0.00  0.00    +0.059 C 
ATOM     10  C   LIG    1       21.868 -20.924   5.162  0.00  0.00    +0.278 C 
ATOM     11  C   LIG    1       24.400 -18.812   3.669  0.00  0.00    +0.155 C 
ATOM     12  N   LIG    1       25.545 -17.916   3.735  0.00  0.00    -0.271 N 
ENDROOT
BRANCH   3  13
ATOM     13  C   LIG    1       22.993 -15.366   4.085  0.00  0.00    +0.145 C 
BRANCH  13  14
ATOM     14  C   LIG    1       23.817 -14.170   3.671  0.00  0.00    -0.030 A 
ATOM     15  C   LIG    1       24.121 -13.154   4.590  0.00  0.00    +0.005 A 
ATOM     16  C   LIG    1       24.929 -12.075   4.218  0.00  0.00    +0.000 A 
ATOM     17  C   LIG    1       25.433 -11.993   2.921  0.00  0.00    +0.000 A 
ATOM     18  C   LIG    1       25.123 -12.984   1.994  0.00  0.00    +0.000 A 
ATOM     19  C   LIG    1       24.318 -14.062   2.365  0.00  0.00    +0.005 A 
ENDBRANCH  13  14
ENDBRANCH   3  13
BRANCH  12  20
ATOM     20  C   LIG    1       26.886 -18.277   3.325  0.00  0.00    +0.145 C 
BRANCH  20  21
ATOM     21  C   LIG    1       27.753 -18.699   4.492  0.00  0.00    -0.030 A 
ATOM     22  C   LIG    1       27.672 -19.996   5.026  0.00  0.00    +0.005 A 
ATOM     23  C   LIG    1       28.477 -20.373   6.104  0.00  0.00    +0.000 A 
ATOM     24  C   LIG    1       29.377 -19.464   6.657  0.00  0.00    +0.000 A 
ATOM     25  C   LIG    1       29.475 -18.178   6.130  0.00  0.00    +0.000 A 
ATOM     26  C   LIG    1       28.670 -17.798   5.054  0.00  0.00    +0.005 A 
ENDBRANCH  20  21
ENDBRANCH  12  20
TORSDOF 4
ENDMDL
