MODEL 1
REMARK VINA RESULT:      -7.4      0.000      0.000
REMARK  Name = *****
REMARK                            x       y       z     vdW  Elec       q    Type
REMARK                         _______ _______ _______ _____ _____    ______ ____
ROOT
ATOM      1  C   LIG    1       26.087 -21.408   6.662  0.00  0.00    -0.015 A 
ATOM      2  C   LIG    1       25.786 -20.463   5.671  0.00  0.00    +0.028 A 
ATOM      3  C   LIG    1       24.536 -20.457   5.038  0.00  0.00    +0.063 A 
ATOM      4 CL   LIG    1       24.235 -19.242   3.844  0.00  0.00    -0.082 Cl
ATOM      5  C   LIG    1       23.558 -21.425   5.339  0.00  0.00    +0.062 A 
ATOM      6  C   LIG    1       23.853 -22.339   6.361  0.00  0.00    +0.063 A 
ATOM      7 CL   LIG    1       22.686 -23.524   6.848  0.00  0.00    -0.082 Cl
ATOM      8  C   LIG    1       25.097 -22.345   7.001  0.00  0.00    +0.028 A 
ENDROOT
BRANCH   5   9
ATOM      9  N   LIG    1       22.256 -21.335   4.794  0.00  0.00    -0.356 N 
ATOM     10  H   LIG    1       21.653 -20.693   5.299  0.00  0.00    +0.142 HD
ATOM     11  H   LIG    1       22.263 -21.177   3.787  0.00  0.00    +0.142 HD
ENDBRANCH   5   9
BRANCH   1  12
ATOM     12  C   LIG    1       27.448 -21.419   7.337  0.00  0.00    +0.158 C 
BRANCH  12  13
ATOM     13  O   LIG    1       27.322 -21.628   8.748  0.00  0.00    -0.386 OA
ATOM     14  H   LIG    1       27.042 -20.766   9.115  0.00  0.00    +0.210 HD
ENDBRANCH  12  13
BRANCH  12  15
ATOM     15  C   LIG    1       28.294 -20.141   7.093  0.00  0.00    +0.117 C 
BRANCH  15  16
ATOM     16  N   LIG    1       28.929 -19.646   8.331  0.00  0.00    -0.309 NA
ATOM     17  H   LIG    1       28.601 -18.693   8.508  0.00  0.00    +0.122 HD
BRANCH  16  19
ATOM     18  C   LIG    1       30.850 -19.334   6.865  0.00  0.00    +0.027 C 
ATOM     19  C   LIG    1       30.409 -19.640   8.312  0.00  0.00    +0.011 C 
ATOM     20  C   LIG    1       30.970 -18.538   9.226  0.00  0.00    +0.027 C 
ATOM     21  C   LIG    1       30.997 -21.006   8.707  0.00  0.00    +0.027 C 
ENDBRANCH  16  19
ENDBRANCH  15  16
ENDBRANCH  12  15
ENDBRANCH   1  12
TORSDOF 6
ENDMDL
MODEL 2
REMARK VINA RESULT:      -7.4      0.055      2.205
REMARK  Name = *****
REMARK                            x       y       z     vdW  Elec       q    Type
REMARK                         _______ _______ _______ _____ _____    ______ ____
ROOT
ATOM      1  C   LIG    1       26.110 -21.423   6.655  0.00  0.00    -0.015 A 
ATOM      2  C   LIG    1       25.123 -22.353   7.007  0.00  0.00    +0.028 A 
ATOM      3  C   LIG    1       23.862 -22.330   6.395  0.00  0.00    +0.063 A 
ATOM      4 CL   LIG    1       22.706 -23.528   6.868  0.00  0.00    -0.082 Cl
ATOM      5  C   LIG    1       23.529 -21.348   5.442  0.00  0.00    +0.062 A 
ATOM      6  C   LIG    1       24.537 -20.450   5.066  0.00  0.00    +0.063 A 
ATOM      7 CL   LIG    1       24.242 -19.249   3.852  0.00  0.00    -0.082 Cl
ATOM      8  C   LIG    1       25.799 -20.472   5.669  0.00  0.00    +0.028 A 
ENDROOT
BRANCH   5   9
ATOM      9  N   LIG    1       22.305 -21.409   4.735  0.00  0.00    -0.356 N 
ATOM     10  H   LIG    1       22.110 -22.328   4.349  0.00  0.00    +0.142 HD
ATOM     11  H   LIG    1       21.526 -21.018   5.265  0.00  0.00    +0.142 HD
ENDBRANCH   5   9
BRANCH   1  12
ATOM     12  C   LIG    1       27.472 -21.444   7.330  0.00  0.00    +0.158 C 
BRANCH  12  13
ATOM     13  O   LIG    1       27.343 -21.630   8.744  0.00  0.00    -0.386 OA
ATOM     14  H   LIG    1       26.406 -21.440   8.948  0.00  0.00    +0.210 HD
ENDBRANCH  12  13
BRANCH  12  15
ATOM     15  C   LIG    1       28.336 -20.183   7.067  0.00  0.00    +0.117 C 
BRANCH  15  16
ATOM     16  N   LIG    1       28.940 -19.650   8.305  0.00  0.00    -0.309 NA
ATOM     17  H   LIG    1       28.614 -18.689   8.440  0.00  0.00    +0.122 HD
BRANCH  16  19
ATOM     18  C   LIG    1       30.904 -19.323   6.902  0.00  0.00    +0.027 C 
ATOM     19  C   LIG    1       30.420 -19.655   8.329  0.00  0.00    +0.011 C 
ATOM     20  C   LIG    1       30.962 -18.577   9.281  0.00  0.00    +0.027 C 
ATOM     21  C   LIG    1       30.986 -21.034   8.712  0.00  0.00    +0.027 C 
ENDBRANCH  16  19
ENDBRANCH  15  16
ENDBRANCH  12  15
ENDBRANCH   1  12
TORSDOF 6
ENDMDL
MODEL 3
REMARK VINA RESULT:      -7.2      1.705      2.126
REMARK  Name = *****
REMARK                            x       y       z     vdW  Elec       q    Type
REMARK                         _______ _______ _______ _____ _____    ______ ____
ROOT
ATOM      1  C   LIG    1       26.286 -21.238   6.540  0.00  0.00    -0.015 A 
ATOM      2  C   LIG    1       25.033 -20.751   6.144  0.00  0.00    +0.028 A 
ATOM      3  C   LIG    1       23.928 -21.606   6.040  0.00  0.00    +0.063 A 
ATOM      4 CL   LIG    1       22.411 -20.921   5.568  0.00  0.00    -0.082 Cl
ATOM      5  C   LIG    1       24.046 -22.987   6.286  0.00  0.00    +0.062 A 
ATOM      6  C   LIG    1       25.292 -23.458   6.724  0.00  0.00    +0.063 A 
ATOM      7 CL   LIG    1       25.516 -25.131   7.115  0.00  0.00    -0.082 Cl
ATOM      8  C   LIG    1       26.397 -22.607   6.834  0.00  0.00    +0.028 A 
ENDROOT
BRANCH   5   9
ATOM      9  N   LIG    1       22.903 -23.821   6.307  0.00  0.00    -0.356 N 
ATOM     10  H   LIG    1       22.318 -23.678   7.126  0.00  0.00    +0.142 HD
ATOM     11  H   LIG    1       22.384 -23.798   5.430  0.00  0.00    +0.142 HD
ENDBRANCH   5   9
BRANCH   1  12
ATOM     12  C   LIG    1       27.485 -20.310   6.639  0.00  0.00    +0.158 C 
BRANCH  12  13
ATOM     13  O   LIG    1       28.096 -20.120   5.357  0.00  0.00    -0.386 OA
ATOM     14  H   LIG    1       29.024 -19.873   5.546  0.00  0.00    +0.210 HD
ENDBRANCH  12  13
BRANCH  12  15
ATOM     15  C   LIG    1       28.569 -20.769   7.649  0.00  0.00    +0.117 C 
BRANCH  15  16
ATOM     16  N   LIG    1       29.149 -19.637   8.399  0.00  0.00    -0.309 NA
ATOM     17  H   LIG    1       28.795 -18.764   7.999  0.00  0.00    +0.122 HD
BRANCH  16  19
ATOM     18  C   LIG    1       31.133 -20.983   8.830  0.00  0.00    +0.027 C 
ATOM     19  C   LIG    1       30.629 -19.587   8.408  0.00  0.00    +0.011 C 
ATOM     20  C   LIG    1       31.181 -19.283   7.006  0.00  0.00    +0.027 C 
ATOM     21  C   LIG    1       31.165 -18.562   9.422  0.00  0.00    +0.027 C 
ENDBRANCH  16  19
ENDBRANCH  15  16
ENDBRANCH  12  15
ENDBRANCH   1  12
TORSDOF 6
ENDMDL
MODEL 4
REMARK VINA RESULT:      -7.2      1.706      2.732
REMARK  Name = *****
REMARK                            x       y       z     vdW  Elec       q    Type
REMARK                         _______ _______ _______ _____ _____    ______ ____
ROOT
ATOM      1  C   LIG    1       26.272 -21.228   6.531  0.00  0.00    -0.015 A 
ATOM      2  C   LIG    1       26.398 -22.587   6.851  0.00  0.00    +0.028 A 
ATOM      3  C   LIG    1       25.295 -23.449   6.778  0.00  0.00    +0.063 A 
ATOM      4 CL   LIG    1       25.540 -25.118   7.165  0.00  0.00    -0.082 Cl
ATOM      5  C   LIG    1       24.016 -22.973   6.428  0.00  0.00    +0.062 A 
ATOM      6  C   LIG    1       23.910 -21.622   6.069  0.00  0.00    +0.063 A 
ATOM      7 CL   LIG    1       22.391 -20.962   5.559  0.00  0.00    -0.082 Cl
ATOM      8  C   LIG    1       25.009 -20.759   6.134  0.00  0.00    +0.028 A 
ENDROOT
BRANCH   5   9
ATOM      9  N   LIG    1       22.939 -23.868   6.230  0.00  0.00    -0.356 N 
ATOM     10  H   LIG    1       23.202 -24.843   6.339  0.00  0.00    +0.142 HD
ATOM     11  H   LIG    1       22.111 -23.609   6.766  0.00  0.00    +0.142 HD
ENDBRANCH   5   9
BRANCH   1  12
ATOM     12  C   LIG    1       27.467 -20.295   6.623  0.00  0.00    +0.158 C 
BRANCH  12  13
ATOM     13  O   LIG    1       28.056 -20.082   5.335  0.00  0.00    -0.386 OA
ATOM     14  H   LIG    1       28.761 -19.419   5.478  0.00  0.00    +0.210 HD
ENDBRANCH  12  13
BRANCH  12  15
ATOM     15  C   LIG    1       28.571 -20.764   7.608  0.00  0.00    +0.117 C 
BRANCH  15  16
ATOM     16  N   LIG    1       29.142 -19.643   8.383  0.00  0.00    -0.309 NA
ATOM     17  H   LIG    1       28.789 -18.764   7.994  0.00  0.00    +0.122 HD
BRANCH  16  19
ATOM     18  C   LIG    1       31.125 -20.988   8.822  0.00  0.00    +0.027 C 
ATOM     19  C   LIG    1       30.621 -19.590   8.405  0.00  0.00    +0.011 C 
ATOM     20  C   LIG    1       31.185 -19.275   7.010  0.00  0.00    +0.027 C 
ATOM     21  C   LIG    1       31.146 -18.571   9.432  0.00  0.00    +0.027 C 
ENDBRANCH  16  19
ENDBRANCH  15  16
ENDBRANCH  12  15
ENDBRANCH   1  12
TORSDOF 6
ENDMDL
MODEL 5
REMARK VINA RESULT:      -7.1      3.336      6.379
REMARK  Name = *****
REMARK                            x       y       z     vdW  Elec       q    Type
REMARK                         _______ _______ _______ _____ _____    ______ ____
ROOT
ATOM      1  C   LIG    1       27.583 -21.057   7.625  0.00  0.00    -0.015 A 
ATOM      2  C   LIG    1       27.831 -20.016   6.719  0.00  0.00    +0.028 A 
ATOM      3  C   LIG    1       29.127 -19.512   6.540  0.00  0.00    +0.063 A 
ATOM      4 CL   LIG    1       29.353 -18.244   5.385  0.00  0.00    -0.082 Cl
ATOM      5  C   LIG    1       30.213 -20.000   7.292  0.00  0.00    +0.062 A 
ATOM      6  C   LIG    1       29.962 -21.070   8.163  0.00  0.00    +0.063 A 
ATOM      7 CL   LIG    1       31.248 -21.781   9.081  0.00  0.00    -0.082 Cl
ATOM      8  C   LIG    1       28.671 -21.580   8.342  0.00  0.00    +0.028 A 
ENDROOT
BRANCH   5   9
ATOM      9  N   LIG    1       31.535 -19.581   7.014  0.00  0.00    -0.356 N 
ATOM     10  H   LIG    1       32.163 -20.350   6.799  0.00  0.00    +0.142 HD
ATOM     11  H   LIG    1       31.571 -18.825   6.331  0.00  0.00    +0.142 HD
ENDBRANCH   5   9
BRANCH   1  12
ATOM     12  C   LIG    1       26.175 -21.591   7.826  0.00  0.00    +0.158 C 
BRANCH  12  13
ATOM     13  O   LIG    1       25.675 -21.253   9.125  0.00  0.00    -0.386 OA
ATOM     14  H   LIG    1       26.084 -20.392   9.345  0.00  0.00    +0.210 HD
ENDBRANCH  12  13
BRANCH  12  15
ATOM     15  C   LIG    1       26.035 -23.122   7.617  0.00  0.00    +0.117 C 
BRANCH  15  16
ATOM     16  N   LIG    1       25.739 -23.470   6.212  0.00  0.00    -0.309 NA
ATOM     17  H   LIG    1       25.171 -22.723   5.803  0.00  0.00    +0.122 HD
BRANCH  16  19
ATOM     18  C   LIG    1       25.770 -25.814   6.872  0.00  0.00    +0.027 C 
ATOM     19  C   LIG    1       25.033 -24.757   6.024  0.00  0.00    +0.011 C 
ATOM     20  C   LIG    1       23.581 -24.671   6.524  0.00  0.00    +0.027 C 
ATOM     21  C   LIG    1       25.061 -25.222   4.558  0.00  0.00    +0.027 C 
ENDBRANCH  16  19
ENDBRANCH  15  16
ENDBRANCH  12  15
ENDBRANCH   1  12
TORSDOF 6
ENDMDL
MODEL 6
REMARK VINA RESULT:      -7.1      3.334      6.648
REMARK  Name = *****
REMARK                            x       y       z     vdW  Elec       q    Type
REMARK                         _______ _______ _______ _____ _____    ______ ____
ROOT
ATOM      1  C   LIG    1       27.598 -20.997   7.617  0.00  0.00    -0.015 A 
ATOM      2  C   LIG    1       28.685 -21.506   8.340  0.00  0.00    +0.028 A 
ATOM      3  C   LIG    1       29.978 -21.002   8.147  0.00  0.00    +0.063 A 
ATOM      4 CL   LIG    1       31.261 -21.667   9.098  0.00  0.00    -0.082 Cl
ATOM      5  C   LIG    1       30.238 -20.001   7.191  0.00  0.00    +0.062 A 
ATOM      6  C   LIG    1       29.138 -19.468   6.503  0.00  0.00    +0.063 A 
ATOM      7 CL   LIG    1       29.350 -18.187   5.356  0.00  0.00    -0.082 Cl
ATOM      8  C   LIG    1       27.844 -19.965   6.697  0.00  0.00    +0.028 A 
ENDROOT
BRANCH   5   9
ATOM      9  N   LIG    1       31.517 -19.406   7.093  0.00  0.00    -0.356 N 
ATOM     10  H   LIG    1       31.588 -18.524   7.593  0.00  0.00    +0.142 HD
ATOM     11  H   LIG    1       32.270 -20.057   7.311  0.00  0.00    +0.142 HD
ENDBRANCH   5   9
BRANCH   1  12
ATOM     12  C   LIG    1       26.200 -21.556   7.820  0.00  0.00    +0.158 C 
BRANCH  12  13
ATOM     13  O   LIG    1       25.692 -21.217   9.116  0.00  0.00    -0.386 OA
ATOM     14  H   LIG    1       25.808 -22.022   9.659  0.00  0.00    +0.210 HD
ENDBRANCH  12  13
BRANCH  12  15
ATOM     15  C   LIG    1       26.089 -23.092   7.624  0.00  0.00    +0.117 C 
BRANCH  15  16
ATOM     16  N   LIG    1       25.746 -23.454   6.234  0.00  0.00    -0.309 NA
ATOM     17  H   LIG    1       25.164 -22.712   5.836  0.00  0.00    +0.122 HD
BRANCH  16  19
ATOM     18  C   LIG    1       25.032 -25.095   4.581  0.00  0.00    +0.027 C 
ATOM     19  C   LIG    1       25.035 -24.744   6.083  0.00  0.00    +0.011 C 
ATOM     20  C   LIG    1       25.762 -25.869   6.836  0.00  0.00    +0.027 C 
ATOM     21  C   LIG    1       23.572 -24.653   6.551  0.00  0.00    +0.027 C 
ENDBRANCH  16  19
ENDBRANCH  15  16
ENDBRANCH  12  15
ENDBRANCH   1  12
TORSDOF 6
ENDMDL
MODEL 7
REMARK VINA RESULT:      -6.9      2.945      6.419
REMARK  Name = *****
REMARK                            x       y       z     vdW  Elec       q    Type
REMARK                         _______ _______ _______ _____ _____    ______ ____
ROOT
ATOM      1  C   LIG    1       27.490 -21.105   7.088  0.00  0.00    -0.015 A 
ATOM      2  C   LIG    1       27.824 -20.013   6.275  0.00  0.00    +0.028 A 
ATOM      3  C   LIG    1       29.105 -19.446   6.324  0.00  0.00    +0.063 A 
ATOM      4 CL   LIG    1       29.446 -18.116   5.270  0.00  0.00    -0.082 Cl
ATOM      5  C   LIG    1       30.082 -19.922   7.219  0.00  0.00    +0.062 A 
ATOM      6  C   LIG    1       29.752 -21.041   7.996  0.00  0.00    +0.063 A 
ATOM      7 CL   LIG    1       30.912 -21.739   9.077  0.00  0.00    -0.082 Cl
ATOM      8  C   LIG    1       28.477 -21.615   7.947  0.00  0.00    +0.028 A 
ENDROOT
BRANCH   5   9
ATOM      9  N   LIG    1       31.409 -19.433   7.171  0.00  0.00    -0.356 N 
ATOM     10  H   LIG    1       31.922 -19.745   6.351  0.00  0.00    +0.142 HD
ATOM     11  H   LIG    1       31.462 -18.426   7.323  0.00  0.00    +0.142 HD
ENDBRANCH   5   9
BRANCH   1  12
ATOM     12  C   LIG    1       26.096 -21.709   7.041  0.00  0.00    +0.158 C 
BRANCH  12  13
ATOM     13  O   LIG    1       26.145 -23.133   7.191  0.00  0.00    -0.386 OA
ATOM     14  H   LIG    1       25.296 -23.461   6.832  0.00  0.00    +0.210 HD
ENDBRANCH  12  13
BRANCH  12  15
ATOM     15  C   LIG    1       25.292 -21.366   5.759  0.00  0.00    +0.117 C 
BRANCH  15  16
ATOM     16  N   LIG    1       24.139 -20.487   6.040  0.00  0.00    -0.309 NA
ATOM     17  H   LIG    1       23.663 -20.830   6.878  0.00  0.00    +0.122 HD
BRANCH  16  19
ATOM     18  C   LIG    1       23.901 -20.653   3.621  0.00  0.00    +0.027 C 
ATOM     19  C   LIG    1       23.151 -20.385   4.943  0.00  0.00    +0.011 C 
ATOM     20  C   LIG    1       22.048 -21.446   5.090  0.00  0.00    +0.027 C 
ATOM     21  C   LIG    1       22.527 -18.981   4.857  0.00  0.00    +0.027 C 
ENDBRANCH  16  19
ENDBRANCH  15  16
ENDBRANCH  12  15
ENDBRANCH   1  12
TORSDOF 6
ENDMDL
MODEL 8
REMARK VINA RESULT:      -6.8      2.929      6.670
REMARK  Name = *****
REMARK                            x       y       z     vdW  Elec       q    Type
REMARK                         _______ _______ _______ _____ _____    ______ ____
ROOT
ATOM      1  C   LIG    1       27.404 -21.100   7.158  0.00  0.00    -0.015 A 
ATOM      2  C   LIG    1       28.401 -21.630   7.988  0.00  0.00    +0.028 A 
ATOM      3  C   LIG    1       29.700 -21.104   7.977  0.00  0.00    +0.063 A 
ATOM      4 CL   LIG    1       30.867 -21.798   9.050  0.00  0.00    -0.082 Cl
ATOM      5  C   LIG    1       30.060 -20.060   7.104  0.00  0.00    +0.062 A 
ATOM      6  C   LIG    1       29.045 -19.509   6.309  0.00  0.00    +0.063 A 
ATOM      7 CL   LIG    1       29.376 -18.176   5.252  0.00  0.00    -0.082 Cl
ATOM      8  C   LIG    1       27.745 -20.026   6.320  0.00  0.00    +0.028 A 
ENDROOT
BRANCH   5   9
ATOM      9  N   LIG    1       31.333 -19.448   7.190  0.00  0.00    -0.356 N 
ATOM     10  H   LIG    1       31.552 -19.109   8.122  0.00  0.00    +0.142 HD
ATOM     11  H   LIG    1       32.071 -20.019   6.782  0.00  0.00    +0.142 HD
ENDBRANCH   5   9
BRANCH   1  12
ATOM     12  C   LIG    1       26.000 -21.682   7.163  0.00  0.00    +0.158 C 
BRANCH  12  13
ATOM     13  O   LIG    1       26.026 -23.090   7.431  0.00  0.00    -0.386 OA
ATOM     14  H   LIG    1       26.891 -23.401   7.098  0.00  0.00    +0.210 HD
ENDBRANCH  12  13
BRANCH  12  15
ATOM     15  C   LIG    1       25.199 -21.434   5.858  0.00  0.00    +0.117 C 
BRANCH  15  16
ATOM     16  N   LIG    1       24.098 -20.469   6.053  0.00  0.00    -0.309 NA
ATOM     17  H   LIG    1       23.537 -20.770   6.854  0.00  0.00    +0.122 HD
BRANCH  16  19
ATOM     18  C   LIG    1       22.079 -21.352   5.014  0.00  0.00    +0.027 C 
ATOM     19  C   LIG    1       23.202 -20.302   4.886  0.00  0.00    +0.011 C 
ATOM     20  C   LIG    1       22.554 -18.908   4.880  0.00  0.00    +0.027 C 
ATOM     21  C   LIG    1       23.935 -20.552   3.556  0.00  0.00    +0.027 C 
ENDBRANCH  16  19
ENDBRANCH  15  16
ENDBRANCH  12  15
ENDBRANCH   1  12
TORSDOF 6
ENDMDL
MODEL 9
REMARK VINA RESULT:      -6.6      3.240      6.113
REMARK  Name = *****
REMARK                            x       y       z     vdW  Elec       q    Type
REMARK                         _______ _______ _______ _____ _____    ______ ____
ROOT
ATOM      1  C   LIG    1       24.808 -21.525   6.268  0.00  0.00    -0.015 A 
ATOM      2  C   LIG    1       26.044 -21.666   6.914  0.00  0.00    +0.028 A 
ATOM      3  C   LIG    1       27.157 -20.917   6.507  0.00  0.00    +0.063 A 
ATOM      4 CL   LIG    1       28.640 -21.130   7.372  0.00  0.00    -0.082 Cl
ATOM      5  C   LIG    1       27.085 -20.035   5.412  0.00  0.00    +0.062 A 
ATOM      6  C   LIG    1       25.834 -19.870   4.801  0.00  0.00    +0.063 A 
ATOM      7 CL   LIG    1       25.633 -18.756   3.489  0.00  0.00    -0.082 Cl
ATOM      8  C   LIG    1       24.719 -20.611   5.206  0.00  0.00    +0.028 A 
ENDROOT
BRANCH   5   9
ATOM      9  N   LIG    1       28.172 -19.188   5.090  0.00  0.00    -0.356 N 
ATOM     10  H   LIG    1       28.148 -18.851   4.132  0.00  0.00    +0.142 HD
ATOM     11  H   LIG    1       28.308 -18.447   5.777  0.00  0.00    +0.142 HD
ENDBRANCH   5   9
BRANCH   1  12
ATOM     12  C   LIG    1       23.607 -22.349   6.704  0.00  0.00    +0.158 C 
BRANCH  12  13
ATOM     13  O   LIG    1       22.882 -21.691   7.749  0.00  0.00    -0.386 OA
ATOM     14  H   LIG    1       22.019 -21.451   7.356  0.00  0.00    +0.210 HD
ENDBRANCH  12  13
BRANCH  12  15
ATOM     15  C   LIG    1       23.952 -23.790   7.163  0.00  0.00    +0.117 C 
BRANCH  15  16
ATOM     16  N   LIG    1       23.610 -24.800   6.141  0.00  0.00    -0.309 NA
ATOM     17  H   LIG    1       22.799 -25.333   6.466  0.00  0.00    +0.122 HD
BRANCH  16  19
ATOM     18  C   LIG    1       25.883 -25.430   6.748  0.00  0.00    +0.027 C 
ATOM     19  C   LIG    1       24.698 -25.748   5.812  0.00  0.00    +0.011 C 
ATOM     20  C   LIG    1       24.264 -27.200   6.066  0.00  0.00    +0.027 C 
ATOM     21  C   LIG    1       25.185 -25.586   4.361  0.00  0.00    +0.027 C 
ENDBRANCH  16  19
ENDBRANCH  15  16
ENDBRANCH  12  15
ENDBRANCH   1  12
TORSDOF 6
ENDMDL
