MODEL 1
REMARK VINA RESULT:       5.2      0.000      0.000
REMARK  Name = *****
REMARK                            x       y       z     vdW  Elec       q    Type
REMARK                         _______ _______ _______ _____ _____    ______ ____
ROOT
ATOM      1  C   LIG    1       25.586 -13.730   1.855  0.00  0.00    +0.044 C 
ATOM      2  C   LIG    1       24.689 -14.797   2.504  0.00  0.00    +0.006 C 
ATOM      3  C   LIG    1       23.264 -14.338   2.166  0.00  0.00    -0.001 C 
ATOM      4  C   LIG    1       22.351 -14.956   3.227  0.00  0.00    +0.034 C 
ATOM      5  C   LIG    1       23.314 -15.672   4.142  0.00  0.00    -0.073 C 
ATOM      6  C   LIG    1       23.102 -16.840   4.784  0.00  0.00    -0.027 C 
ATOM      7  C   LIG    1       23.314 -12.818   2.224  0.00  0.00    +0.036 C 
ATOM      8  C   LIG    1       24.655 -14.970   4.023  0.00  0.00    +0.035 C 
ATOM      9  C   LIG    1       24.742 -12.425   1.868  0.00  0.00    +0.122 C 
ENDROOT
BRANCH   1  11
ATOM     10  C   LIG    1       27.530 -12.884   3.275  0.00  0.00    +0.000 C 
ATOM     11  C   LIG    1       27.015 -13.707   2.343  0.00  0.00    -0.022 C 
BRANCH  10  12
ATOM     12  C   LIG    1       28.938 -12.819   3.781  0.00  0.00    +0.141 C 
BRANCH  12  13
ATOM     13  C   LIG    1       29.102 -12.923   5.310  0.00  0.00    +0.030 C 
ATOM     14  C   LIG    1       29.205 -11.525   5.943  0.00  0.00    +0.011 C 
BRANCH  13  15
ATOM     15  C   LIG    1       27.936 -13.722   5.926  0.00  0.00    +0.095 C 
BRANCH  15  18
ATOM     16  C   LIG    1       24.333 -11.685   5.816  0.00  0.00    +0.106 C 
ATOM     17  C   LIG    1       25.625 -12.382   5.839  0.00  0.00    -0.106 C 
ATOM     18  C   LIG    1       26.667 -12.963   5.871  0.00  0.00    -0.102 C 
ENDBRANCH  15  18
ENDBRANCH  13  15
ENDBRANCH  12  13
BRANCH  12  19
ATOM     19  O   LIG    1       29.475 -11.592   3.295  0.00  0.00    -0.388 OA
ATOM     20  H   LIG    1       29.960 -11.797   2.477  0.00  0.00    +0.210 HD
ENDBRANCH  12  19
ENDBRANCH  10  12
ENDBRANCH   1  11
BRANCH   9  21
ATOM     21  O   LIG    1       25.123 -11.455   2.835  0.00  0.00    -0.391 OA
ATOM     22  H   LIG    1       24.764 -11.742   3.693  0.00  0.00    +0.210 HD
ENDBRANCH   9  21
BRANCH   6  23
ATOM     23  C   LIG    1       21.836 -17.682   4.783  0.00  0.00    +0.028 C 
BRANCH  23  24
ATOM     24  C   LIG    1       22.132 -19.197   4.705  0.00  0.00    +0.015 C 
BRANCH  24  25
ATOM     25  C   LIG    1       22.689 -19.809   5.997  0.00  0.00    +0.121 C 
BRANCH  25  26
ATOM     26  C   LIG    1       23.831 -20.771   5.713  0.00  0.00    +0.307 C 
ATOM     27  O   LIG    1       23.849 -21.548   4.767  0.00  0.00    -0.251 OA
BRANCH  26  28
ATOM     28  O   LIG    1       24.840 -20.632   6.617  0.00  0.00    -0.457 OA
BRANCH  28  29
ATOM     29  C   LIG    1       25.939 -21.538   6.431  0.00  0.00    +0.311 C 
BRANCH  29  30
ATOM     30  C   LIG    1       27.273 -20.825   6.222  0.00  0.00    +0.200 C 
ATOM     31  O   LIG    1       28.319 -21.218   6.739  0.00  0.00    -0.288 OA
BRANCH  30  32
ATOM     32  C   LIG    1       27.301 -19.618   5.345  0.00  0.00    +0.021 A 
ATOM     33  C   LIG    1       28.315 -18.656   5.430  0.00  0.00    +0.011 A 
ATOM     34  C   LIG    1       28.271 -17.521   4.615  0.00  0.00    +0.001 A 
ATOM     35  C   LIG    1       27.230 -17.354   3.700  0.00  0.00    +0.000 A 
ATOM     36  C   LIG    1       26.230 -18.317   3.599  0.00  0.00    +0.001 A 
ATOM     37  C   LIG    1       26.262 -19.446   4.421  0.00  0.00    +0.011 A 
ENDBRANCH  30  32
ENDBRANCH  29  30
ENDBRANCH  28  29
ENDBRANCH  26  28
ENDBRANCH  25  26
ENDBRANCH  24  25
ENDBRANCH  23  24
ENDBRANCH   6  23
TORSDOF 15
ENDMDL
MODEL 2
REMARK VINA RESULT:       7.6      1.618      2.745
REMARK  Name = *****
REMARK                            x       y       z     vdW  Elec       q    Type
REMARK                         _______ _______ _______ _____ _____    ______ ____
ROOT
ATOM      1  C   LIG    1       24.226 -12.567   3.876  0.00  0.00    +0.044 C 
ATOM      2  C   LIG    1       23.816 -14.048   3.803  0.00  0.00    +0.006 C 
ATOM      3  C   LIG    1       22.438 -14.084   4.478  0.00  0.00    -0.001 C 
ATOM      4  C   LIG    1       22.242 -15.517   4.976  0.00  0.00    +0.034 C 
ATOM      5  C   LIG    1       23.542 -16.194   4.617  0.00  0.00    -0.073 C 
ATOM      6  C   LIG    1       23.704 -17.470   4.212  0.00  0.00    -0.027 C 
ATOM      7  C   LIG    1       22.521 -13.060   5.602  0.00  0.00    +0.036 C 
ATOM      8  C   LIG    1       24.609 -15.114   4.560  0.00  0.00    +0.035 C 
ATOM      9  C   LIG    1       23.532 -12.013   5.150  0.00  0.00    +0.122 C 
ENDROOT
BRANCH   1  11
ATOM     10  C   LIG    1       26.659 -12.241   4.571  0.00  0.00    +0.000 C 
ATOM     11  C   LIG    1       25.692 -12.293   3.637  0.00  0.00    -0.022 C 
BRANCH  10  12
ATOM     12  C   LIG    1       28.119 -11.963   4.383  0.00  0.00    +0.141 C 
BRANCH  12  13
ATOM     13  C   LIG    1       28.874 -12.953   3.476  0.00  0.00    +0.030 C 
ATOM     14  C   LIG    1       29.436 -14.126   4.298  0.00  0.00    +0.011 C 
BRANCH  13  15
ATOM     15  C   LIG    1       27.955 -13.463   2.347  0.00  0.00    +0.095 C 
BRANCH  15  18
ATOM     16  C   LIG    1       26.427 -17.195   3.286  0.00  0.00    +0.106 C 
ATOM     17  C   LIG    1       26.939 -15.862   2.943  0.00  0.00    -0.106 C 
ATOM     18  C   LIG    1       27.373 -14.783   2.674  0.00  0.00    -0.102 C 
ENDBRANCH  15  18
ENDBRANCH  13  15
ENDBRANCH  12  13
BRANCH  12  19
ATOM     19  O   LIG    1       28.686 -11.937   5.690  0.00  0.00    -0.388 OA
ATOM     20  H   LIG    1       27.947 -11.902   6.322  0.00  0.00    +0.210 HD
ENDBRANCH  12  19
ENDBRANCH  10  12
ENDBRANCH   1  11
BRANCH   9  21
ATOM     21  O   LIG    1       24.381 -11.796   6.270  0.00  0.00    -0.391 OA
ATOM     22  H   LIG    1       24.047 -12.346   7.000  0.00  0.00    +0.210 HD
ENDBRANCH   9  21
BRANCH   6  23
ATOM     23  C   LIG    1       22.634 -18.541   4.070  0.00  0.00    +0.028 C 
BRANCH  23  24
ATOM     24  C   LIG    1       23.155 -19.809   3.357  0.00  0.00    +0.015 C 
BRANCH  24  25
ATOM     25  C   LIG    1       23.631 -20.924   4.297  0.00  0.00    +0.121 C 
BRANCH  25  26
ATOM     26  C   LIG    1       22.790 -20.986   5.561  0.00  0.00    +0.307 C 
ATOM     27  O   LIG    1       21.687 -21.514   5.623  0.00  0.00    -0.251 OA
BRANCH  26  28
ATOM     28  O   LIG    1       23.433 -20.414   6.619  0.00  0.00    -0.457 OA
BRANCH  28  29
ATOM     29  C   LIG    1       24.685 -21.030   6.960  0.00  0.00    +0.311 C 
BRANCH  29  30
ATOM     30  C   LIG    1       25.673 -21.061   5.796  0.00  0.00    +0.200 C 
ATOM     31  O   LIG    1       25.397 -21.571   4.711  0.00  0.00    -0.288 OA
BRANCH  30  32
ATOM     32  C   LIG    1       27.012 -20.432   5.987  0.00  0.00    +0.021 A 
ATOM     33  C   LIG    1       27.962 -20.953   6.874  0.00  0.00    +0.011 A 
ATOM     34  C   LIG    1       29.186 -20.299   7.049  0.00  0.00    +0.001 A 
ATOM     35  C   LIG    1       29.474 -19.141   6.325  0.00  0.00    +0.000 A 
ATOM     36  C   LIG    1       28.539 -18.631   5.427  0.00  0.00    +0.001 A 
ATOM     37  C   LIG    1       27.309 -19.271   5.261  0.00  0.00    +0.011 A 
ENDBRANCH  30  32
ENDBRANCH  29  30
ENDBRANCH  28  29
ENDBRANCH  26  28
ENDBRANCH  25  26
ENDBRANCH  24  25
ENDBRANCH  23  24
ENDBRANCH   6  23
TORSDOF 15
ENDMDL
