MODEL 1
REMARK VINA RESULT:      -7.6      0.000      0.000
REMARK  Name = *****
REMARK                            x       y       z     vdW  Elec       q    Type
REMARK                         _______ _______ _______ _____ _____    ______ ____
ROOT
ATOM      1  N   LIG    1       25.113 -21.674   6.851  0.00  0.00    -0.331 N 
ATOM      2  C   LIG    1       26.187 -20.871   6.387  0.00  0.00    +0.147 A 
ATOM      3  C   LIG    1       25.941 -19.985   5.335  0.00  0.00    +0.068 A 
ATOM      4  C   LIG    1       26.964 -19.187   4.851  0.00  0.00    +0.057 A 
ATOM      5  C   LIG    1       28.216 -19.289   5.431  0.00  0.00    +0.164 A 
ATOM      6  C   LIG    1       28.450 -20.166   6.505  0.00  0.00    +0.159 A 
ATOM      7  F   LIG    1       29.171 -18.503   4.915  0.00  0.00    -0.202 F 
ATOM      8  C   LIG    1       24.599 -19.885   4.737  0.00  0.00    +0.205 A 
ATOM      9  O   LIG    1       24.373 -19.112   3.806  0.00  0.00    -0.286 OA
ATOM     10  C   LIG    1       23.515 -20.722   5.285  0.00  0.00    +0.122 A 
ATOM     11  N   LIG    1       27.424 -20.951   6.953  0.00  0.00    -0.211 NA
ATOM     12  C   LIG    1       23.849 -21.544   6.292  0.00  0.00    +0.106 A 
ENDROOT
BRANCH   6  13
ATOM     13  N   LIG    1       29.716 -20.298   7.120  0.00  0.00    -0.310 N 
ATOM     14  C   LIG    1       29.759 -21.313   8.196  0.00  0.00    +0.121 C 
ATOM     15  C   LIG    1       31.172 -21.454   8.811  0.00  0.00    +0.100 C 
ATOM     16  N   LIG    1       31.772 -20.176   9.236  0.00  0.00    -0.313 NA
ATOM     17  H   LIG    1       31.157 -19.745   9.926  0.00  0.00    +0.122 HD
ATOM     18  C   LIG    1       31.826 -19.300   8.056  0.00  0.00    +0.100 C 
ATOM     19  C   LIG    1       30.448 -19.045   7.410  0.00  0.00    +0.121 C 
ENDBRANCH   6  13
BRANCH   1  21
ATOM     20  C   LIG    1       25.704 -23.990   7.470  0.00  0.00    +0.027 C 
ATOM     21  C   LIG    1       25.407 -22.582   7.967  0.00  0.00    +0.120 C 
ENDBRANCH   1  21
BRANCH  10  22
ATOM     22  C   LIG    1       22.126 -20.677   4.785  0.00  0.00    +0.342 C 
ATOM     23  O   LIG    1       21.377 -21.646   4.799  0.00  0.00    -0.245 OA
BRANCH  22  24
ATOM     24  O   LIG    1       21.733 -19.475   4.306  0.00  0.00    -0.477 OA
ATOM     25  H   LIG    1       20.774 -19.430   4.065  0.00  0.00    +0.295 HD
ENDBRANCH  22  24
ENDBRANCH  10  22
TORSDOF 4
ENDMDL
MODEL 2
REMARK VINA RESULT:      -6.6      1.752      3.030
REMARK  Name = *****
REMARK                            x       y       z     vdW  Elec       q    Type
REMARK                         _______ _______ _______ _____ _____    ______ ____
ROOT
ATOM      1  N   LIG    1       25.573 -19.617   4.704  0.00  0.00    -0.331 N 
ATOM      2  C   LIG    1       26.142 -20.280   5.822  0.00  0.00    +0.147 A 
ATOM      3  C   LIG    1       25.303 -21.053   6.628  0.00  0.00    +0.068 A 
ATOM      4  C   LIG    1       25.820 -21.713   7.730  0.00  0.00    +0.057 A 
ATOM      5  C   LIG    1       27.170 -21.589   8.005  0.00  0.00    +0.164 A 
ATOM      6  C   LIG    1       28.014 -20.828   7.175  0.00  0.00    +0.159 A 
ATOM      7  F   LIG    1       27.614 -22.238   9.090  0.00  0.00    -0.202 F 
ATOM      8  C   LIG    1       23.870 -21.181   6.313  0.00  0.00    +0.205 A 
ATOM      9  O   LIG    1       23.121 -21.854   7.019  0.00  0.00    -0.286 OA
ATOM     10  C   LIG    1       23.344 -20.494   5.119  0.00  0.00    +0.122 A 
ATOM     11  N   LIG    1       27.472 -20.177   6.101  0.00  0.00    -0.211 NA
ATOM     12  C   LIG    1       24.226 -19.772   4.410  0.00  0.00    +0.106 A 
ENDROOT
BRANCH   6  13
ATOM     13  N   LIG    1       29.396 -20.677   7.427  0.00  0.00    -0.310 N 
ATOM     14  C   LIG    1       29.895 -21.496   8.554  0.00  0.00    +0.121 C 
ATOM     15  C   LIG    1       31.419 -21.333   8.767  0.00  0.00    +0.100 C 
ATOM     16  N   LIG    1       31.864 -19.930   8.866  0.00  0.00    -0.313 NA
ATOM     17  H   LIG    1       31.376 -19.492   9.648  0.00  0.00    +0.122 HD
ATOM     18  C   LIG    1       31.456 -19.249   7.628  0.00  0.00    +0.100 C 
ATOM     19  C   LIG    1       29.937 -19.301   7.365  0.00  0.00    +0.121 C 
ENDBRANCH   6  13
BRANCH   1  21
ATOM     20  C   LIG    1       25.780 -17.628   3.256  0.00  0.00    +0.027 C 
ATOM     21  C   LIG    1       26.489 -18.825   3.873  0.00  0.00    +0.120 C 
ENDBRANCH   1  21
BRANCH  10  22
ATOM     22  C   LIG    1       21.932 -20.581   4.691  0.00  0.00    +0.342 C 
ATOM     23  O   LIG    1       21.318 -19.636   4.212  0.00  0.00    -0.245 OA
BRANCH  22  24
ATOM     24  O   LIG    1       21.360 -21.793   4.866  0.00  0.00    -0.477 OA
ATOM     25  H   LIG    1       22.005 -22.542   4.913  0.00  0.00    +0.295 HD
ENDBRANCH  22  24
ENDBRANCH  10  22
TORSDOF 4
ENDMDL
MODEL 3
REMARK VINA RESULT:      -6.3      3.880      7.375
REMARK  Name = *****
REMARK                            x       y       z     vdW  Elec       q    Type
REMARK                         _______ _______ _______ _____ _____    ______ ____
ROOT
ATOM      1  N   LIG    1       29.201 -19.623   6.238  0.00  0.00    -0.331 N 
ATOM      2  C   LIG    1       28.008 -20.325   6.549  0.00  0.00    +0.147 A 
ATOM      3  C   LIG    1       28.015 -21.188   7.647  0.00  0.00    +0.068 A 
ATOM      4  C   LIG    1       26.871 -21.893   7.979  0.00  0.00    +0.057 A 
ATOM      5  C   LIG    1       25.737 -21.720   7.206  0.00  0.00    +0.164 A 
ATOM      6  C   LIG    1       25.729 -20.832   6.116  0.00  0.00    +0.159 A 
ATOM      7  F   LIG    1       24.663 -22.436   7.566  0.00  0.00    -0.202 F 
ATOM      8  C   LIG    1       29.230 -21.350   8.464  0.00  0.00    +0.205 A 
ATOM      9  O   LIG    1       29.251 -22.112   9.430  0.00  0.00    -0.286 OA
ATOM     10  C   LIG    1       30.430 -20.569   8.111  0.00  0.00    +0.122 A 
ATOM     11  N   LIG    1       26.878 -20.159   5.804  0.00  0.00    -0.211 NA
ATOM     12  C   LIG    1       30.327 -19.771   7.037  0.00  0.00    +0.106 A 
ENDROOT
BRANCH   6  13
ATOM     13  N   LIG    1       24.590 -20.632   5.303  0.00  0.00    -0.310 N 
ATOM     14  C   LIG    1       24.826 -19.738   4.147  0.00  0.00    +0.121 C 
ATOM     15  C   LIG    1       23.567 -19.582   3.262  0.00  0.00    +0.100 C 
ATOM     16  N   LIG    1       22.351 -19.209   4.009  0.00  0.00    -0.313 NA
ATOM     17  H   LIG    1       22.525 -18.325   4.487  0.00  0.00    +0.122 HD
ATOM     18  C   LIG    1       22.121 -20.245   5.026  0.00  0.00    +0.100 C 
ATOM     19  C   LIG    1       23.303 -20.427   6.001  0.00  0.00    +0.121 C 
ENDBRANCH   6  13
BRANCH   1  21
ATOM     20  C   LIG    1       28.885 -17.282   5.522  0.00  0.00    +0.027 C 
ATOM     21  C   LIG    1       29.150 -18.716   5.085  0.00  0.00    +0.120 C 
ENDBRANCH   1  21
BRANCH  10  22
ATOM     22  C   LIG    1       31.690 -20.630   8.880  0.00  0.00    +0.342 C 
ATOM     23  O   LIG    1       32.298 -19.633   9.251  0.00  0.00    -0.245 OA
BRANCH  22  24
ATOM     24  O   LIG    1       32.131 -21.879   9.151  0.00  0.00    -0.477 OA
ATOM     25  H   LIG    1       32.634 -22.300   8.410  0.00  0.00    +0.295 HD
ENDBRANCH  22  24
ENDBRANCH  10  22
TORSDOF 4
ENDMDL
MODEL 4
REMARK VINA RESULT:      -5.9      3.518      6.711
REMARK  Name = *****
REMARK                            x       y       z     vdW  Elec       q    Type
REMARK                         _______ _______ _______ _____ _____    ______ ____
ROOT
ATOM      1  N   LIG    1       27.743 -21.536   8.007  0.00  0.00    -0.331 N 
ATOM      2  C   LIG    1       27.470 -20.723   6.876  0.00  0.00    +0.147 A 
ATOM      3  C   LIG    1       28.510 -19.953   6.351  0.00  0.00    +0.068 A 
ATOM      4  C   LIG    1       28.283 -19.143   5.251  0.00  0.00    +0.057 A 
ATOM      5  C   LIG    1       27.017 -19.121   4.694  0.00  0.00    +0.164 A 
ATOM      6  C   LIG    1       25.980 -19.916   5.214  0.00  0.00    +0.159 A 
ATOM      7  F   LIG    1       26.850 -18.311   3.639  0.00  0.00    -0.202 F 
ATOM      8  C   LIG    1       29.855 -19.999   6.952  0.00  0.00    +0.205 A 
ATOM      9  O   LIG    1       30.777 -19.320   6.501  0.00  0.00    -0.286 OA
ATOM     10  C   LIG    1       30.085 -20.888   8.105  0.00  0.00    +0.122 A 
ATOM     11  N   LIG    1       26.231 -20.696   6.309  0.00  0.00    -0.211 NA
ATOM     12  C   LIG    1       29.023 -21.585   8.541  0.00  0.00    +0.106 A 
ENDROOT
BRANCH   6  13
ATOM     13  N   LIG    1       24.674 -19.916   4.673  0.00  0.00    -0.310 N 
ATOM     14  C   LIG    1       24.271 -18.623   4.076  0.00  0.00    +0.121 C 
ATOM     15  C   LIG    1       22.854 -18.680   3.459  0.00  0.00    +0.100 C 
ATOM     16  N   LIG    1       21.823 -19.210   4.371  0.00  0.00    -0.313 NA
ATOM     17  H   LIG    1       21.794 -18.620   5.202  0.00  0.00    +0.122 HD
ATOM     18  C   LIG    1       22.246 -20.559   4.778  0.00  0.00    +0.100 C 
ATOM     19  C   LIG    1       23.625 -20.593   5.466  0.00  0.00    +0.121 C 
ENDBRANCH   6  13
BRANCH   1  21
ATOM     20  C   LIG    1       26.149 -23.349   7.487  0.00  0.00    +0.027 C 
ATOM     21  C   LIG    1       26.628 -22.341   8.522  0.00  0.00    +0.120 C 
ENDBRANCH   1  21
BRANCH  10  22
ATOM     22  C   LIG    1       31.399 -21.037   8.763  0.00  0.00    +0.342 C 
ATOM     23  O   LIG    1       31.918 -22.124   8.985  0.00  0.00    -0.245 OA
BRANCH  22  24
ATOM     24  O   LIG    1       31.998 -19.874   9.105  0.00  0.00    -0.477 OA
ATOM     25  H   LIG    1       32.511 -19.917   9.950  0.00  0.00    +0.295 HD
ENDBRANCH  22  24
ENDBRANCH  10  22
TORSDOF 4
ENDMDL
MODEL 5
REMARK VINA RESULT:      -5.9      5.180      7.280
REMARK  Name = *****
REMARK                            x       y       z     vdW  Elec       q    Type
REMARK                         _______ _______ _______ _____ _____    ______ ____
ROOT
ATOM      1  N   LIG    1       25.906 -28.034   7.847  0.00  0.00    -0.331 N 
ATOM      2  C   LIG    1       25.637 -26.867   7.086  0.00  0.00    +0.147 A 
ATOM      3  C   LIG    1       25.057 -27.020   5.825  0.00  0.00    +0.068 A 
ATOM      4  C   LIG    1       24.782 -25.905   5.051  0.00  0.00    +0.057 A 
ATOM      5  C   LIG    1       25.093 -24.655   5.554  0.00  0.00    +0.164 A 
ATOM      6  C   LIG    1       25.656 -24.506   6.835  0.00  0.00    +0.159 A 
ATOM      7  F   LIG    1       24.817 -23.613   4.758  0.00  0.00    -0.202 F 
ATOM      8  C   LIG    1       24.724 -28.359   5.311  0.00  0.00    +0.205 A 
ATOM      9  O   LIG    1       24.218 -28.507   4.199  0.00  0.00    -0.286 OA
ATOM     10  C   LIG    1       24.997 -29.533   6.161  0.00  0.00    +0.122 A 
ATOM     11  N   LIG    1       25.927 -25.626   7.571  0.00  0.00    -0.211 NA
ATOM     12  C   LIG    1       25.560 -29.285   7.354  0.00  0.00    +0.106 A 
ENDROOT
BRANCH   6  13
ATOM     13  N   LIG    1       25.988 -23.245   7.380  0.00  0.00    -0.310 N 
ATOM     14  C   LIG    1       24.839 -22.320   7.499  0.00  0.00    +0.121 C 
ATOM     15  C   LIG    1       25.239 -20.969   8.139  0.00  0.00    +0.100 C 
ATOM     16  N   LIG    1       26.402 -20.324   7.501  0.00  0.00    -0.313 NA
ATOM     17  H   LIG    1       26.184 -20.168   6.517  0.00  0.00    +0.122 HD
ATOM     18  C   LIG    1       27.528 -21.267   7.578  0.00  0.00    +0.100 C 
ATOM     19  C   LIG    1       27.245 -22.626   6.905  0.00  0.00    +0.121 C 
ENDBRANCH   6  13
BRANCH   1  21
ATOM     20  C   LIG    1       26.758 -29.159   9.872  0.00  0.00    +0.027 C 
ATOM     21  C   LIG    1       26.504 -27.831   9.172  0.00  0.00    +0.120 C 
ENDBRANCH   1  21
BRANCH  10  22
ATOM     22  C   LIG    1       24.673 -30.917   5.760  0.00  0.00    +0.342 C 
ATOM     23  O   LIG    1       25.525 -31.779   5.580  0.00  0.00    -0.245 OA
BRANCH  22  24
ATOM     24  O   LIG    1       23.354 -31.170   5.605  0.00  0.00    -0.477 OA
ATOM     25  H   LIG    1       22.773 -30.378   5.731  0.00  0.00    +0.295 HD
ENDBRANCH  22  24
ENDBRANCH  10  22
TORSDOF 4
ENDMDL
MODEL 6
REMARK VINA RESULT:      -5.8      6.827      9.372
REMARK  Name = *****
REMARK                            x       y       z     vdW  Elec       q    Type
REMARK                         _______ _______ _______ _____ _____    ______ ____
ROOT
ATOM      1  N   LIG    1       25.538 -29.802   8.223  0.00  0.00    -0.331 N 
ATOM      2  C   LIG    1       25.416 -28.848   7.180  0.00  0.00    +0.147 A 
ATOM      3  C   LIG    1       25.440 -29.305   5.860  0.00  0.00    +0.068 A 
ATOM      4  C   LIG    1       25.327 -28.405   4.815  0.00  0.00    +0.057 A 
ATOM      5  C   LIG    1       25.190 -27.060   5.109  0.00  0.00    +0.164 A 
ATOM      6  C   LIG    1       25.143 -26.609   6.440  0.00  0.00    +0.159 A 
ATOM      7  F   LIG    1       25.098 -26.232   4.059  0.00  0.00    -0.202 F 
ATOM      8  C   LIG    1       25.577 -30.742   5.568  0.00  0.00    +0.205 A 
ATOM      9  O   LIG    1       25.605 -31.156   4.409  0.00  0.00    -0.286 OA
ATOM     10  C   LIG    1       25.667 -31.689   6.695  0.00  0.00    +0.122 A 
ATOM     11  N   LIG    1       25.270 -27.520   7.452  0.00  0.00    -0.211 NA
ATOM     12  C   LIG    1       25.639 -31.154   7.925  0.00  0.00    +0.106 A 
ENDROOT
BRANCH   6  13
ATOM     13  N   LIG    1       25.007 -25.243   6.778  0.00  0.00    -0.310 N 
ATOM     14  C   LIG    1       23.691 -24.665   6.425  0.00  0.00    +0.121 C 
ATOM     15  C   LIG    1       23.570 -23.182   6.850  0.00  0.00    +0.100 C 
ATOM     16  N   LIG    1       24.685 -22.333   6.391  0.00  0.00    -0.313 NA
ATOM     17  H   LIG    1       24.726 -22.379   5.373  0.00  0.00    +0.122 HD
ATOM     18  C   LIG    1       25.927 -22.908   6.928  0.00  0.00    +0.100 C 
ATOM     19  C   LIG    1       26.169 -24.370   6.501  0.00  0.00    +0.121 C 
ENDBRANCH   6  13
BRANCH   1  21
ATOM     20  C   LIG    1       26.886 -29.237  10.213  0.00  0.00    +0.027 C 
ATOM     21  C   LIG    1       25.495 -29.284   9.596  0.00  0.00    +0.120 C 
ENDBRANCH   1  21
BRANCH  10  22
ATOM     22  C   LIG    1       25.773 -33.152   6.517  0.00  0.00    +0.342 C 
ATOM     23  O   LIG    1       26.665 -33.825   7.018  0.00  0.00    -0.245 OA
BRANCH  22  24
ATOM     24  O   LIG    1       24.801 -33.703   5.755  0.00  0.00    -0.477 OA
ATOM     25  H   LIG    1       25.118 -34.425   5.157  0.00  0.00    +0.295 HD
ENDBRANCH  22  24
ENDBRANCH  10  22
TORSDOF 4
ENDMDL
MODEL 7
REMARK VINA RESULT:      -5.8     10.585     12.680
REMARK  Name = *****
REMARK                            x       y       z     vdW  Elec       q    Type
REMARK                         _______ _______ _______ _____ _____    ______ ____
ROOT
ATOM      1  N   LIG    1       23.476 -29.375  11.781  0.00  0.00    -0.331 N 
ATOM      2  C   LIG    1       22.990 -28.440  12.731  0.00  0.00    +0.147 A 
ATOM      3  C   LIG    1       23.893 -27.526  13.279  0.00  0.00    +0.068 A 
ATOM      4  C   LIG    1       23.458 -26.601  14.212  0.00  0.00    +0.057 A 
ATOM      5  C   LIG    1       22.124 -26.606  14.581  0.00  0.00    +0.164 A 
ATOM      6  C   LIG    1       21.216 -27.514  14.008  0.00  0.00    +0.159 A 
ATOM      7  F   LIG    1       21.761 -25.697  15.496  0.00  0.00    -0.202 F 
ATOM      8  C   LIG    1       25.307 -27.530  12.866  0.00  0.00    +0.205 A 
ATOM      9  O   LIG    1       26.112 -26.733  13.346  0.00  0.00    -0.286 OA
ATOM     10  C   LIG    1       25.745 -28.504  11.849  0.00  0.00    +0.122 A 
ATOM     11  N   LIG    1       21.677 -28.425  13.098  0.00  0.00    -0.211 NA
ATOM     12  C   LIG    1       24.806 -29.344  11.386  0.00  0.00    +0.106 A 
ENDROOT
BRANCH   6  13
ATOM     13  N   LIG    1       19.848 -27.550  14.362  0.00  0.00    -0.310 N 
ATOM     14  C   LIG    1       19.217 -28.878  14.188  0.00  0.00    +0.121 C 
ATOM     15  C   LIG    1       17.733 -28.883  14.628  0.00  0.00    +0.100 C 
ATOM     16  N   LIG    1       16.926 -27.806  14.025  0.00  0.00    -0.313 NA
ATOM     17  H   LIG    1       16.967 -27.902  13.010  0.00  0.00    +0.122 HD
ATOM     18  C   LIG    1       17.552 -26.526  14.391  0.00  0.00    +0.100 C 
ATOM     19  C   LIG    1       19.020 -26.402  13.934  0.00  0.00    +0.121 C 
ENDBRANCH   6  13
BRANCH   1  21
ATOM     20  C   LIG    1       22.912 -30.784   9.833  0.00  0.00    +0.027 C 
ATOM     21  C   LIG    1       22.494 -30.311  11.218  0.00  0.00    +0.120 C 
ENDBRANCH   1  21
BRANCH  10  22
ATOM     22  C   LIG    1       27.130 -28.574  11.339  0.00  0.00    +0.342 C 
ATOM     23  O   LIG    1       27.401 -28.819  10.170  0.00  0.00    -0.245 OA
BRANCH  22  24
ATOM     24  O   LIG    1       28.088 -28.343  12.264  0.00  0.00    -0.477 OA
ATOM     25  H   LIG    1       28.926 -28.848  12.113  0.00  0.00    +0.295 HD
ENDBRANCH  22  24
ENDBRANCH  10  22
TORSDOF 4
ENDMDL
MODEL 8
REMARK VINA RESULT:      -5.8     10.038     12.645
REMARK  Name = *****
REMARK                            x       y       z     vdW  Elec       q    Type
REMARK                         _______ _______ _______ _____ _____    ______ ____
ROOT
ATOM      1  N   LIG    1       24.780 -27.500  12.922  0.00  0.00    -0.331 N 
ATOM      2  C   LIG    1       23.573 -28.191  12.644  0.00  0.00    +0.147 A 
ATOM      3  C   LIG    1       23.623 -29.283  11.774  0.00  0.00    +0.068 A 
ATOM      4  C   LIG    1       22.465 -29.981  11.475  0.00  0.00    +0.057 A 
ATOM      5  C   LIG    1       21.276 -29.574  12.053  0.00  0.00    +0.164 A 
ATOM      6  C   LIG    1       21.237 -28.488  12.946  0.00  0.00    +0.159 A 
ATOM      7  F   LIG    1       20.186 -30.277  11.718  0.00  0.00    -0.202 F 
ATOM      8  C   LIG    1       24.900 -29.708  11.177  0.00  0.00    +0.205 A 
ATOM      9  O   LIG    1       24.955 -30.664  10.405  0.00  0.00    -0.286 OA
ATOM     10  C   LIG    1       26.127 -28.970  11.530  0.00  0.00    +0.122 A 
ATOM     11  N   LIG    1       22.394 -27.810  13.213  0.00  0.00    -0.211 NA
ATOM     12  C   LIG    1       25.977 -27.933  12.369  0.00  0.00    +0.106 A 
ENDROOT
BRANCH   6  13
ATOM     13  N   LIG    1       20.041 -28.043  13.552  0.00  0.00    -0.310 N 
ATOM     14  C   LIG    1       19.769 -26.601  13.358  0.00  0.00    +0.121 C 
ATOM     15  C   LIG    1       18.430 -26.166  14.001  0.00  0.00    +0.100 C 
ATOM     16  N   LIG    1       18.283 -26.569  15.412  0.00  0.00    -0.313 NA
ATOM     17  H   LIG    1       19.050 -26.159  15.946  0.00  0.00    +0.122 HD
ATOM     18  C   LIG    1       18.413 -28.033  15.469  0.00  0.00    +0.100 C 
ATOM     19  C   LIG    1       19.751 -28.558  14.909  0.00  0.00    +0.121 C 
ENDBRANCH   6  13
BRANCH   1  21
ATOM     20  C   LIG    1       25.655 -25.256  13.463  0.00  0.00    +0.027 C 
ATOM     21  C   LIG    1       24.689 -26.366  13.851  0.00  0.00    +0.120 C 
ENDBRANCH   1  21
BRANCH  10  22
ATOM     22  C   LIG    1       27.465 -29.330  11.016  0.00  0.00    +0.342 C 
ATOM     23  O   LIG    1       28.389 -29.678  11.740  0.00  0.00    -0.245 OA
BRANCH  22  24
ATOM     24  O   LIG    1       27.597 -29.249   9.673  0.00  0.00    -0.477 OA
ATOM     25  H   LIG    1       27.055 -29.909   9.173  0.00  0.00    +0.295 HD
ENDBRANCH  22  24
ENDBRANCH  10  22
TORSDOF 4
ENDMDL
MODEL 9
REMARK VINA RESULT:      -5.6     10.176     12.582
REMARK  Name = *****
REMARK                            x       y       z     vdW  Elec       q    Type
REMARK                         _______ _______ _______ _____ _____    ______ ____
ROOT
ATOM      1  N   LIG    1       25.428 -28.780  13.064  0.00  0.00    -0.331 N 
ATOM      2  C   LIG    1       24.098 -28.289  13.007  0.00  0.00    +0.147 A 
ATOM      3  C   LIG    1       23.870 -26.958  13.364  0.00  0.00    +0.068 A 
ATOM      4  C   LIG    1       22.585 -26.443  13.325  0.00  0.00    +0.057 A 
ATOM      5  C   LIG    1       21.550 -27.270  12.927  0.00  0.00    +0.164 A 
ATOM      6  C   LIG    1       21.790 -28.602  12.547  0.00  0.00    +0.159 A 
ATOM      7  F   LIG    1       20.327 -26.722  12.920  0.00  0.00    -0.202 F 
ATOM      8  C   LIG    1       24.987 -26.090  13.775  0.00  0.00    +0.205 A 
ATOM      9  O   LIG    1       24.797 -24.918  14.097  0.00  0.00    -0.286 OA
ATOM     10  C   LIG    1       26.352 -26.649  13.782  0.00  0.00    +0.122 A 
ATOM     11  N   LIG    1       23.067 -29.087  12.607  0.00  0.00    -0.211 NA
ATOM     12  C   LIG    1       26.469 -27.938  13.428  0.00  0.00    +0.106 A 
ENDROOT
BRANCH   6  13
ATOM     13  N   LIG    1       20.757 -29.476  12.138  0.00  0.00    -0.310 N 
ATOM     14  C   LIG    1       20.010 -30.089  13.259  0.00  0.00    +0.121 C 
ATOM     15  C   LIG    1       18.863 -31.004  12.766  0.00  0.00    +0.100 C 
ATOM     16  N   LIG    1       19.281 -32.007  11.769  0.00  0.00    -0.313 NA
ATOM     17  H   LIG    1       20.008 -32.589  12.184  0.00  0.00    +0.122 HD
ATOM     18  C   LIG    1       19.865 -31.281  10.631  0.00  0.00    +0.100 C 
ATOM     19  C   LIG    1       21.064 -30.389  11.015  0.00  0.00    +0.121 C 
ENDBRANCH   6  13
BRANCH   1  21
ATOM     20  C   LIG    1       26.278 -30.278  11.295  0.00  0.00    +0.027 C 
ATOM     21  C   LIG    1       25.629 -30.180  12.668  0.00  0.00    +0.120 C 
ENDBRANCH   1  21
BRANCH  10  22
ATOM     22  C   LIG    1       27.547 -25.860  14.145  0.00  0.00    +0.342 C 
ATOM     23  O   LIG    1       28.254 -26.121  15.110  0.00  0.00    -0.245 OA
BRANCH  22  24
ATOM     24  O   LIG    1       27.811 -24.819  13.324  0.00  0.00    -0.477 OA
ATOM     25  H   LIG    1       28.291 -25.069  12.495  0.00  0.00    +0.295 HD
ENDBRANCH  22  24
ENDBRANCH  10  22
TORSDOF 4
ENDMDL
