MODEL 1
REMARK VINA RESULT:      -4.0      0.000      0.000
REMARK  Name = *****
REMARK                            x       y       z     vdW  Elec       q    Type
REMARK                         _______ _______ _______ _____ _____    ______ ____
ROOT
ATOM      1  O   LIG    1       23.061 -31.530   9.310  0.00  0.00    -0.340 OA
ENDROOT
BRANCH   1   6
ATOM      2  C   LIG    1       20.551 -32.680  11.533  0.00  0.00    +0.178 C 
ATOM      3  C   LIG    1       21.696 -32.964  12.483  0.00  0.00    +0.181 C 
ATOM      4  C   LIG    1       22.783 -31.851  12.540  0.00  0.00    +0.183 C 
ATOM      5  C   LIG    1       22.504 -30.675  11.596  0.00  0.00    +0.205 C 
ATOM      6  C   LIG    1       22.037 -31.221  10.233  0.00  0.00    +0.282 C 
ATOM      7  O   LIG    1       21.255 -32.428  10.312  0.00  0.00    -0.341 OA
BRANCH   2   8
ATOM      8  C   LIG    1       19.499 -33.815  11.220  0.00  0.00    +0.194 C 
BRANCH   8   9
ATOM      9  O   LIG    1       18.168 -33.405  10.784  0.00  0.00    -0.375 OA
BRANCH   9  10
ATOM     10  C   LIG    1       17.659 -32.106  11.153  0.00  0.00    +0.190 C 
BRANCH  10  12
ATOM     11  C   LIG    1       17.600 -31.887   8.712  0.00  0.00    +0.040 C 
ATOM     12  C   LIG    1       17.701 -31.099   9.987  0.00  0.00    +0.137 C 
BRANCH  12  13
ATOM     13  O   LIG    1       18.909 -30.344   9.853  0.00  0.00    -0.390 OA
ATOM     14  H   LIG    1       19.545 -30.645  10.534  0.00  0.00    +0.210 HD
ENDBRANCH  12  13
ENDBRANCH  10  12
ENDBRANCH   9  10
ENDBRANCH   8   9
ENDBRANCH   2   8
BRANCH   3  15
ATOM     15  O   LIG    1       21.310 -33.416  13.780  0.00  0.00    -0.369 OA
BRANCH  15  16
ATOM     16  C   LIG    1       19.942 -33.036  14.026  0.00  0.00    +0.191 C 
BRANCH  16  17
ATOM     17  C   LIG    1       19.833 -32.102  15.250  0.00  0.00    +0.137 C 
ATOM     18  C   LIG    1       18.682 -31.118  15.117  0.00  0.00    +0.040 C 
BRANCH  17  19
ATOM     19  O   LIG    1       21.058 -31.417  15.458  0.00  0.00    -0.390 OA
ATOM     20  H   LIG    1       21.002 -31.031  16.350  0.00  0.00    +0.210 HD
ENDBRANCH  17  19
ENDBRANCH  16  17
ENDBRANCH  15  16
ENDBRANCH   3  15
BRANCH   4  21
ATOM     21  O   LIG    1       23.975 -32.559  12.139  0.00  0.00    -0.369 OA
BRANCH  21  22
ATOM     22  C   LIG    1       24.682 -33.322  13.099  0.00  0.00    +0.191 C 
BRANCH  22  23
ATOM     23  C   LIG    1       25.041 -32.457  14.296  0.00  0.00    +0.137 C 
ATOM     24  C   LIG    1       26.537 -32.321  14.453  0.00  0.00    +0.040 C 
BRANCH  23  25
ATOM     25  O   LIG    1       24.510 -33.061  15.471  0.00  0.00    -0.390 OA
ATOM     26  H   LIG    1       25.213 -33.071  16.140  0.00  0.00    +0.210 HD
ENDBRANCH  23  25
ENDBRANCH  22  23
ENDBRANCH  21  22
ENDBRANCH   4  21
BRANCH   5  27
ATOM     27  O   LIG    1       21.554 -29.734  12.160  0.00  0.00    -0.366 OA
BRANCH  27  28
ATOM     28  C   LIG    1       22.087 -28.885  13.205  0.00  0.00    +0.191 C 
BRANCH  28  29
ATOM     29  C   LIG    1       21.589 -27.421  13.139  0.00  0.00    +0.137 C 
ATOM     30  C   LIG    1       22.665 -26.378  13.437  0.00  0.00    +0.040 C 
BRANCH  29  31
ATOM     31  O   LIG    1       20.479 -27.252  14.022  0.00  0.00    -0.390 OA
ATOM     32  H   LIG    1       19.905 -26.555  13.656  0.00  0.00    +0.210 HD
ENDBRANCH  29  31
ENDBRANCH  28  29
ENDBRANCH  27  28
ENDBRANCH   5  27
ENDBRANCH   1   6
BRANCH   1  33
ATOM     33  C   LIG    1       23.826 -30.561   8.601  0.00  0.00    +0.184 C 
ATOM     34  C   LIG    1       24.149 -30.473   7.073  0.00  0.00    +0.178 C 
ATOM     35  O   LIG    1       24.414 -29.065   6.870  0.00  0.00    -0.341 OA
ATOM     36  C   LIG    1       25.617 -28.578   7.479  0.00  0.00    +0.282 C 
ATOM     37  C   LIG    1       25.641 -28.795   9.020  0.00  0.00    +0.205 C 
ATOM     38  C   LIG    1       24.994 -30.123   9.515  0.00  0.00    +0.183 C 
BRANCH  38  39
ATOM     39  O   LIG    1       25.770 -31.140  10.177  0.00  0.00    -0.369 OA
BRANCH  39  40
ATOM     40  C   LIG    1       26.876 -31.816   9.595  0.00  0.00    +0.191 C 
BRANCH  40  41
ATOM     41  C   LIG    1       26.745 -33.332   9.314  0.00  0.00    +0.137 C 
ATOM     42  C   LIG    1       27.741 -33.822   8.260  0.00  0.00    +0.040 C 
BRANCH  41  43
ATOM     43  O   LIG    1       25.459 -33.697   8.884  0.00  0.00    -0.390 OA
ATOM     44  H   LIG    1       25.489 -34.646   8.667  0.00  0.00    +0.210 HD
ENDBRANCH  41  43
ENDBRANCH  40  41
ENDBRANCH  39  40
ENDBRANCH  38  39
BRANCH  37  45
ATOM     45  O   LIG    1       26.936 -28.519   9.559  0.00  0.00    -0.366 OA
BRANCH  45  46
ATOM     46  C   LIG    1       26.992 -27.892  10.848  0.00  0.00    +0.191 C 
BRANCH  46  47
ATOM     47  C   LIG    1       27.601 -28.702  12.017  0.00  0.00    +0.137 C 
ATOM     48  C   LIG    1       28.785 -29.604  11.659  0.00  0.00    +0.040 C 
BRANCH  47  49
ATOM     49  O   LIG    1       26.574 -29.438  12.685  0.00  0.00    -0.390 OA
ATOM     50  H   LIG    1       25.768 -29.442  12.144  0.00  0.00    +0.210 HD
ENDBRANCH  47  49
ENDBRANCH  46  47
ENDBRANCH  45  46
ENDBRANCH  37  45
BRANCH  36  51
ATOM     51  O   LIG    1       25.673 -27.152   7.238  0.00  0.00    -0.346 OA
BRANCH  51  52
ATOM     52  C   LIG    1       26.152 -26.784   5.937  0.00  0.00    +0.194 C 
BRANCH  52  53
ATOM     53  C   LIG    1       25.444 -25.539   5.382  0.00  0.00    +0.137 C 
ATOM     54  C   LIG    1       25.620 -24.339   6.307  0.00  0.00    +0.040 C 
BRANCH  53  55
ATOM     55  O   LIG    1       24.044 -25.751   5.286  0.00  0.00    -0.390 OA
ATOM     56  H   LIG    1       23.825 -26.486   5.842  0.00  0.00    +0.210 HD
ENDBRANCH  53  55
ENDBRANCH  52  53
ENDBRANCH  51  52
ENDBRANCH  36  51
BRANCH  34  57
ATOM     57  C   LIG    1       25.236 -31.210   6.234  0.00  0.00    +0.194 C 
BRANCH  57  58
ATOM     58  O   LIG    1       25.448 -32.610   6.398  0.00  0.00    -0.375 OA
BRANCH  58  59
ATOM     59  C   LIG    1       25.154 -33.478   5.311  0.00  0.00    +0.190 C 
BRANCH  59  60
ATOM     60  C   LIG    1       24.127 -32.998   4.301  0.00  0.00    +0.137 C 
ATOM     61  C   LIG    1       22.811 -33.719   4.506  0.00  0.00    +0.040 C 
BRANCH  60  62
ATOM     62  O   LIG    1       24.549 -33.195   2.960  0.00  0.00    -0.390 OA
ATOM     63  H   LIG    1       23.821 -33.597   2.452  0.00  0.00    +0.210 HD
ENDBRANCH  60  62
ENDBRANCH  59  60
ENDBRANCH  58  59
ENDBRANCH  57  58
ENDBRANCH  34  57
ENDBRANCH   1  33
TORSDOF 36
ENDMDL
MODEL 2
REMARK VINA RESULT:      -2.9      2.089      6.756
REMARK  Name = *****
REMARK                            x       y       z     vdW  Elec       q    Type
REMARK                         _______ _______ _______ _____ _____    ______ ____
ROOT
ATOM      1  O   LIG    1       23.240 -30.245  11.724  0.00  0.00    -0.340 OA
ENDROOT
BRANCH   1   6
ATOM      2  C   LIG    1       23.124 -27.731  14.220  0.00  0.00    +0.178 C 
ATOM      3  C   LIG    1       21.688 -28.171  14.421  0.00  0.00    +0.181 C 
ATOM      4  C   LIG    1       21.475 -29.713  14.410  0.00  0.00    +0.183 C 
ATOM      5  C   LIG    1       22.764 -30.507  14.168  0.00  0.00    +0.205 C 
ATOM      6  C   LIG    1       23.566 -29.837  13.036  0.00  0.00    +0.282 C 
ATOM      7  O   LIG    1       23.454 -28.400  12.998  0.00  0.00    -0.341 OA
BRANCH   2   8
ATOM      8  C   LIG    1       23.446 -26.201  13.996  0.00  0.00    +0.194 C 
BRANCH   8   9
ATOM      9  O   LIG    1       24.287 -25.534  14.984  0.00  0.00    -0.375 OA
BRANCH   9  10
ATOM     10  C   LIG    1       25.625 -26.015  15.233  0.00  0.00    +0.190 C 
BRANCH  10  12
ATOM     11  C   LIG    1       26.698 -25.793  13.040  0.00  0.00    +0.040 C 
ATOM     12  C   LIG    1       26.692 -25.239  14.436  0.00  0.00    +0.137 C 
BRANCH  12  13
ATOM     13  O   LIG    1       28.041 -25.382  14.890  0.00  0.00    -0.390 OA
ATOM     14  H   LIG    1       28.354 -26.283  14.666  0.00  0.00    +0.210 HD
ENDBRANCH  12  13
ENDBRANCH  10  12
ENDBRANCH   9  10
ENDBRANCH   8   9
ENDBRANCH   2   8
BRANCH   3  15
ATOM     15  O   LIG    1       21.005 -27.534  15.499  0.00  0.00    -0.369 OA
BRANCH  15  16
ATOM     16  C   LIG    1       20.430 -26.298  15.032  0.00  0.00    +0.191 C 
BRANCH  16  17
ATOM     17  C   LIG    1       19.350 -26.554  13.960  0.00  0.00    +0.137 C 
ATOM     18  C   LIG    1       19.844 -26.226  12.559  0.00  0.00    +0.040 C 
BRANCH  17  19
ATOM     19  O   LIG    1       18.173 -25.821  14.261  0.00  0.00    -0.390 OA
ATOM     20  H   LIG    1       17.654 -26.381  14.864  0.00  0.00    +0.210 HD
ENDBRANCH  17  19
ENDBRANCH  16  17
ENDBRANCH  15  16
ENDBRANCH   3  15
BRANCH   4  21
ATOM     21  O   LIG    1       20.550 -29.890  13.316  0.00  0.00    -0.369 OA
BRANCH  21  22
ATOM     22  C   LIG    1       19.166 -30.012  13.592  0.00  0.00    +0.191 C 
BRANCH  22  23
ATOM     23  C   LIG    1       18.657 -31.368  13.130  0.00  0.00    +0.137 C 
ATOM     24  C   LIG    1       17.168 -31.504  13.347  0.00  0.00    +0.040 C 
BRANCH  23  25
ATOM     25  O   LIG    1       19.323 -32.383  13.875  0.00  0.00    -0.390 OA
ATOM     26  H   LIG    1       19.370 -33.174  13.314  0.00  0.00    +0.210 HD
ENDBRANCH  23  25
ENDBRANCH  22  23
ENDBRANCH  21  22
ENDBRANCH   4  21
BRANCH   5  27
ATOM     27  O   LIG    1       23.550 -30.655  15.379  0.00  0.00    -0.366 OA
BRANCH  27  28
ATOM     28  C   LIG    1       24.896 -31.149  15.172  0.00  0.00    +0.191 C 
BRANCH  28  29
ATOM     29  C   LIG    1       25.043 -32.675  15.383  0.00  0.00    +0.137 C 
ATOM     30  C   LIG    1       26.191 -33.308  14.598  0.00  0.00    +0.040 C 
BRANCH  29  31
ATOM     31  O   LIG    1       23.811 -33.324  15.066  0.00  0.00    -0.390 OA
ATOM     32  H   LIG    1       23.297 -33.413  15.889  0.00  0.00    +0.210 HD
ENDBRANCH  29  31
ENDBRANCH  28  29
ENDBRANCH  27  28
ENDBRANCH   5  27
ENDBRANCH   1   6
BRANCH   1  33
ATOM     33  C   LIG    1       24.151 -30.869  10.825  0.00  0.00    +0.184 C 
ATOM     34  C   LIG    1       25.329 -30.243  10.008  0.00  0.00    +0.178 C 
ATOM     35  O   LIG    1       26.209 -31.369   9.779  0.00  0.00    -0.341 OA
ATOM     36  C   LIG    1       25.699 -32.368   8.886  0.00  0.00    +0.282 C 
ATOM     37  C   LIG    1       24.352 -32.977   9.373  0.00  0.00    +0.205 C 
ATOM     38  C   LIG    1       23.381 -31.975  10.066  0.00  0.00    +0.183 C 
BRANCH  38  39
ATOM     39  O   LIG    1       22.096 -31.654   9.499  0.00  0.00    -0.369 OA
BRANCH  39  40
ATOM     40  C   LIG    1       21.088 -32.609   9.195  0.00  0.00    +0.191 C 
BRANCH  40  41
ATOM     41  C   LIG    1       20.572 -33.520  10.335  0.00  0.00    +0.137 C 
ATOM     42  C   LIG    1       19.050 -33.683  10.313  0.00  0.00    +0.040 C 
BRANCH  41  43
ATOM     43  O   LIG    1       20.929 -33.053  11.610  0.00  0.00    -0.390 OA
ATOM     44  H   LIG    1       20.854 -32.082  11.590  0.00  0.00    +0.210 HD
ENDBRANCH  41  43
ENDBRANCH  40  41
ENDBRANCH  39  40
ENDBRANCH  38  39
BRANCH  37  45
ATOM     45  O   LIG    1       23.756 -33.788   8.358  0.00  0.00    -0.366 OA
BRANCH  45  46
ATOM     46  C   LIG    1       24.364 -33.767   7.059  0.00  0.00    +0.191 C 
BRANCH  46  47
ATOM     47  C   LIG    1       23.484 -33.343   5.858  0.00  0.00    +0.137 C 
ATOM     48  C   LIG    1       24.085 -33.585   4.471  0.00  0.00    +0.040 C 
BRANCH  47  49
ATOM     49  O   LIG    1       23.075 -31.982   6.013  0.00  0.00    -0.390 OA
ATOM     50  H   LIG    1       23.518 -31.428   5.349  0.00  0.00    +0.210 HD
ENDBRANCH  47  49
ENDBRANCH  46  47
ENDBRANCH  45  46
ENDBRANCH  37  45
BRANCH  36  51
ATOM     51  O   LIG    1       26.671 -33.439   8.840  0.00  0.00    -0.346 OA
BRANCH  51  52
ATOM     52  C   LIG    1       27.810 -33.178   8.007  0.00  0.00    +0.194 C 
BRANCH  52  53
ATOM     53  C   LIG    1       27.484 -33.306   6.512  0.00  0.00    +0.137 C 
ATOM     54  C   LIG    1       28.682 -33.824   5.723  0.00  0.00    +0.040 C 
BRANCH  53  55
ATOM     55  O   LIG    1       27.168 -32.041   5.951  0.00  0.00    -0.390 OA
ATOM     56  H   LIG    1       27.770 -31.406   6.314  0.00  0.00    +0.210 HD
ENDBRANCH  53  55
ENDBRANCH  52  53
ENDBRANCH  51  52
ENDBRANCH  36  51
BRANCH  34  57
ATOM     57  C   LIG    1       25.311 -29.466   8.658  0.00  0.00    +0.194 C 
BRANCH  57  58
ATOM     58  O   LIG    1       24.960 -30.131   7.448  0.00  0.00    -0.375 OA
BRANCH  58  59
ATOM     59  C   LIG    1       25.008 -29.402   6.228  0.00  0.00    +0.190 C 
BRANCH  59  60
ATOM     60  C   LIG    1       25.289 -27.913   6.323  0.00  0.00    +0.137 C 
ATOM     61  C   LIG    1       24.267 -27.133   5.521  0.00  0.00    +0.040 C 
BRANCH  60  62
ATOM     62  O   LIG    1       26.587 -27.573   5.859  0.00  0.00    -0.390 OA
ATOM     63  H   LIG    1       27.211 -28.277   6.111  0.00  0.00    +0.210 HD
ENDBRANCH  60  62
ENDBRANCH  59  60
ENDBRANCH  58  59
ENDBRANCH  57  58
ENDBRANCH  34  57
ENDBRANCH   1  33
TORSDOF 36
ENDMDL
MODEL 3
REMARK VINA RESULT:      -2.9      1.461      2.650
REMARK  Name = *****
REMARK                            x       y       z     vdW  Elec       q    Type
REMARK                         _______ _______ _______ _____ _____    ______ ____
ROOT
ATOM      1  O   LIG    1       23.846 -30.690   9.445  0.00  0.00    -0.340 OA
ENDROOT
BRANCH   1   6
ATOM      2  C   LIG    1       21.640 -32.147  11.807  0.00  0.00    +0.178 C 
ATOM      3  C   LIG    1       22.822 -32.102  12.753  0.00  0.00    +0.181 C 
ATOM      4  C   LIG    1       23.649 -30.785  12.696  0.00  0.00    +0.183 C 
ATOM      5  C   LIG    1       23.127 -29.779  11.664  0.00  0.00    +0.205 C 
ATOM      6  C   LIG    1       22.782 -30.525  10.360  0.00  0.00    +0.282 C 
ATOM      7  O   LIG    1       22.272 -31.858  10.555  0.00  0.00    -0.341 OA
BRANCH   2   8
ATOM      8  C   LIG    1       20.850 -33.500  11.610  0.00  0.00    +0.194 C 
BRANCH   8   9
ATOM      9  O   LIG    1       19.401 -33.422  11.452  0.00  0.00    -0.375 OA
BRANCH   9  10
ATOM     10  C   LIG    1       18.712 -32.187  11.736  0.00  0.00    +0.190 C 
BRANCH  10  12
ATOM     11  C   LIG    1       17.994 -32.567   9.422  0.00  0.00    +0.040 C 
ATOM     12  C   LIG    1       18.179 -31.499  10.464  0.00  0.00    +0.137 C 
BRANCH  12  13
ATOM     13  O   LIG    1       19.052 -30.544   9.853  0.00  0.00    -0.390 OA
ATOM     14  H   LIG    1       18.629 -29.662   9.893  0.00  0.00    +0.210 HD
ENDBRANCH  12  13
ENDBRANCH  10  12
ENDBRANCH   9  10
ENDBRANCH   8   9
ENDBRANCH   2   8
BRANCH   3  15
ATOM     15  O   LIG    1       22.543 -32.513  14.091  0.00  0.00    -0.369 OA
BRANCH  15  16
ATOM     16  C   LIG    1       22.359 -31.346  14.916  0.00  0.00    +0.191 C 
BRANCH  16  17
ATOM     17  C   LIG    1       20.871 -31.138  15.268  0.00  0.00    +0.137 C 
ATOM     18  C   LIG    1       20.097 -32.447  15.278  0.00  0.00    +0.040 C 
BRANCH  17  19
ATOM     19  O   LIG    1       20.279 -30.211  14.373  0.00  0.00    -0.390 OA
ATOM     20  H   LIG    1       20.857 -29.428  14.374  0.00  0.00    +0.210 HD
ENDBRANCH  17  19
ENDBRANCH  16  17
ENDBRANCH  15  16
ENDBRANCH   3  15
BRANCH   4  21
ATOM     21  O   LIG    1       24.963 -31.260  12.331  0.00  0.00    -0.369 OA
BRANCH  21  22
ATOM     22  C   LIG    1       25.828 -31.747  13.340  0.00  0.00    +0.191 C 
BRANCH  22  23
ATOM     23  C   LIG    1       26.730 -30.632  13.842  0.00  0.00    +0.137 C 
ATOM     24  C   LIG    1       27.141 -29.705  12.721  0.00  0.00    +0.040 C 
BRANCH  23  25
ATOM     25  O   LIG    1       27.901 -31.212  14.408  0.00  0.00    -0.390 OA
ATOM     26  H   LIG    1       28.585 -31.224  13.720  0.00  0.00    +0.210 HD
ENDBRANCH  23  25
ENDBRANCH  22  23
ENDBRANCH  21  22
ENDBRANCH   4  21
BRANCH   5  27
ATOM     27  O   LIG    1       22.001 -29.014  12.167  0.00  0.00    -0.366 OA
BRANCH  27  28
ATOM     28  C   LIG    1       22.360 -27.826  12.914  0.00  0.00    +0.191 C 
BRANCH  28  29
ATOM     29  C   LIG    1       21.147 -26.963  13.339  0.00  0.00    +0.137 C 
ATOM     30  C   LIG    1       21.071 -26.683  14.839  0.00  0.00    +0.040 C 
BRANCH  29  31
ATOM     31  O   LIG    1       19.939 -27.578  12.889  0.00  0.00    -0.390 OA
ATOM     32  H   LIG    1       19.194 -27.149  13.346  0.00  0.00    +0.210 HD
ENDBRANCH  29  31
ENDBRANCH  28  29
ENDBRANCH  27  28
ENDBRANCH   5  27
ENDBRANCH   1   6
BRANCH   1  33
ATOM     33  C   LIG    1       24.033 -29.900   8.276  0.00  0.00    +0.184 C 
ATOM     34  C   LIG    1       23.677 -30.225   6.788  0.00  0.00    +0.178 C 
ATOM     35  O   LIG    1       23.535 -28.916   6.187  0.00  0.00    -0.341 OA
ATOM     36  C   LIG    1       24.750 -28.166   6.068  0.00  0.00    +0.282 C 
ATOM     37  C   LIG    1       25.447 -27.928   7.439  0.00  0.00    +0.205 C 
ATOM     38  C   LIG    1       25.352 -29.111   8.447  0.00  0.00    +0.183 C 
BRANCH  38  39
ATOM     39  O   LIG    1       26.525 -29.819   8.893  0.00  0.00    -0.369 OA
BRANCH  39  40
ATOM     40  C   LIG    1       26.526 -31.157   9.372  0.00  0.00    +0.191 C 
BRANCH  40  41
ATOM     41  C   LIG    1       26.660 -32.305   8.344  0.00  0.00    +0.137 C 
ATOM     42  C   LIG    1       27.382 -33.526   8.919  0.00  0.00    +0.040 C 
BRANCH  41  43
ATOM     43  O   LIG    1       27.346 -31.918   7.181  0.00  0.00    -0.390 OA
ATOM     44  H   LIG    1       27.617 -30.990   7.304  0.00  0.00    +0.210 HD
ENDBRANCH  41  43
ENDBRANCH  40  41
ENDBRANCH  39  40
ENDBRANCH  38  39
BRANCH  37  45
ATOM     45  O   LIG    1       26.760 -27.390   7.263  0.00  0.00    -0.366 OA
BRANCH  45  46
ATOM     46  C   LIG    1       26.990 -26.581   6.101  0.00  0.00    +0.191 C 
BRANCH  46  47
ATOM     47  C   LIG    1       27.395 -27.299   4.792  0.00  0.00    +0.137 C 
ATOM     48  C   LIG    1       28.874 -27.202   4.408  0.00  0.00    +0.040 C 
BRANCH  47  49
ATOM     49  O   LIG    1       26.554 -26.867   3.720  0.00  0.00    -0.390 OA
ATOM     50  H   LIG    1       25.792 -26.380   4.076  0.00  0.00    +0.210 HD
ENDBRANCH  47  49
ENDBRANCH  46  47
ENDBRANCH  45  46
ENDBRANCH  37  45
BRANCH  36  51
ATOM     51  O   LIG    1       24.403 -26.870   5.523  0.00  0.00    -0.346 OA
BRANCH  51  52
ATOM     52  C   LIG    1       23.896 -25.933   6.484  0.00  0.00    +0.194 C 
BRANCH  52  53
ATOM     53  C   LIG    1       24.077 -24.477   6.034  0.00  0.00    +0.137 C 
ATOM     54  C   LIG    1       25.069 -23.736   6.925  0.00  0.00    +0.040 C 
BRANCH  53  55
ATOM     55  O   LIG    1       22.856 -23.759   6.133  0.00  0.00    -0.390 OA
ATOM     56  H   LIG    1       22.450 -23.761   5.278  0.00  0.00    +0.210 HD
ENDBRANCH  53  55
ENDBRANCH  52  53
ENDBRANCH  51  52
ENDBRANCH  36  51
BRANCH  34  57
ATOM     57  C   LIG    1       24.454 -31.068   5.733  0.00  0.00    +0.194 C 
BRANCH  57  58
ATOM     58  O   LIG    1       24.603 -32.475   5.901  0.00  0.00    -0.375 OA
BRANCH  58  59
ATOM     59  C   LIG    1       24.203 -33.337   4.843  0.00  0.00    +0.190 C 
BRANCH  59  60
ATOM     60  C   LIG    1       25.217 -33.597   3.744  0.00  0.00    +0.137 C 
ATOM     61  C   LIG    1       26.592 -33.825   4.339  0.00  0.00    +0.040 C 
BRANCH  60  62
ATOM     62  O   LIG    1       25.296 -32.528   2.813  0.00  0.00    -0.390 OA
ATOM     63  H   LIG    1       24.395 -32.242   2.578  0.00  0.00    +0.210 HD
ENDBRANCH  60  62
ENDBRANCH  59  60
ENDBRANCH  58  59
ENDBRANCH  57  58
ENDBRANCH  34  57
ENDBRANCH   1  33
TORSDOF 36
ENDMDL
MODEL 4
REMARK VINA RESULT:      -2.9      1.538      2.983
REMARK  Name = *****
REMARK                            x       y       z     vdW  Elec       q    Type
REMARK                         _______ _______ _______ _____ _____    ______ ____
ROOT
ATOM      1  O   LIG    1       23.897 -30.538   9.457  0.00  0.00    -0.340 OA
ENDROOT
BRANCH   1   6
ATOM      2  C   LIG    1       21.173 -32.125  11.077  0.00  0.00    +0.178 C 
ATOM      3  C   LIG    1       22.190 -32.524  12.126  0.00  0.00    +0.181 C 
ATOM      4  C   LIG    1       23.193 -31.400  12.519  0.00  0.00    +0.183 C 
ATOM      5  C   LIG    1       22.982 -30.094  11.745  0.00  0.00    +0.205 C 
ATOM      6  C   LIG    1       22.740 -30.420  10.258  0.00  0.00    +0.282 C 
ATOM      7  O   LIG    1       22.024 -31.649  10.028  0.00  0.00    -0.341 OA
BRANCH   2   8
ATOM      8  C   LIG    1       20.240 -33.226  10.437  0.00  0.00    +0.194 C 
BRANCH   8   9
ATOM      9  O   LIG    1       18.964 -32.792   9.878  0.00  0.00    -0.375 OA
BRANCH   9  10
ATOM     10  C   LIG    1       18.365 -31.559  10.326  0.00  0.00    +0.190 C 
BRANCH  10  12
ATOM     11  C   LIG    1       16.794 -32.816  11.728  0.00  0.00    +0.040 C 
ATOM     12  C   LIG    1       17.766 -31.670  11.742  0.00  0.00    +0.137 C 
BRANCH  12  13
ATOM     13  O   LIG    1       16.999 -30.549  12.189  0.00  0.00    -0.390 OA
ATOM     14  H   LIG    1       17.563 -29.992  12.766  0.00  0.00    +0.210 HD
ENDBRANCH  12  13
ENDBRANCH  10  12
ENDBRANCH   9  10
ENDBRANCH   8   9
ENDBRANCH   2   8
BRANCH   3  15
ATOM     15  O   LIG    1       21.654 -33.198  13.264  0.00  0.00    -0.369 OA
BRANCH  15  16
ATOM     16  C   LIG    1       21.658 -32.302  14.392  0.00  0.00    +0.191 C 
BRANCH  16  17
ATOM     17  C   LIG    1       20.222 -31.928  14.814  0.00  0.00    +0.137 C 
ATOM     18  C   LIG    1       19.269 -33.109  14.710  0.00  0.00    +0.040 C 
BRANCH  17  19
ATOM     19  O   LIG    1       19.750 -30.834  14.044  0.00  0.00    -0.390 OA
ATOM     20  H   LIG    1       18.892 -31.112  13.677  0.00  0.00    +0.210 HD
ENDBRANCH  17  19
ENDBRANCH  16  17
ENDBRANCH  15  16
ENDBRANCH   3  15
BRANCH   4  21
ATOM     21  O   LIG    1       24.468 -31.992  12.188  0.00  0.00    -0.369 OA
BRANCH  21  22
ATOM     22  C   LIG    1       24.836 -33.221  12.787  0.00  0.00    +0.191 C 
BRANCH  22  23
ATOM     23  C   LIG    1       25.852 -32.983  13.892  0.00  0.00    +0.137 C 
ATOM     24  C   LIG    1       25.192 -32.931  15.250  0.00  0.00    +0.040 C 
BRANCH  23  25
ATOM     25  O   LIG    1       26.504 -31.740  13.651  0.00  0.00    -0.390 OA
ATOM     26  H   LIG    1       27.141 -31.877  12.932  0.00  0.00    +0.210 HD
ENDBRANCH  23  25
ENDBRANCH  22  23
ENDBRANCH  21  22
ENDBRANCH   4  21
BRANCH   5  27
ATOM     27  O   LIG    1       21.910 -29.292  12.307  0.00  0.00    -0.366 OA
BRANCH  27  28
ATOM     28  C   LIG    1       22.279 -28.522  13.478  0.00  0.00    +0.191 C 
BRANCH  28  29
ATOM     29  C   LIG    1       22.102 -26.995  13.303  0.00  0.00    +0.137 C 
ATOM     30  C   LIG    1       23.374 -26.184  13.550  0.00  0.00    +0.040 C 
BRANCH  29  31
ATOM     31  O   LIG    1       21.050 -26.533  14.152  0.00  0.00    -0.390 OA
ATOM     32  H   LIG    1       20.372 -27.231  14.199  0.00  0.00    +0.210 HD
ENDBRANCH  29  31
ENDBRANCH  28  29
ENDBRANCH  27  28
ENDBRANCH   5  27
ENDBRANCH   1   6
BRANCH   1  33
ATOM     33  C   LIG    1       24.127 -29.801   8.261  0.00  0.00    +0.184 C 
ATOM     34  C   LIG    1       23.848 -30.204   6.775  0.00  0.00    +0.178 C 
ATOM     35  O   LIG    1       23.712 -28.929   6.105  0.00  0.00    -0.341 OA
ATOM     36  C   LIG    1       24.920 -28.162   6.006  0.00  0.00    +0.282 C 
ATOM     37  C   LIG    1       25.547 -27.846   7.394  0.00  0.00    +0.205 C 
ATOM     38  C   LIG    1       25.423 -28.981   8.454  0.00  0.00    +0.183 C 
BRANCH  38  39
ATOM     39  O   LIG    1       26.586 -29.644   8.988  0.00  0.00    -0.369 OA
BRANCH  39  40
ATOM     40  C   LIG    1       26.698 -30.126  10.320  0.00  0.00    +0.191 C 
BRANCH  40  41
ATOM     41  C   LIG    1       27.398 -29.229  11.369  0.00  0.00    +0.137 C 
ATOM     42  C   LIG    1       26.915 -27.778  11.317  0.00  0.00    +0.040 C 
BRANCH  41  43
ATOM     43  O   LIG    1       28.796 -29.215  11.227  0.00  0.00    -0.390 OA
ATOM     44  H   LIG    1       29.169 -28.994  12.099  0.00  0.00    +0.210 HD
ENDBRANCH  41  43
ENDBRANCH  40  41
ENDBRANCH  39  40
ENDBRANCH  38  39
BRANCH  37  45
ATOM     45  O   LIG    1       26.857 -27.293   7.254  0.00  0.00    -0.366 OA
BRANCH  45  46
ATOM     46  C   LIG    1       27.060 -26.339   6.202  0.00  0.00    +0.191 C 
BRANCH  46  47
ATOM     47  C   LIG    1       27.970 -26.750   5.021  0.00  0.00    +0.137 C 
ATOM     48  C   LIG    1       27.490 -27.945   4.192  0.00  0.00    +0.040 C 
BRANCH  47  49
ATOM     49  O   LIG    1       29.308 -26.948   5.484  0.00  0.00    -0.390 OA
ATOM     50  H   LIG    1       29.651 -26.120   5.858  0.00  0.00    +0.210 HD
ENDBRANCH  47  49
ENDBRANCH  46  47
ENDBRANCH  45  46
ENDBRANCH  37  45
BRANCH  36  51
ATOM     51  O   LIG    1       24.577 -26.901   5.383  0.00  0.00    -0.346 OA
BRANCH  51  52
ATOM     52  C   LIG    1       23.783 -26.028   6.198  0.00  0.00    +0.194 C 
BRANCH  52  53
ATOM     53  C   LIG    1       24.303 -24.583   6.186  0.00  0.00    +0.137 C 
ATOM     54  C   LIG    1       23.247 -23.606   6.694  0.00  0.00    +0.040 C 
BRANCH  53  55
ATOM     55  O   LIG    1       24.613 -24.165   4.865  0.00  0.00    -0.390 OA
ATOM     56  H   LIG    1       25.525 -23.909   4.850  0.00  0.00    +0.210 HD
ENDBRANCH  53  55
ENDBRANCH  52  53
ENDBRANCH  51  52
ENDBRANCH  36  51
BRANCH  34  57
ATOM     57  C   LIG    1       24.687 -31.082   5.800  0.00  0.00    +0.194 C 
BRANCH  57  58
ATOM     58  O   LIG    1       24.700 -32.501   5.935  0.00  0.00    -0.375 OA
BRANCH  58  59
ATOM     59  C   LIG    1       25.304 -33.073   7.088  0.00  0.00    +0.190 C 
BRANCH  59  60
ATOM     60  C   LIG    1       24.394 -33.817   8.049  0.00  0.00    +0.137 C 
ATOM     61  C   LIG    1       22.967 -33.800   7.541  0.00  0.00    +0.040 C 
BRANCH  60  62
ATOM     62  O   LIG    1       24.418 -33.266   9.357  0.00  0.00    -0.390 OA
ATOM     63  H   LIG    1       25.279 -33.459   9.769  0.00  0.00    +0.210 HD
ENDBRANCH  60  62
ENDBRANCH  59  60
ENDBRANCH  58  59
ENDBRANCH  57  58
ENDBRANCH  34  57
ENDBRANCH   1  33
TORSDOF 36
ENDMDL
MODEL 5
REMARK VINA RESULT:      -2.8      1.569      3.124
REMARK  Name = *****
REMARK                            x       y       z     vdW  Elec       q    Type
REMARK                         _______ _______ _______ _____ _____    ______ ____
ROOT
ATOM      1  O   LIG    1       23.763 -30.552   9.742  0.00  0.00    -0.340 OA
ENDROOT
BRANCH   1   6
ATOM      2  C   LIG    1       20.824 -32.248  10.767  0.00  0.00    +0.178 C 
ATOM      3  C   LIG    1       21.716 -32.917  11.792  0.00  0.00    +0.181 C 
ATOM      4  C   LIG    1       22.730 -31.965  12.491  0.00  0.00    +0.183 C 
ATOM      5  C   LIG    1       22.656 -30.518  11.988  0.00  0.00    +0.205 C 
ATOM      6  C   LIG    1       22.542 -30.521  10.451  0.00  0.00    +0.282 C 
ATOM      7  O   LIG    1       21.793 -31.629   9.913  0.00  0.00    -0.341 OA
BRANCH   2   8
ATOM      8  C   LIG    1       19.905 -33.133   9.837  0.00  0.00    +0.194 C 
BRANCH   8   9
ATOM      9  O   LIG    1       18.464 -32.908   9.895  0.00  0.00    -0.375 OA
BRANCH   9  10
ATOM     10  C   LIG    1       17.953 -31.627  10.317  0.00  0.00    +0.190 C 
BRANCH  10  12
ATOM     11  C   LIG    1       16.431 -31.200  12.191  0.00  0.00    +0.040 C 
ATOM     12  C   LIG    1       17.864 -31.498  11.850  0.00  0.00    +0.137 C 
BRANCH  12  13
ATOM     13  O   LIG    1       18.607 -30.425  12.434  0.00  0.00    -0.390 OA
ATOM     14  H   LIG    1       19.436 -30.786  12.813  0.00  0.00    +0.210 HD
ENDBRANCH  12  13
ENDBRANCH  10  12
ENDBRANCH   9  10
ENDBRANCH   8   9
ENDBRANCH   2   8
BRANCH   3  15
ATOM     15  O   LIG    1       21.043 -33.769  12.717  0.00  0.00    -0.369 OA
BRANCH  15  16
ATOM     16  C   LIG    1       21.428 -33.411  14.058  0.00  0.00    +0.191 C 
BRANCH  16  17
ATOM     17  C   LIG    1       20.218 -32.905  14.871  0.00  0.00    +0.137 C 
ATOM     18  C   LIG    1       18.954 -33.695  14.568  0.00  0.00    +0.040 C 
BRANCH  17  19
ATOM     19  O   LIG    1       20.013 -31.521  14.640  0.00  0.00    -0.390 OA
ATOM     20  H   LIG    1       20.882 -31.157  14.394  0.00  0.00    +0.210 HD
ENDBRANCH  17  19
ENDBRANCH  16  17
ENDBRANCH  15  16
ENDBRANCH   3  15
BRANCH   4  21
ATOM     21  O   LIG    1       24.001 -32.561  12.152  0.00  0.00    -0.369 OA
BRANCH  21  22
ATOM     22  C   LIG    1       24.023 -33.824  11.511  0.00  0.00    +0.191 C 
BRANCH  22  23
ATOM     23  C   LIG    1       24.852 -33.752  10.239  0.00  0.00    +0.137 C 
ATOM     24  C   LIG    1       25.931 -32.699  10.340  0.00  0.00    +0.040 C 
BRANCH  23  25
ATOM     25  O   LIG    1       23.992 -33.425   9.153  0.00  0.00    -0.390 OA
ATOM     26  H   LIG    1       24.225 -32.531   8.853  0.00  0.00    +0.210 HD
ENDBRANCH  23  25
ENDBRANCH  22  23
ENDBRANCH  21  22
ENDBRANCH   4  21
BRANCH   5  27
ATOM     27  O   LIG    1       21.576 -29.777  12.613  0.00  0.00    -0.366 OA
BRANCH  27  28
ATOM     28  C   LIG    1       21.720 -28.336  12.564  0.00  0.00    +0.191 C 
BRANCH  28  29
ATOM     29  C   LIG    1       22.975 -27.807  13.298  0.00  0.00    +0.137 C 
ATOM     30  C   LIG    1       22.913 -26.322  13.655  0.00  0.00    +0.040 C 
BRANCH  29  31
ATOM     31  O   LIG    1       24.140 -28.079  12.517  0.00  0.00    -0.390 OA
ATOM     32  H   LIG    1       24.922 -27.905  13.071  0.00  0.00    +0.210 HD
ENDBRANCH  29  31
ENDBRANCH  28  29
ENDBRANCH  27  28
ENDBRANCH   5  27
ENDBRANCH   1   6
BRANCH   1  33
ATOM     33  C   LIG    1       23.983 -29.914   8.489  0.00  0.00    +0.184 C 
ATOM     34  C   LIG    1       23.919 -30.510   7.044  0.00  0.00    +0.178 C 
ATOM     35  O   LIG    1       23.641 -29.353   6.220  0.00  0.00    -0.341 OA
ATOM     36  C   LIG    1       24.709 -28.403   6.125  0.00  0.00    +0.282 C 
ATOM     37  C   LIG    1       25.138 -27.840   7.511  0.00  0.00    +0.205 C 
ATOM     38  C   LIG    1       25.102 -28.864   8.684  0.00  0.00    +0.183 C 
BRANCH  38  39
ATOM     39  O   LIG    1       26.300 -29.256   9.382  0.00  0.00    -0.369 OA
BRANCH  39  40
ATOM     40  C   LIG    1       26.908 -28.505  10.423  0.00  0.00    +0.191 C 
BRANCH  40  41
ATOM     41  C   LIG    1       27.670 -29.270  11.532  0.00  0.00    +0.137 C 
ATOM     42  C   LIG    1       27.332 -28.761  12.935  0.00  0.00    +0.040 C 
BRANCH  41  43
ATOM     43  O   LIG    1       29.065 -29.201  11.382  0.00  0.00    -0.390 OA
ATOM     44  H   LIG    1       29.443 -29.946  11.882  0.00  0.00    +0.210 HD
ENDBRANCH  41  43
ENDBRANCH  40  41
ENDBRANCH  39  40
ENDBRANCH  38  39
BRANCH  37  45
ATOM     45  O   LIG    1       26.347 -27.084   7.409  0.00  0.00    -0.366 OA
BRANCH  45  46
ATOM     46  C   LIG    1       27.406 -27.640   6.617  0.00  0.00    +0.191 C 
BRANCH  46  47
ATOM     47  C   LIG    1       27.748 -26.942   5.279  0.00  0.00    +0.137 C 
ATOM     48  C   LIG    1       26.961 -27.420   4.056  0.00  0.00    +0.040 C 
BRANCH  47  49
ATOM     49  O   LIG    1       29.157 -27.007   5.044  0.00  0.00    -0.390 OA
ATOM     50  H   LIG    1       29.406 -27.909   4.785  0.00  0.00    +0.210 HD
ENDBRANCH  47  49
ENDBRANCH  46  47
ENDBRANCH  45  46
ENDBRANCH  37  45
BRANCH  36  51
ATOM     51  O   LIG    1       24.226 -27.292   5.333  0.00  0.00    -0.346 OA
BRANCH  51  52
ATOM     52  C   LIG    1       23.936 -26.103   6.083  0.00  0.00    +0.194 C 
BRANCH  52  53
ATOM     53  C   LIG    1       24.879 -24.944   5.730  0.00  0.00    +0.137 C 
ATOM     54  C   LIG    1       24.645 -23.739   6.636  0.00  0.00    +0.040 C 
BRANCH  53  55
ATOM     55  O   LIG    1       24.645 -24.484   4.407  0.00  0.00    -0.390 OA
ATOM     56  H   LIG    1       25.471 -24.510   3.943  0.00  0.00    +0.210 HD
ENDBRANCH  53  55
ENDBRANCH  52  53
ENDBRANCH  51  52
ENDBRANCH  36  51
BRANCH  34  57
ATOM     57  C   LIG    1       24.982 -31.324   6.248  0.00  0.00    +0.194 C 
BRANCH  57  58
ATOM     58  O   LIG    1       24.686 -31.816   4.943  0.00  0.00    -0.375 OA
BRANCH  58  59
ATOM     59  C   LIG    1       24.829 -33.207   4.688  0.00  0.00    +0.190 C 
BRANCH  59  60
ATOM     60  C   LIG    1       25.719 -33.608   3.526  0.00  0.00    +0.137 C 
ATOM     61  C   LIG    1       27.179 -33.458   3.905  0.00  0.00    +0.040 C 
BRANCH  60  62
ATOM     62  O   LIG    1       25.471 -32.839   2.359  0.00  0.00    -0.390 OA
ATOM     63  H   LIG    1       24.869 -32.106   2.582  0.00  0.00    +0.210 HD
ENDBRANCH  60  62
ENDBRANCH  59  60
ENDBRANCH  58  59
ENDBRANCH  57  58
ENDBRANCH  34  57
ENDBRANCH   1  33
TORSDOF 36
ENDMDL
MODEL 6
REMARK VINA RESULT:      -2.6      1.588      4.156
REMARK  Name = *****
REMARK                            x       y       z     vdW  Elec       q    Type
REMARK                         _______ _______ _______ _____ _____    ______ ____
ROOT
ATOM      1  O   LIG    1       22.485 -32.497  10.176  0.00  0.00    -0.340 OA
ENDROOT
BRANCH   1   6
ATOM      2  C   LIG    1       21.129 -31.050  13.114  0.00  0.00    +0.178 C 
ATOM      3  C   LIG    1       20.068 -32.126  13.006  0.00  0.00    +0.181 C 
ATOM      4  C   LIG    1       20.610 -33.536  12.630  0.00  0.00    +0.183 C 
ATOM      5  C   LIG    1       22.127 -33.570  12.410  0.00  0.00    +0.205 C 
ATOM      6  C   LIG    1       22.545 -32.341  11.578  0.00  0.00    +0.282 C 
ATOM      7  O   LIG    1       21.767 -31.156  11.836  0.00  0.00    -0.341 OA
BRANCH   2   8
ATOM      8  C   LIG    1       20.694 -29.541  13.276  0.00  0.00    +0.194 C 
BRANCH   8   9
ATOM      9  O   LIG    1       20.771 -28.952  14.609  0.00  0.00    -0.375 OA
BRANCH   9  10
ATOM     10  C   LIG    1       21.419 -27.677  14.795  0.00  0.00    +0.190 C 
BRANCH  10  12
ATOM     11  C   LIG    1       23.865 -27.530  14.880  0.00  0.00    +0.040 C 
ATOM     12  C   LIG    1       22.693 -27.528  13.940  0.00  0.00    +0.137 C 
BRANCH  12  13
ATOM     13  O   LIG    1       22.817 -26.306  13.208  0.00  0.00    -0.390 OA
ATOM     14  H   LIG    1       23.711 -25.936  13.363  0.00  0.00    +0.210 HD
ENDBRANCH  12  13
ENDBRANCH  10  12
ENDBRANCH   9  10
ENDBRANCH   8   9
ENDBRANCH   2   8
BRANCH   3  15
ATOM     15  O   LIG    1       19.137 -32.170  14.086  0.00  0.00    -0.369 OA
BRANCH  15  16
ATOM     16  C   LIG    1       17.826 -31.830  13.596  0.00  0.00    +0.191 C 
BRANCH  16  17
ATOM     17  C   LIG    1       17.067 -30.939  14.601  0.00  0.00    +0.137 C 
ATOM     18  C   LIG    1       15.841 -30.289  13.978  0.00  0.00    +0.040 C 
BRANCH  17  19
ATOM     19  O   LIG    1       17.935 -29.957  15.143  0.00  0.00    -0.390 OA
ATOM     20  H   LIG    1       18.839 -30.294  15.010  0.00  0.00    +0.210 HD
ENDBRANCH  17  19
ENDBRANCH  16  17
ENDBRANCH  15  16
ENDBRANCH   3  15
BRANCH   4  21
ATOM     21  O   LIG    1       19.907 -33.822  11.402  0.00  0.00    -0.369 OA
BRANCH  21  22
ATOM     22  C   LIG    1       18.647 -33.221  11.170  0.00  0.00    +0.191 C 
BRANCH  22  23
ATOM     23  C   LIG    1       18.628 -32.552   9.805  0.00  0.00    +0.137 C 
ATOM     24  C   LIG    1       18.277 -31.086   9.912  0.00  0.00    +0.040 C 
BRANCH  23  25
ATOM     25  O   LIG    1       17.652 -33.198   8.994  0.00  0.00    -0.390 OA
ATOM     26  H   LIG    1       17.952 -33.142   8.073  0.00  0.00    +0.210 HD
ENDBRANCH  23  25
ENDBRANCH  22  23
ENDBRANCH  21  22
ENDBRANCH   4  21
BRANCH   5  27
ATOM     27  O   LIG    1       22.859 -33.655  13.661  0.00  0.00    -0.366 OA
BRANCH  27  28
ATOM     28  C   LIG    1       24.278 -33.383  13.553  0.00  0.00    +0.191 C 
BRANCH  28  29
ATOM     29  C   LIG    1       24.911 -32.833  14.854  0.00  0.00    +0.137 C 
ATOM     30  C   LIG    1       24.580 -31.369  15.141  0.00  0.00    +0.040 C 
BRANCH  29  31
ATOM     31  O   LIG    1       26.327 -33.021  14.816  0.00  0.00    -0.390 OA
ATOM     32  H   LIG    1       26.750 -32.173  15.039  0.00  0.00    +0.210 HD
ENDBRANCH  29  31
ENDBRANCH  28  29
ENDBRANCH  27  28
ENDBRANCH   5  27
ENDBRANCH   1   6
BRANCH   1  33
ATOM     33  C   LIG    1       23.195 -31.688   9.244  0.00  0.00    +0.184 C 
ATOM     34  C   LIG    1       23.213 -31.753   7.681  0.00  0.00    +0.178 C 
ATOM     35  O   LIG    1       23.586 -30.408   7.298  0.00  0.00    -0.341 OA
ATOM     36  C   LIG    1       24.933 -30.036   7.617  0.00  0.00    +0.282 C 
ATOM     37  C   LIG    1       25.242 -30.143   9.139  0.00  0.00    +0.205 C 
ATOM     38  C   LIG    1       24.564 -31.337   9.873  0.00  0.00    +0.183 C 
BRANCH  38  39
ATOM     39  O   LIG    1       25.339 -32.395  10.469  0.00  0.00    -0.369 OA
BRANCH  39  40
ATOM     40  C   LIG    1       25.546 -33.672   9.883  0.00  0.00    +0.191 C 
BRANCH  40  41
ATOM     41  C   LIG    1       26.669 -33.824   8.829  0.00  0.00    +0.137 C 
ATOM     42  C   LIG    1       27.724 -32.721   8.934  0.00  0.00    +0.040 C 
BRANCH  41  43
ATOM     43  O   LIG    1       26.183 -33.822   7.511  0.00  0.00    -0.390 OA
ATOM     44  H   LIG    1       25.243 -34.072   7.553  0.00  0.00    +0.210 HD
ENDBRANCH  41  43
ENDBRANCH  40  41
ENDBRANCH  39  40
ENDBRANCH  38  39
BRANCH  37  45
ATOM     45  O   LIG    1       26.641 -29.996   9.392  0.00  0.00    -0.366 OA
BRANCH  45  46
ATOM     46  C   LIG    1       27.077 -28.764   9.983  0.00  0.00    +0.191 C 
BRANCH  46  47
ATOM     47  C   LIG    1       26.883 -28.588  11.508  0.00  0.00    +0.137 C 
ATOM     48  C   LIG    1       27.304 -29.777  12.376  0.00  0.00    +0.040 C 
BRANCH  47  49
ATOM     49  O   LIG    1       25.535 -28.199  11.785  0.00  0.00    -0.390 OA
ATOM     50  H   LIG    1       24.965 -28.985  11.812  0.00  0.00    +0.210 HD
ENDBRANCH  47  49
ENDBRANCH  46  47
ENDBRANCH  45  46
ENDBRANCH  37  45
BRANCH  36  51
ATOM     51  O   LIG    1       25.097 -28.650   7.233  0.00  0.00    -0.346 OA
BRANCH  51  52
ATOM     52  C   LIG    1       24.540 -28.313   5.955  0.00  0.00    +0.194 C 
BRANCH  52  53
ATOM     53  C   LIG    1       25.244 -27.112   5.308  0.00  0.00    +0.137 C 
ATOM     54  C   LIG    1       26.134 -26.380   6.309  0.00  0.00    +0.040 C 
BRANCH  53  55
ATOM     55  O   LIG    1       24.301 -26.152   4.855  0.00  0.00    -0.390 OA
ATOM     56  H   LIG    1       23.438 -26.459   5.099  0.00  0.00    +0.210 HD
ENDBRANCH  53  55
ENDBRANCH  52  53
ENDBRANCH  51  52
ENDBRANCH  36  51
BRANCH  34  57
ATOM     57  C   LIG    1       24.020 -32.681   6.726  0.00  0.00    +0.194 C 
BRANCH  57  58
ATOM     58  O   LIG    1       24.185 -32.336   5.353  0.00  0.00    -0.375 OA
BRANCH  58  59
ATOM     59  C   LIG    1       24.201 -33.376   4.383  0.00  0.00    +0.190 C 
BRANCH  59  60
ATOM     60  C   LIG    1       25.514 -33.631   3.665  0.00  0.00    +0.137 C 
ATOM     61  C   LIG    1       26.587 -32.694   4.182  0.00  0.00    +0.040 C 
BRANCH  60  62
ATOM     62  O   LIG    1       25.406 -33.467   2.259  0.00  0.00    -0.390 OA
ATOM     63  H   LIG    1       24.995 -32.605   2.069  0.00  0.00    +0.210 HD
ENDBRANCH  60  62
ENDBRANCH  59  60
ENDBRANCH  58  59
ENDBRANCH  57  58
ENDBRANCH  34  57
ENDBRANCH   1  33
TORSDOF 36
ENDMDL
MODEL 7
REMARK VINA RESULT:      -2.6      1.723      2.314
REMARK  Name = *****
REMARK                            x       y       z     vdW  Elec       q    Type
REMARK                         _______ _______ _______ _____ _____    ______ ____
ROOT
ATOM      1  O   LIG    1       22.719 -31.239  11.415  0.00  0.00    -0.340 OA
ENDROOT
BRANCH   1   6
ATOM      2  C   LIG    1       19.645 -32.465  12.685  0.00  0.00    +0.178 C 
ATOM      3  C   LIG    1       20.303 -32.348  14.045  0.00  0.00    +0.181 C 
ATOM      4  C   LIG    1       21.133 -31.048  14.255  0.00  0.00    +0.183 C 
ATOM      5  C   LIG    1       21.154 -30.131  13.026  0.00  0.00    +0.205 C 
ATOM      6  C   LIG    1       21.374 -30.985  11.761  0.00  0.00    +0.282 C 
ATOM      7  O   LIG    1       20.769 -32.292  11.814  0.00  0.00    -0.341 OA
BRANCH   2   8
ATOM      8  C   LIG    1       18.957 -33.823  12.267  0.00  0.00    +0.194 C 
BRANCH   8   9
ATOM      9  O   LIG    1       17.543 -33.784  11.907  0.00  0.00    -0.375 OA
BRANCH   9  10
ATOM     10  C   LIG    1       17.156 -33.598  10.530  0.00  0.00    +0.190 C 
BRANCH  10  12
ATOM     11  C   LIG    1       18.045 -31.599   9.426  0.00  0.00    +0.040 C 
ATOM     12  C   LIG    1       18.306 -33.060   9.658  0.00  0.00    +0.137 C 
BRANCH  12  13
ATOM     13  O   LIG    1       18.416 -33.622   8.347  0.00  0.00    -0.390 OA
ATOM     14  H   LIG    1       17.575 -34.072   8.127  0.00  0.00    +0.210 HD
ENDBRANCH  12  13
ENDBRANCH  10  12
ENDBRANCH   9  10
ENDBRANCH   8   9
ENDBRANCH   2   8
BRANCH   3  15
ATOM     15  O   LIG    1       19.455 -32.638  15.155  0.00  0.00    -0.369 OA
BRANCH  15  16
ATOM     16  C   LIG    1       18.086 -32.679  14.707  0.00  0.00    +0.191 C 
BRANCH  16  17
ATOM     17  C   LIG    1       17.229 -31.618  15.429  0.00  0.00    +0.137 C 
ATOM     18  C   LIG    1       15.872 -31.433  14.769  0.00  0.00    +0.040 C 
BRANCH  17  19
ATOM     19  O   LIG    1       17.926 -30.385  15.499  0.00  0.00    -0.390 OA
ATOM     20  H   LIG    1       18.871 -30.605  15.411  0.00  0.00    +0.210 HD
ENDBRANCH  17  19
ENDBRANCH  16  17
ENDBRANCH  15  16
ENDBRANCH   3  15
BRANCH   4  21
ATOM     21  O   LIG    1       22.452 -31.564  14.533  0.00  0.00    -0.369 OA
BRANCH  21  22
ATOM     22  C   LIG    1       23.307 -30.844  15.403  0.00  0.00    +0.191 C 
BRANCH  22  23
ATOM     23  C   LIG    1       24.492 -30.287  14.633  0.00  0.00    +0.137 C 
ATOM     24  C   LIG    1       25.773 -30.405  15.424  0.00  0.00    +0.040 C 
BRANCH  23  25
ATOM     25  O   LIG    1       24.249 -28.911  14.356  0.00  0.00    -0.390 OA
ATOM     26  H   LIG    1       23.741 -28.863  13.530  0.00  0.00    +0.210 HD
ENDBRANCH  23  25
ENDBRANCH  22  23
ENDBRANCH  21  22
ENDBRANCH   4  21
BRANCH   5  27
ATOM     27  O   LIG    1       19.958 -29.316  12.931  0.00  0.00    -0.366 OA
BRANCH  27  28
ATOM     28  C   LIG    1       19.847 -28.280  13.938  0.00  0.00    +0.191 C 
BRANCH  28  29
ATOM     29  C   LIG    1       20.948 -27.196  13.845  0.00  0.00    +0.137 C 
ATOM     30  C   LIG    1       21.394 -26.639  15.196  0.00  0.00    +0.040 C 
BRANCH  29  31
ATOM     31  O   LIG    1       20.507 -26.136  12.995  0.00  0.00    -0.390 OA
ATOM     32  H   LIG    1       21.294 -25.719  12.601  0.00  0.00    +0.210 HD
ENDBRANCH  29  31
ENDBRANCH  28  29
ENDBRANCH  27  28
ENDBRANCH   5  27
ENDBRANCH   1   6
BRANCH   1  33
ATOM     33  C   LIG    1       23.374 -30.692  10.275  0.00  0.00    +0.184 C 
ATOM     34  C   LIG    1       23.255 -31.097   8.769  0.00  0.00    +0.178 C 
ATOM     35  O   LIG    1       23.641 -29.890   8.070  0.00  0.00    -0.341 OA
ATOM     36  C   LIG    1       25.023 -29.532   8.194  0.00  0.00    +0.282 C 
ATOM     37  C   LIG    1       25.459 -29.320   9.673  0.00  0.00    +0.205 C 
ATOM     38  C   LIG    1       24.804 -30.287  10.703  0.00  0.00    +0.183 C 
BRANCH  38  39
ATOM     39  O   LIG    1       25.590 -31.230  11.459  0.00  0.00    -0.369 OA
BRANCH  39  40
ATOM     40  C   LIG    1       25.857 -32.565  11.053  0.00  0.00    +0.191 C 
BRANCH  40  41
ATOM     41  C   LIG    1       25.409 -33.718  11.983  0.00  0.00    +0.137 C 
ATOM     42  C   LIG    1       23.887 -33.823  12.098  0.00  0.00    +0.040 C 
BRANCH  41  43
ATOM     43  O   LIG    1       25.924 -33.600  13.284  0.00  0.00    -0.390 OA
ATOM     44  H   LIG    1       25.230 -33.189  13.830  0.00  0.00    +0.210 HD
ENDBRANCH  41  43
ENDBRANCH  40  41
ENDBRANCH  39  40
ENDBRANCH  38  39
BRANCH  37  45
ATOM     45  O   LIG    1       26.879 -29.198   9.779  0.00  0.00    -0.366 OA
BRANCH  45  46
ATOM     46  C   LIG    1       27.390 -28.320  10.792  0.00  0.00    +0.191 C 
BRANCH  46  47
ATOM     47  C   LIG    1       27.240 -28.759  12.268  0.00  0.00    +0.137 C 
ATOM     48  C   LIG    1       27.414 -27.655  13.314  0.00  0.00    +0.040 C 
BRANCH  47  49
ATOM     49  O   LIG    1       28.105 -29.865  12.537  0.00  0.00    -0.390 OA
ATOM     50  H   LIG    1       27.635 -30.698  12.368  0.00  0.00    +0.210 HD
ENDBRANCH  47  49
ENDBRANCH  46  47
ENDBRANCH  45  46
ENDBRANCH  37  45
BRANCH  36  51
ATOM     51  O   LIG    1       25.204 -28.273   7.501  0.00  0.00    -0.346 OA
BRANCH  51  52
ATOM     52  C   LIG    1       24.592 -28.211   6.205  0.00  0.00    +0.194 C 
BRANCH  52  53
ATOM     53  C   LIG    1       24.624 -26.796   5.610  0.00  0.00    +0.137 C 
ATOM     54  C   LIG    1       26.045 -26.241   5.566  0.00  0.00    +0.040 C 
BRANCH  53  55
ATOM     55  O   LIG    1       23.879 -25.890   6.410  0.00  0.00    -0.390 OA
ATOM     56  H   LIG    1       24.484 -25.461   6.999  0.00  0.00    +0.210 HD
ENDBRANCH  53  55
ENDBRANCH  52  53
ENDBRANCH  51  52
ENDBRANCH  36  51
BRANCH  34  57
ATOM     57  C   LIG    1       23.942 -32.254   7.985  0.00  0.00    +0.194 C 
BRANCH  57  58
ATOM     58  O   LIG    1       23.178 -33.360   7.513  0.00  0.00    -0.375 OA
BRANCH  58  59
ATOM     59  C   LIG    1       22.925 -33.473   6.118  0.00  0.00    +0.190 C 
BRANCH  59  60
ATOM     60  C   LIG    1       23.994 -32.946   5.178  0.00  0.00    +0.137 C 
ATOM     61  C   LIG    1       25.286 -33.715   5.367  0.00  0.00    +0.040 C 
BRANCH  60  62
ATOM     62  O   LIG    1       24.255 -31.564   5.370  0.00  0.00    -0.390 OA
ATOM     63  H   LIG    1       23.457 -31.054   5.143  0.00  0.00    +0.210 HD
ENDBRANCH  60  62
ENDBRANCH  59  60
ENDBRANCH  58  59
ENDBRANCH  57  58
ENDBRANCH  34  57
ENDBRANCH   1  33
TORSDOF 36
ENDMDL
MODEL 8
REMARK VINA RESULT:      -2.5      2.355      6.784
REMARK  Name = *****
REMARK                            x       y       z     vdW  Elec       q    Type
REMARK                         _______ _______ _______ _____ _____    ______ ____
ROOT
ATOM      1  O   LIG    1       24.575 -31.111  11.687  0.00  0.00    -0.340 OA
ENDROOT
BRANCH   1   6
ATOM      2  C   LIG    1       24.414 -28.071  13.503  0.00  0.00    +0.178 C 
ATOM      3  C   LIG    1       23.357 -28.768  14.336  0.00  0.00    +0.181 C 
ATOM      4  C   LIG    1       23.689 -30.245  14.701  0.00  0.00    +0.183 C 
ATOM      5  C   LIG    1       25.022 -30.733  14.122  0.00  0.00    +0.205 C 
ATOM      6  C   LIG    1       25.143 -30.259  12.660  0.00  0.00    +0.282 C 
ATOM      7  O   LIG    1       24.543 -28.975  12.400  0.00  0.00    -0.341 OA
BRANCH   2   8
ATOM      8  C   LIG    1       24.107 -26.650  12.886  0.00  0.00    +0.194 C 
BRANCH   8   9
ATOM      9  O   LIG    1       24.312 -25.483  13.738  0.00  0.00    -0.375 OA
BRANCH   9  10
ATOM     10  C   LIG    1       25.475 -24.651  13.550  0.00  0.00    +0.190 C 
BRANCH  10  12
ATOM     11  C   LIG    1       26.404 -25.811  15.500  0.00  0.00    +0.040 C 
ATOM     12  C   LIG    1       26.754 -25.275  14.140  0.00  0.00    +0.137 C 
BRANCH  12  13
ATOM     13  O   LIG    1       27.842 -24.377  14.374  0.00  0.00    -0.390 OA
ATOM     14  H   LIG    1       28.667 -24.789  14.043  0.00  0.00    +0.210 HD
ENDBRANCH  12  13
ENDBRANCH  10  12
ENDBRANCH   9  10
ENDBRANCH   8   9
ENDBRANCH   2   8
BRANCH   3  15
ATOM     15  O   LIG    1       22.880 -28.024  15.455  0.00  0.00    -0.369 OA
BRANCH  15  16
ATOM     16  C   LIG    1       21.442 -28.099  15.496  0.00  0.00    +0.191 C 
BRANCH  16  17
ATOM     17  C   LIG    1       20.801 -27.051  14.561  0.00  0.00    +0.137 C 
ATOM     18  C   LIG    1       19.295 -26.958  14.754  0.00  0.00    +0.040 C 
BRANCH  17  19
ATOM     19  O   LIG    1       21.117 -27.338  13.209  0.00  0.00    -0.390 OA
ATOM     20  H   LIG    1       20.269 -27.354  12.731  0.00  0.00    +0.210 HD
ENDBRANCH  17  19
ENDBRANCH  16  17
ENDBRANCH  15  16
ENDBRANCH   3  15
BRANCH   4  21
ATOM     21  O   LIG    1       22.582 -30.965  14.118  0.00  0.00    -0.369 OA
BRANCH  21  22
ATOM     22  C   LIG    1       21.679 -31.651  14.966  0.00  0.00    +0.191 C 
BRANCH  22  23
ATOM     23  C   LIG    1       21.394 -33.039  14.416  0.00  0.00    +0.137 C 
ATOM     24  C   LIG    1       22.396 -33.431  13.355  0.00  0.00    +0.040 C 
BRANCH  23  25
ATOM     25  O   LIG    1       20.092 -33.042  13.840  0.00  0.00    -0.390 OA
ATOM     26  H   LIG    1       20.032 -33.814  13.254  0.00  0.00    +0.210 HD
ENDBRANCH  23  25
ENDBRANCH  22  23
ENDBRANCH  21  22
ENDBRANCH   4  21
BRANCH   5  27
ATOM     27  O   LIG    1       26.155 -30.312  14.926  0.00  0.00    -0.366 OA
BRANCH  27  28
ATOM     28  C   LIG    1       27.446 -30.740  14.428  0.00  0.00    +0.191 C 
BRANCH  28  29
ATOM     29  C   LIG    1       28.624 -29.853  14.896  0.00  0.00    +0.137 C 
ATOM     30  C   LIG    1       28.438 -28.363  14.610  0.00  0.00    +0.040 C 
BRANCH  29  31
ATOM     31  O   LIG    1       29.840 -30.320  14.309  0.00  0.00    -0.390 OA
ATOM     32  H   LIG    1       30.550 -30.219  14.968  0.00  0.00    +0.210 HD
ENDBRANCH  29  31
ENDBRANCH  28  29
ENDBRANCH  27  28
ENDBRANCH   5  27
ENDBRANCH   1   6
BRANCH   1  33
ATOM     33  C   LIG    1       25.249 -31.556  10.514  0.00  0.00    +0.184 C 
ATOM     34  C   LIG    1       26.493 -30.945   9.790  0.00  0.00    +0.178 C 
ATOM     35  O   LIG    1       27.053 -32.076   9.082  0.00  0.00    -0.341 OA
ATOM     36  C   LIG    1       26.260 -32.567   7.994  0.00  0.00    +0.282 C 
ATOM     37  C   LIG    1       24.836 -33.011   8.440  0.00  0.00    +0.205 C 
ATOM     38  C   LIG    1       24.186 -32.137   9.552  0.00  0.00    +0.183 C 
BRANCH  38  39
ATOM     39  O   LIG    1       22.987 -31.375   9.310  0.00  0.00    -0.369 OA
BRANCH  39  40
ATOM     40  C   LIG    1       21.667 -31.882   9.455  0.00  0.00    +0.191 C 
BRANCH  40  41
ATOM     41  C   LIG    1       20.935 -31.649  10.799  0.00  0.00    +0.137 C 
ATOM     42  C   LIG    1       19.466 -31.265  10.608  0.00  0.00    +0.040 C 
BRANCH  41  43
ATOM     43  O   LIG    1       21.536 -30.648  11.580  0.00  0.00    -0.390 OA
ATOM     44  H   LIG    1       20.822 -30.197  12.065  0.00  0.00    +0.210 HD
ENDBRANCH  41  43
ENDBRANCH  40  41
ENDBRANCH  39  40
ENDBRANCH  38  39
BRANCH  37  45
ATOM     45  O   LIG    1       24.000 -33.269   7.310  0.00  0.00    -0.366 OA
BRANCH  45  46
ATOM     46  C   LIG    1       24.643 -33.670   6.092  0.00  0.00    +0.191 C 
BRANCH  46  47
ATOM     47  C   LIG    1       24.261 -32.919   4.794  0.00  0.00    +0.137 C 
ATOM     48  C   LIG    1       23.539 -33.751   3.730  0.00  0.00    +0.040 C 
BRANCH  47  49
ATOM     49  O   LIG    1       25.413 -32.271   4.250  0.00  0.00    -0.390 OA
ATOM     50  H   LIG    1       25.466 -31.361   4.585  0.00  0.00    +0.210 HD
ENDBRANCH  47  49
ENDBRANCH  46  47
ENDBRANCH  45  46
ENDBRANCH  37  45
BRANCH  36  51
ATOM     51  O   LIG    1       26.935 -33.732   7.462  0.00  0.00    -0.346 OA
BRANCH  51  52
ATOM     52  C   LIG    1       28.355 -33.745   7.664  0.00  0.00    +0.194 C 
BRANCH  52  53
ATOM     53  C   LIG    1       29.128 -33.293   6.417  0.00  0.00    +0.137 C 
ATOM     54  C   LIG    1       28.475 -33.810   5.138  0.00  0.00    +0.040 C 
BRANCH  53  55
ATOM     55  O   LIG    1       30.446 -33.819   6.417  0.00  0.00    -0.390 OA
ATOM     56  H   LIG    1       30.439 -34.617   5.908  0.00  0.00    +0.210 HD
ENDBRANCH  53  55
ENDBRANCH  52  53
ENDBRANCH  51  52
ENDBRANCH  36  51
BRANCH  34  57
ATOM     57  C   LIG    1       26.585 -29.758   8.785  0.00  0.00    +0.194 C 
BRANCH  57  58
ATOM     58  O   LIG    1       25.495 -29.463   7.915  0.00  0.00    -0.375 OA
BRANCH  58  59
ATOM     59  C   LIG    1       25.396 -28.157   7.362  0.00  0.00    +0.190 C 
BRANCH  59  60
ATOM     60  C   LIG    1       24.837 -28.043   5.955  0.00  0.00    +0.137 C 
ATOM     61  C   LIG    1       25.952 -27.769   4.967  0.00  0.00    +0.040 C 
BRANCH  60  62
ATOM     62  O   LIG    1       23.863 -27.016   5.838  0.00  0.00    -0.390 OA
ATOM     63  H   LIG    1       23.510 -26.808   6.722  0.00  0.00    +0.210 HD
ENDBRANCH  60  62
ENDBRANCH  59  60
ENDBRANCH  58  59
ENDBRANCH  57  58
ENDBRANCH  34  57
ENDBRANCH   1  33
TORSDOF 36
ENDMDL
MODEL 9
REMARK VINA RESULT:      -2.1      1.785      4.542
REMARK  Name = *****
REMARK                            x       y       z     vdW  Elec       q    Type
REMARK                         _______ _______ _______ _____ _____    ______ ____
ROOT
ATOM      1  O   LIG    1       23.822 -31.480   9.416  0.00  0.00    -0.340 OA
ENDROOT
BRANCH   1   6
ATOM      2  C   LIG    1       22.852 -30.023  12.499  0.00  0.00    +0.178 C 
ATOM      3  C   LIG    1       22.136 -31.335  12.751  0.00  0.00    +0.181 C 
ATOM      4  C   LIG    1       22.942 -32.603  12.345  0.00  0.00    +0.183 C 
ATOM      5  C   LIG    1       24.313 -32.287  11.735  0.00  0.00    +0.205 C 
ATOM      6  C   LIG    1       24.166 -31.121  10.738  0.00  0.00    +0.282 C 
ATOM      7  O   LIG    1       23.175 -30.143  11.109  0.00  0.00    -0.341 OA
BRANCH   2   8
ATOM      8  C   LIG    1       22.068 -28.663  12.663  0.00  0.00    +0.194 C 
BRANCH   8   9
ATOM      9  O   LIG    1       22.179 -27.967  13.941  0.00  0.00    -0.375 OA
BRANCH   9  10
ATOM     10  C   LIG    1       21.548 -26.682  14.117  0.00  0.00    +0.190 C 
BRANCH  10  12
ATOM     11  C   LIG    1       19.490 -26.033  12.953  0.00  0.00    +0.040 C 
ATOM     12  C   LIG    1       20.010 -26.776  14.152  0.00  0.00    +0.137 C 
BRANCH  12  13
ATOM     13  O   LIG    1       19.367 -26.157  15.270  0.00  0.00    -0.390 OA
ATOM     14  H   LIG    1       18.410 -26.364  15.237  0.00  0.00    +0.210 HD
ENDBRANCH  12  13
ENDBRANCH  10  12
ENDBRANCH   9  10
ENDBRANCH   8   9
ENDBRANCH   2   8
BRANCH   3  15
ATOM     15  O   LIG    1       21.536 -31.459  14.039  0.00  0.00    -0.369 OA
BRANCH  15  16
ATOM     16  C   LIG    1       20.129 -31.727  13.883  0.00  0.00    +0.191 C 
BRANCH  16  17
ATOM     17  C   LIG    1       19.318 -30.418  13.782  0.00  0.00    +0.137 C 
ATOM     18  C   LIG    1       18.704 -30.021  15.116  0.00  0.00    +0.040 C 
BRANCH  17  19
ATOM     19  O   LIG    1       18.317 -30.533  12.784  0.00  0.00    -0.390 OA
ATOM     20  H   LIG    1       17.667 -31.173  13.126  0.00  0.00    +0.210 HD
ENDBRANCH  17  19
ENDBRANCH  16  17
ENDBRANCH  15  16
ENDBRANCH   3  15
BRANCH   4  21
ATOM     21  O   LIG    1       22.076 -33.222  11.369  0.00  0.00    -0.369 OA
BRANCH  21  22
ATOM     22  C   LIG    1       20.862 -33.812  11.797  0.00  0.00    +0.191 C 
BRANCH  22  23
ATOM     23  C   LIG    1       19.853 -33.818  10.661  0.00  0.00    +0.137 C 
ATOM     24  C   LIG    1       20.535 -33.792   9.314  0.00  0.00    +0.040 C 
BRANCH  23  25
ATOM     25  O   LIG    1       19.028 -32.663  10.779  0.00  0.00    -0.390 OA
ATOM     26  H   LIG    1       19.612 -31.890  10.844  0.00  0.00    +0.210 HD
ENDBRANCH  23  25
ENDBRANCH  22  23
ENDBRANCH  21  22
ENDBRANCH   4  21
BRANCH   5  27
ATOM     27  O   LIG    1       25.313 -32.013  12.750  0.00  0.00    -0.366 OA
BRANCH  27  28
ATOM     28  C   LIG    1       25.624 -33.133  13.615  0.00  0.00    +0.191 C 
BRANCH  28  29
ATOM     29  C   LIG    1       26.208 -32.722  14.987  0.00  0.00    +0.137 C 
ATOM     30  C   LIG    1       26.004 -31.249  15.340  0.00  0.00    +0.040 C 
BRANCH  29  31
ATOM     31  O   LIG    1       27.597 -33.054  15.037  0.00  0.00    -0.390 OA
ATOM     32  H   LIG    1       27.815 -33.559  14.233  0.00  0.00    +0.210 HD
ENDBRANCH  29  31
ENDBRANCH  28  29
ENDBRANCH  27  28
ENDBRANCH   5  27
ENDBRANCH   1   6
BRANCH   1  33
ATOM     33  C   LIG    1       23.986 -30.633   8.283  0.00  0.00    +0.184 C 
ATOM     34  C   LIG    1       23.613 -30.891   6.786  0.00  0.00    +0.178 C 
ATOM     35  O   LIG    1       23.451 -29.557   6.250  0.00  0.00    -0.341 OA
ATOM     36  C   LIG    1       24.658 -28.790   6.150  0.00  0.00    +0.282 C 
ATOM     37  C   LIG    1       25.371 -28.610   7.522  0.00  0.00    +0.205 C 
ATOM     38  C   LIG    1       25.301 -29.840   8.474  0.00  0.00    +0.183 C 
BRANCH  38  39
ATOM     39  O   LIG    1       26.486 -30.557   8.870  0.00  0.00    -0.369 OA
BRANCH  39  40
ATOM     40  C   LIG    1       27.405 -30.110   9.857  0.00  0.00    +0.191 C 
BRANCH  40  41
ATOM     41  C   LIG    1       26.842 -29.484  11.155  0.00  0.00    +0.137 C 
ATOM     42  C   LIG    1       27.053 -27.969  11.216  0.00  0.00    +0.040 C 
BRANCH  41  43
ATOM     43  O   LIG    1       27.407 -30.036  12.317  0.00  0.00    -0.390 OA
ATOM     44  H   LIG    1       27.672 -30.948  12.100  0.00  0.00    +0.210 HD
ENDBRANCH  41  43
ENDBRANCH  40  41
ENDBRANCH  39  40
ENDBRANCH  38  39
BRANCH  37  45
ATOM     45  O   LIG    1       26.676 -28.052   7.354  0.00  0.00    -0.366 OA
BRANCH  45  46
ATOM     46  C   LIG    1       26.819 -26.985   6.406  0.00  0.00    +0.191 C 
BRANCH  46  47
ATOM     47  C   LIG    1       27.270 -27.351   4.972  0.00  0.00    +0.137 C 
ATOM     48  C   LIG    1       28.744 -27.096   4.649  0.00  0.00    +0.040 C 
BRANCH  47  49
ATOM     49  O   LIG    1       26.415 -26.717   4.017  0.00  0.00    -0.390 OA
ATOM     50  H   LIG    1       25.498 -26.731   4.338  0.00  0.00    +0.210 HD
ENDBRANCH  47  49
ENDBRANCH  46  47
ENDBRANCH  45  46
ENDBRANCH  37  45
BRANCH  36  51
ATOM     51  O   LIG    1       24.291 -27.474   5.672  0.00  0.00    -0.346 OA
BRANCH  51  52
ATOM     52  C   LIG    1       24.072 -26.502   6.704  0.00  0.00    +0.194 C 
BRANCH  52  53
ATOM     53  C   LIG    1       24.005 -25.069   6.156  0.00  0.00    +0.137 C 
ATOM     54  C   LIG    1       25.113 -24.197   6.737  0.00  0.00    +0.040 C 
BRANCH  53  55
ATOM     55  O   LIG    1       22.786 -24.441   6.521  0.00  0.00    -0.390 OA
ATOM     56  H   LIG    1       22.145 -25.122   6.675  0.00  0.00    +0.210 HD
ENDBRANCH  53  55
ENDBRANCH  52  53
ENDBRANCH  51  52
ENDBRANCH  36  51
BRANCH  34  57
ATOM     57  C   LIG    1       24.383 -31.676   5.682  0.00  0.00    +0.194 C 
BRANCH  57  58
ATOM     58  O   LIG    1       25.769 -31.433   5.458  0.00  0.00    -0.375 OA
BRANCH  58  59
ATOM     59  C   LIG    1       26.587 -32.503   5.001  0.00  0.00    +0.190 C 
BRANCH  59  60
ATOM     60  C   LIG    1       26.158 -33.203   3.724  0.00  0.00    +0.137 C 
ATOM     61  C   LIG    1       27.364 -33.771   3.005  0.00  0.00    +0.040 C 
BRANCH  60  62
ATOM     62  O   LIG    1       25.464 -32.339   2.836  0.00  0.00    -0.390 OA
ATOM     63  H   LIG    1       24.507 -32.406   3.007  0.00  0.00    +0.210 HD
ENDBRANCH  60  62
ENDBRANCH  59  60
ENDBRANCH  58  59
ENDBRANCH  57  58
ENDBRANCH  34  57
ENDBRANCH   1  33
TORSDOF 36
ENDMDL
