MODEL 1
REMARK VINA RESULT:      -5.3      0.000      0.000
REMARK  Name = *****
REMARK                            x       y       z     vdW  Elec       q    Type
REMARK                         _______ _______ _______ _____ _____    ______ ____
ROOT
ATOM      1  N   LIG    1       30.226 -19.957   7.440  0.00  0.00    -0.286 N 
ATOM      2  C   LIG    1       29.263 -19.765   6.413  0.00  0.00    +0.305 C 
ATOM      3  N   LIG    1       28.084 -20.547   6.378  0.00  0.00    -0.283 N 
ATOM      4  C   LIG    1       26.857 -19.956   5.809  0.00  0.00    +0.124 C 
ATOM      5  C   LIG    1       25.628 -20.908   5.738  0.00  0.00    +0.103 C 
ATOM      6  N   LIG    1       25.397 -21.764   6.920  0.00  0.00    -0.302 NA
ATOM      7  C   LIG    1       25.063 -20.970   8.107  0.00  0.00    +0.105 C 
ATOM      8  C   LIG    1       26.610 -22.557   7.096  0.00  0.00    +0.103 C 
ATOM      9  C   LIG    1       27.857 -21.708   7.228  0.00  0.00    +0.124 C 
ATOM     10  O   LIG    1       29.430 -18.865   5.537  0.00  0.00    -0.252 OA
ENDROOT
BRANCH   1  12
ATOM     11  C   LIG    1       31.751 -18.179   8.475  0.00  0.00    +0.024 C 
ATOM     12  C   LIG    1       31.498 -19.227   7.408  0.00  0.00    +0.106 C 
ENDBRANCH   1  12
BRANCH   1  13
ATOM     13  C   LIG    1       30.052 -20.869   8.573  0.00  0.00    +0.106 C 
ATOM     14  C   LIG    1       31.104 -21.835   9.081  0.00  0.00    +0.024 C 
ENDBRANCH   1  13
TORSDOF 2
ENDMDL
MODEL 2
REMARK VINA RESULT:      -5.2      1.865      3.034
REMARK  Name = *****
REMARK                            x       y       z     vdW  Elec       q    Type
REMARK                         _______ _______ _______ _____ _____    ______ ____
ROOT
ATOM      1  N   LIG    1       27.793 -20.361   7.106  0.00  0.00    -0.286 N 
ATOM      2  C   LIG    1       27.460 -19.951   5.787  0.00  0.00    +0.305 C 
ATOM      3  N   LIG    1       26.259 -20.389   5.181  0.00  0.00    -0.283 N 
ATOM      4  C   LIG    1       25.599 -19.510   4.196  0.00  0.00    +0.124 C 
ATOM      5  C   LIG    1       24.327 -20.100   3.520  0.00  0.00    +0.103 C 
ATOM      6  N   LIG    1       23.394 -20.825   4.407  0.00  0.00    -0.302 NA
ATOM      7  C   LIG    1       22.789 -19.933   5.402  0.00  0.00    +0.105 C 
ATOM      8  C   LIG    1       24.162 -21.908   5.014  0.00  0.00    +0.103 C 
ATOM      9  C   LIG    1       25.397 -21.419   5.743  0.00  0.00    +0.124 C 
ATOM     10  O   LIG    1       28.215 -19.157   5.152  0.00  0.00    -0.252 OA
ENDROOT
BRANCH   1  12
ATOM     11  C   LIG    1       30.000 -21.116   8.164  0.00  0.00    +0.024 C 
ATOM     12  C   LIG    1       29.092 -19.999   7.688  0.00  0.00    +0.106 C 
ENDBRANCH   1  12
BRANCH   1  13
ATOM     13  C   LIG    1       26.917 -21.157   7.968  0.00  0.00    +0.106 C 
ATOM     14  C   LIG    1       25.916 -20.586   8.953  0.00  0.00    +0.024 C 
ENDBRANCH   1  13
TORSDOF 2
ENDMDL
MODEL 3
REMARK VINA RESULT:      -5.2      2.048      3.371
REMARK  Name = *****
REMARK                            x       y       z     vdW  Elec       q    Type
REMARK                         _______ _______ _______ _____ _____    ______ ____
ROOT
ATOM      1  N   LIG    1       28.023 -19.999   7.409  0.00  0.00    -0.286 N 
ATOM      2  C   LIG    1       26.748 -20.347   7.930  0.00  0.00    +0.305 C 
ATOM      3  N   LIG    1       25.653 -20.566   7.061  0.00  0.00    -0.283 N 
ATOM      4  C   LIG    1       24.606 -21.524   7.466  0.00  0.00    +0.124 C 
ATOM      5  C   LIG    1       23.400 -21.647   6.490  0.00  0.00    +0.103 C 
ATOM      6  N   LIG    1       23.726 -21.678   5.049  0.00  0.00    -0.302 NA
ATOM      7  C   LIG    1       24.493 -22.877   4.693  0.00  0.00    +0.105 C 
ATOM      8  C   LIG    1       24.450 -20.442   4.766  0.00  0.00    +0.103 C 
ATOM      9  C   LIG    1       25.676 -20.263   5.637  0.00  0.00    +0.124 C 
ATOM     10  O   LIG    1       26.585 -20.504   9.176  0.00  0.00    -0.252 OA
ENDROOT
BRANCH   1  12
ATOM     11  C   LIG    1       30.406 -20.470   8.223  0.00  0.00    +0.024 C 
ATOM     12  C   LIG    1       29.126 -19.661   8.317  0.00  0.00    +0.106 C 
ENDBRANCH   1  12
BRANCH   1  13
ATOM     13  C   LIG    1       28.342 -19.937   5.981  0.00  0.00    +0.106 C 
ATOM     14  C   LIG    1       28.985 -18.755   5.284  0.00  0.00    +0.024 C 
ENDBRANCH   1  13
TORSDOF 2
ENDMDL
MODEL 4
REMARK VINA RESULT:      -5.1      1.929      5.495
REMARK  Name = *****
REMARK                            x       y       z     vdW  Elec       q    Type
REMARK                         _______ _______ _______ _____ _____    ______ ____
ROOT
ATOM      1  N   LIG    1       25.761 -21.287   6.113  0.00  0.00    -0.286 N 
ATOM      2  C   LIG    1       26.783 -21.844   6.928  0.00  0.00    +0.305 C 
ATOM      3  N   LIG    1       28.066 -21.249   6.977  0.00  0.00    -0.283 N 
ATOM      4  C   LIG    1       28.852 -21.360   8.221  0.00  0.00    +0.124 C 
ATOM      5  C   LIG    1       30.281 -20.746   8.165  0.00  0.00    +0.103 C 
ATOM      6  N   LIG    1       30.404 -19.441   7.484  0.00  0.00    -0.302 NA
ATOM      7  C   LIG    1       29.679 -18.386   8.200  0.00  0.00    +0.105 C 
ATOM      8  C   LIG    1       29.913 -19.639   6.124  0.00  0.00    +0.103 C 
ATOM      9  C   LIG    1       28.501 -20.187   6.081  0.00  0.00    +0.124 C 
ATOM     10  O   LIG    1       26.547 -22.857   7.651  0.00  0.00    -0.252 OA
ENDROOT
BRANCH   1  12
ATOM     11  C   LIG    1       23.319 -21.514   6.851  0.00  0.00    +0.024 C 
ATOM     12  C   LIG    1       24.469 -21.971   5.975  0.00  0.00    +0.106 C 
ENDBRANCH   1  12
BRANCH   1  13
ATOM     13  C   LIG    1       25.896 -20.039   5.359  0.00  0.00    +0.106 C 
ATOM     14  C   LIG    1       25.246 -19.758   4.019  0.00  0.00    +0.024 C 
ENDBRANCH   1  13
TORSDOF 2
ENDMDL
MODEL 5
REMARK VINA RESULT:      -5.0      3.902      6.564
REMARK  Name = *****
REMARK                            x       y       z     vdW  Elec       q    Type
REMARK                         _______ _______ _______ _____ _____    ______ ____
ROOT
ATOM      1  N   LIG    1       24.770 -25.498   6.199  0.00  0.00    -0.286 N 
ATOM      2  C   LIG    1       24.007 -24.393   6.662  0.00  0.00    +0.305 C 
ATOM      3  N   LIG    1       24.650 -23.229   7.146  0.00  0.00    -0.283 N 
ATOM      4  C   LIG    1       23.976 -21.926   6.983  0.00  0.00    +0.124 C 
ATOM      5  C   LIG    1       24.715 -20.708   7.611  0.00  0.00    +0.103 C 
ATOM      6  N   LIG    1       26.179 -20.662   7.416  0.00  0.00    -0.302 NA
ATOM      7  C   LIG    1       26.532 -20.500   6.001  0.00  0.00    +0.105 C 
ATOM      8  C   LIG    1       26.709 -21.895   7.991  0.00  0.00    +0.103 C 
ATOM      9  C   LIG    1       26.082 -23.140   7.398  0.00  0.00    +0.124 C 
ATOM     10  O   LIG    1       22.742 -24.419   6.613  0.00  0.00    -0.252 OA
ENDROOT
BRANCH   1  12
ATOM     11  C   LIG    1       24.358 -27.987   6.639  0.00  0.00    +0.024 C 
ATOM     12  C   LIG    1       24.102 -26.745   5.807  0.00  0.00    +0.106 C 
ENDBRANCH   1  12
BRANCH   1  13
ATOM     13  C   LIG    1       26.230 -25.502   6.083  0.00  0.00    +0.106 C 
ATOM     14  C   LIG    1       27.054 -26.644   5.525  0.00  0.00    +0.024 C 
ENDBRANCH   1  13
TORSDOF 2
ENDMDL
MODEL 6
REMARK VINA RESULT:      -5.0      4.513      6.519
REMARK  Name = *****
REMARK                            x       y       z     vdW  Elec       q    Type
REMARK                         _______ _______ _______ _____ _____    ______ ____
ROOT
ATOM      1  N   LIG    1       24.307 -22.673   7.261  0.00  0.00    -0.286 N 
ATOM      2  C   LIG    1       23.675 -23.797   6.663  0.00  0.00    +0.305 C 
ATOM      3  N   LIG    1       24.432 -24.933   6.291  0.00  0.00    -0.283 N 
ATOM      4  C   LIG    1       23.785 -26.259   6.323  0.00  0.00    +0.124 C 
ATOM      5  C   LIG    1       24.663 -27.443   5.826  0.00  0.00    +0.103 C 
ATOM      6  N   LIG    1       26.071 -27.445   6.275  0.00  0.00    -0.302 NA
ATOM      7  C   LIG    1       26.177 -27.614   7.728  0.00  0.00    +0.105 C 
ATOM      8  C   LIG    1       26.652 -26.188   5.811  0.00  0.00    +0.103 C 
ATOM      9  C   LIG    1       25.888 -24.971   6.293  0.00  0.00    +0.124 C 
ATOM     10  O   LIG    1       22.420 -23.811   6.490  0.00  0.00    -0.252 OA
ENDROOT
BRANCH   1  12
ATOM     11  C   LIG    1       23.251 -20.509   6.388  0.00  0.00    +0.024 C 
ATOM     12  C   LIG    1       23.539 -21.454   7.539  0.00  0.00    +0.106 C 
ENDBRANCH   1  12
BRANCH   1  13
ATOM     13  C   LIG    1       25.723 -22.624   7.632  0.00  0.00    +0.106 C 
ATOM     14  C   LIG    1       26.381 -21.495   8.399  0.00  0.00    +0.024 C 
ENDBRANCH   1  13
TORSDOF 2
ENDMDL
MODEL 7
REMARK VINA RESULT:      -4.9      1.982      5.309
REMARK  Name = *****
REMARK                            x       y       z     vdW  Elec       q    Type
REMARK                         _______ _______ _______ _____ _____    ______ ____
ROOT
ATOM      1  N   LIG    1       24.767 -21.276   5.720  0.00  0.00    -0.286 N 
ATOM      2  C   LIG    1       25.791 -20.365   5.345  0.00  0.00    +0.305 C 
ATOM      3  N   LIG    1       26.831 -20.042   6.248  0.00  0.00    -0.283 N 
ATOM      4  C   LIG    1       28.159 -19.695   5.707  0.00  0.00    +0.124 C 
ATOM      5  C   LIG    1       29.223 -19.278   6.764  0.00  0.00    +0.103 C 
ATOM      6  N   LIG    1       29.264 -20.084   8.002  0.00  0.00    -0.302 NA
ATOM      7  C   LIG    1       29.669 -21.468   7.734  0.00  0.00    +0.105 C 
ATOM      8  C   LIG    1       27.933 -19.991   8.596  0.00  0.00    +0.103 C 
ATOM      9  C   LIG    1       26.833 -20.430   7.652  0.00  0.00    +0.124 C 
ATOM     10  O   LIG    1       25.808 -19.861   4.183  0.00  0.00    -0.252 OA
ENDROOT
BRANCH   1  12
ATOM     11  C   LIG    1       22.371 -20.697   5.023  0.00  0.00    +0.024 C 
ATOM     12  C   LIG    1       23.629 -21.520   4.824  0.00  0.00    +0.106 C 
ENDBRANCH   1  12
BRANCH   1  13
ATOM     13  C   LIG    1       24.745 -22.017   6.982  0.00  0.00    +0.106 C 
ATOM     14  C   LIG    1       24.971 -23.509   7.118  0.00  0.00    +0.024 C 
ENDBRANCH   1  13
TORSDOF 2
ENDMDL
MODEL 8
REMARK VINA RESULT:      -4.5      1.451      4.953
REMARK  Name = *****
REMARK                            x       y       z     vdW  Elec       q    Type
REMARK                         _______ _______ _______ _____ _____    ______ ____
ROOT
ATOM      1  N   LIG    1       26.056 -20.513   6.712  0.00  0.00    -0.286 N 
ATOM      2  C   LIG    1       27.192 -20.027   6.011  0.00  0.00    +0.305 C 
ATOM      3  N   LIG    1       28.362 -19.650   6.713  0.00  0.00    -0.283 N 
ATOM      4  C   LIG    1       29.670 -19.802   6.046  0.00  0.00    +0.124 C 
ATOM      5  C   LIG    1       30.896 -19.293   6.857  0.00  0.00    +0.103 C 
ATOM      6  N   LIG    1       30.908 -19.620   8.298  0.00  0.00    -0.302 NA
ATOM      7  C   LIG    1       31.010 -21.066   8.524  0.00  0.00    +0.105 C 
ATOM      8  C   LIG    1       29.688 -19.047   8.859  0.00  0.00    +0.103 C 
ATOM      9  C   LIG    1       28.433 -19.531   8.162  0.00  0.00    +0.124 C 
ATOM     10  O   LIG    1       27.187 -19.962   4.746  0.00  0.00    -0.252 OA
ENDROOT
BRANCH   1  12
ATOM     11  C   LIG    1       23.495 -20.478   6.685  0.00  0.00    +0.024 C 
ATOM     12  C   LIG    1       24.808 -20.794   5.993  0.00  0.00    +0.106 C 
ENDBRANCH   1  12
BRANCH   1  13
ATOM     13  C   LIG    1       26.021 -20.760   8.155  0.00  0.00    +0.106 C 
ATOM     14  C   LIG    1       25.856 -22.121   8.800  0.00  0.00    +0.024 C 
ENDBRANCH   1  13
TORSDOF 2
ENDMDL
MODEL 9
REMARK VINA RESULT:      -4.4      2.458      5.748
REMARK  Name = *****
REMARK                            x       y       z     vdW  Elec       q    Type
REMARK                         _______ _______ _______ _____ _____    ______ ____
ROOT
ATOM      1  N   LIG    1       24.648 -20.360   5.432  0.00  0.00    -0.286 N 
ATOM      2  C   LIG    1       25.213 -20.609   6.712  0.00  0.00    +0.305 C 
ATOM      3  N   LIG    1       26.617 -20.610   6.889  0.00  0.00    -0.283 N 
ATOM      4  C   LIG    1       27.168 -20.197   8.194  0.00  0.00    +0.124 C 
ATOM      5  C   LIG    1       28.715 -20.300   8.329  0.00  0.00    +0.103 C 
ATOM      6  N   LIG    1       29.503 -19.844   7.166  0.00  0.00    -0.302 NA
ATOM      7  C   LIG    1       29.343 -18.404   6.934  0.00  0.00    +0.105 C 
ATOM      8  C   LIG    1       29.065 -20.649   6.030  0.00  0.00    +0.103 C 
ATOM      9  C   LIG    1       27.571 -20.567   5.789  0.00  0.00    +0.124 C 
ATOM     10  O   LIG    1       24.467 -20.795   7.718  0.00  0.00    -0.252 OA
ENDROOT
BRANCH   1  12
ATOM     11  C   LIG    1       22.390 -19.197   5.097  0.00  0.00    +0.024 C 
ATOM     12  C   LIG    1       23.198 -20.474   5.229  0.00  0.00    +0.106 C 
ENDBRANCH   1  12
BRANCH   1  13
ATOM     13  C   LIG    1       25.423 -19.993   4.245  0.00  0.00    +0.106 C 
ATOM     14  C   LIG    1       25.299 -18.680   3.499  0.00  0.00    +0.024 C 
ENDBRANCH   1  13
TORSDOF 2
ENDMDL
