MODEL 1
REMARK VINA RESULT:      -8.2      0.000      0.000
REMARK  Name = *****
REMARK                            x       y       z     vdW  Elec       q    Type
REMARK                         _______ _______ _______ _____ _____    ______ ____
ROOT
ATOM      1  C   LIG    1       24.899 -22.621   6.619  0.00  0.00    +0.064 C 
ATOM      2  C   LIG    1       24.572 -21.079   6.783  0.00  0.00    +0.039 C 
ATOM      3  C   LIG    1       25.897 -20.521   7.382  0.00  0.00    -0.002 C 
ATOM      4  C   LIG    1       26.972 -21.413   6.755  0.00  0.00    +0.009 C 
ATOM      5  C   LIG    1       25.986 -20.949   8.859  0.00  0.00    +0.004 C 
ATOM      6  C   LIG    1       26.228 -22.457   8.763  0.00  0.00    +0.005 C 
ATOM      7  C   LIG    1       26.322 -22.702   7.246  0.00  0.00    +0.007 C 
ENDROOT
BRANCH   2   8
ATOM      8  C   LIG    1       24.036 -20.296   5.590  0.00  0.00    -0.043 A 
ATOM      9  C   LIG    1       24.845 -19.910   4.504  0.00  0.00    +0.004 A 
ATOM     10  C   LIG    1       24.337 -19.120   3.469  0.00  0.00    +0.000 A 
ATOM     11  C   LIG    1       23.015 -18.703   3.490  0.00  0.00    +0.000 A 
ATOM     12  C   LIG    1       22.190 -19.084   4.551  0.00  0.00    +0.000 A 
ATOM     13  C   LIG    1       22.700 -19.871   5.587  0.00  0.00    +0.004 A 
ENDBRANCH   2   8
BRANCH   1  14
ATOM     14  N   LIG    1       24.858 -23.116   5.236  0.00  0.00    -0.313 NA
ATOM     15  H   LIG    1       23.976 -22.830   4.811  0.00  0.00    +0.122 HD
BRANCH  14  17
ATOM     16  C   LIG    1       24.063 -25.254   6.123  0.00  0.00    +0.020 C 
ATOM     17  C   LIG    1       24.998 -24.570   5.137  0.00  0.00    +0.077 C 
ENDBRANCH  14  17
ENDBRANCH   1  14
TORSDOF 3
ENDMDL
MODEL 2
REMARK VINA RESULT:      -8.2      1.566      4.078
REMARK  Name = *****
REMARK                            x       y       z     vdW  Elec       q    Type
REMARK                         _______ _______ _______ _____ _____    ______ ____
ROOT
ATOM      1  C   LIG    1       24.595 -22.154   5.297  0.00  0.00    +0.064 C 
ATOM      2  C   LIG    1       25.017 -20.681   5.698  0.00  0.00    +0.039 C 
ATOM      3  C   LIG    1       23.811 -20.214   6.566  0.00  0.00    -0.002 C 
ATOM      4  C   LIG    1       23.341 -21.504   7.242  0.00  0.00    +0.009 C 
ATOM      5  C   LIG    1       22.622 -19.921   5.633  0.00  0.00    +0.004 C 
ATOM      6  C   LIG    1       22.215 -21.316   5.151  0.00  0.00    +0.005 C 
ATOM      7  C   LIG    1       23.170 -22.245   5.921  0.00  0.00    +0.007 C 
ENDROOT
BRANCH   2   8
ATOM      8  C   LIG    1       26.384 -20.440   6.329  0.00  0.00    -0.043 A 
ATOM      9  C   LIG    1       26.616 -20.551   7.714  0.00  0.00    +0.004 A 
ATOM     10  C   LIG    1       27.863 -20.240   8.265  0.00  0.00    +0.000 A 
ATOM     11  C   LIG    1       28.903 -19.817   7.452  0.00  0.00    +0.000 A 
ATOM     12  C   LIG    1       28.699 -19.710   6.075  0.00  0.00    +0.000 A 
ATOM     13  C   LIG    1       27.452 -20.018   5.524  0.00  0.00    +0.004 A 
ENDBRANCH   2   8
BRANCH   1  14
ATOM     14  N   LIG    1       25.496 -23.208   5.784  0.00  0.00    -0.313 NA
ATOM     15  H   LIG    1       26.431 -23.039   5.410  0.00  0.00    +0.122 HD
BRANCH  14  17
ATOM     16  C   LIG    1       25.428 -25.544   6.513  0.00  0.00    +0.020 C 
ATOM     17  C   LIG    1       25.061 -24.557   5.415  0.00  0.00    +0.077 C 
ENDBRANCH  14  17
ENDBRANCH   1  14
TORSDOF 3
ENDMDL
MODEL 3
REMARK VINA RESULT:      -8.1      1.396      2.964
REMARK  Name = *****
REMARK                            x       y       z     vdW  Elec       q    Type
REMARK                         _______ _______ _______ _____ _____    ______ ____
ROOT
ATOM      1  C   LIG    1       26.114 -21.825   6.439  0.00  0.00    +0.064 C 
ATOM      2  C   LIG    1       24.850 -22.000   5.499  0.00  0.00    +0.039 C 
ATOM      3  C   LIG    1       23.935 -22.933   6.346  0.00  0.00    -0.002 C 
ATOM      4  C   LIG    1       24.255 -22.531   7.787  0.00  0.00    +0.009 C 
ATOM      5  C   LIG    1       24.516 -24.359   6.303  0.00  0.00    +0.004 C 
ATOM      6  C   LIG    1       25.792 -24.231   7.139  0.00  0.00    +0.005 C 
ATOM      7  C   LIG    1       25.751 -22.771   7.621  0.00  0.00    +0.007 C 
ENDROOT
BRANCH   2   8
ATOM      8  C   LIG    1       24.154 -20.763   4.943  0.00  0.00    -0.043 A 
ATOM      9  C   LIG    1       24.717 -19.958   3.935  0.00  0.00    +0.004 A 
ATOM     10  C   LIG    1       24.087 -18.784   3.510  0.00  0.00    +0.000 A 
ATOM     11  C   LIG    1       22.884 -18.391   4.075  0.00  0.00    +0.000 A 
ATOM     12  C   LIG    1       22.301 -19.179   5.069  0.00  0.00    +0.000 A 
ATOM     13  C   LIG    1       22.933 -20.351   5.495  0.00  0.00    +0.004 A 
ENDBRANCH   2   8
BRANCH   1  14
ATOM     14  N   LIG    1       26.373 -20.445   6.873  0.00  0.00    -0.313 NA
ATOM     15  H   LIG    1       26.369 -19.836   6.053  0.00  0.00    +0.122 HD
BRANCH  14  17
ATOM     16  C   LIG    1       28.796 -20.753   6.710  0.00  0.00    +0.020 C 
ATOM     17  C   LIG    1       27.642 -20.291   7.587  0.00  0.00    +0.077 C 
ENDBRANCH  14  17
ENDBRANCH   1  14
TORSDOF 3
ENDMDL
MODEL 4
REMARK VINA RESULT:      -8.1      1.380      3.217
REMARK  Name = *****
REMARK                            x       y       z     vdW  Elec       q    Type
REMARK                         _______ _______ _______ _____ _____    ______ ____
ROOT
ATOM      1  C   LIG    1       26.146 -21.802   6.553  0.00  0.00    +0.064 C 
ATOM      2  C   LIG    1       24.940 -21.920   5.531  0.00  0.00    +0.039 C 
ATOM      3  C   LIG    1       24.010 -22.953   6.233  0.00  0.00    -0.002 C 
ATOM      4  C   LIG    1       24.239 -22.681   7.722  0.00  0.00    +0.009 C 
ATOM      5  C   LIG    1       24.637 -24.353   6.091  0.00  0.00    +0.004 C 
ATOM      6  C   LIG    1       25.861 -24.272   7.007  0.00  0.00    +0.005 C 
ATOM      7  C   LIG    1       25.748 -22.865   7.620  0.00  0.00    +0.007 C 
ENDROOT
BRANCH   2   8
ATOM      8  C   LIG    1       24.237 -20.655   5.054  0.00  0.00    -0.043 A 
ATOM      9  C   LIG    1       22.985 -20.243   5.551  0.00  0.00    +0.004 A 
ATOM     10  C   LIG    1       22.333 -19.122   5.028  0.00  0.00    +0.000 A 
ATOM     11  C   LIG    1       22.913 -18.387   4.005  0.00  0.00    +0.000 A 
ATOM     12  C   LIG    1       24.159 -18.770   3.504  0.00  0.00    +0.000 A 
ATOM     13  C   LIG    1       24.809 -19.892   4.026  0.00  0.00    +0.004 A 
ENDBRANCH   2   8
BRANCH   1  14
ATOM     14  N   LIG    1       26.338 -20.463   7.128  0.00  0.00    -0.313 NA
ATOM     15  H   LIG    1       26.138 -19.766   6.410  0.00  0.00    +0.122 HD
BRANCH  14  17
ATOM     16  C   LIG    1       28.724 -20.663   6.623  0.00  0.00    +0.020 C 
ATOM     17  C   LIG    1       27.687 -20.248   7.655  0.00  0.00    +0.077 C 
ENDBRANCH  14  17
ENDBRANCH   1  14
TORSDOF 3
ENDMDL
MODEL 5
REMARK VINA RESULT:      -7.5      1.492      5.055
REMARK  Name = *****
REMARK                            x       y       z     vdW  Elec       q    Type
REMARK                         _______ _______ _______ _____ _____    ______ ____
ROOT
ATOM      1  C   LIG    1       25.333 -19.842   5.043  0.00  0.00    +0.064 C 
ATOM      2  C   LIG    1       24.339 -20.954   5.578  0.00  0.00    +0.039 C 
ATOM      3  C   LIG    1       23.219 -20.946   4.496  0.00  0.00    -0.002 C 
ATOM      4  C   LIG    1       23.970 -20.591   3.210  0.00  0.00    +0.009 C 
ATOM      5  C   LIG    1       22.359 -19.683   4.691  0.00  0.00    +0.004 C 
ATOM      6  C   LIG    1       23.302 -18.558   4.257  0.00  0.00    +0.005 C 
ATOM      7  C   LIG    1       24.561 -19.314   3.797  0.00  0.00    +0.007 C 
ENDROOT
BRANCH   2   8
ATOM      8  C   LIG    1       24.878 -22.338   5.921  0.00  0.00    -0.043 A 
ATOM      9  C   LIG    1       24.757 -23.441   5.055  0.00  0.00    +0.004 A 
ATOM     10  C   LIG    1       25.190 -24.714   5.441  0.00  0.00    +0.000 A 
ATOM     11  C   LIG    1       25.754 -24.913   6.691  0.00  0.00    +0.000 A 
ATOM     12  C   LIG    1       25.894 -23.831   7.563  0.00  0.00    +0.000 A 
ATOM     13  C   LIG    1       25.460 -22.560   7.178  0.00  0.00    +0.004 A 
ENDBRANCH   2   8
BRANCH   1  14
ATOM     14  N   LIG    1       26.681 -20.326   4.713  0.00  0.00    -0.313 NA
ATOM     15  H   LIG    1       26.725 -21.328   4.904  0.00  0.00    +0.122 HD
BRANCH  14  17
ATOM     16  C   LIG    1       28.356 -20.586   6.479  0.00  0.00    +0.020 C 
ATOM     17  C   LIG    1       27.740 -19.642   5.457  0.00  0.00    +0.077 C 
ENDBRANCH  14  17
ENDBRANCH   1  14
TORSDOF 3
ENDMDL
MODEL 6
REMARK VINA RESULT:      -7.5      1.423      5.061
REMARK  Name = *****
REMARK                            x       y       z     vdW  Elec       q    Type
REMARK                         _______ _______ _______ _____ _____    ______ ____
ROOT
ATOM      1  C   LIG    1       24.938 -20.758   5.969  0.00  0.00    +0.064 C 
ATOM      2  C   LIG    1       24.054 -22.067   5.840  0.00  0.00    +0.039 C 
ATOM      3  C   LIG    1       23.201 -21.767   4.572  0.00  0.00    -0.002 C 
ATOM      4  C   LIG    1       24.135 -20.915   3.709  0.00  0.00    +0.009 C 
ATOM      5  C   LIG    1       22.120 -20.734   4.942  0.00  0.00    +0.004 C 
ATOM      6  C   LIG    1       22.932 -19.454   5.154  0.00  0.00    +0.005 C 
ATOM      7  C   LIG    1       24.368 -19.887   4.811  0.00  0.00    +0.007 C 
ENDROOT
BRANCH   2   8
ATOM      8  C   LIG    1       24.733 -23.432   5.839  0.00  0.00    -0.043 A 
ATOM      9  C   LIG    1       24.733 -24.284   4.718  0.00  0.00    +0.004 A 
ATOM     10  C   LIG    1       25.294 -25.563   4.783  0.00  0.00    +0.000 A 
ATOM     11  C   LIG    1       25.868 -26.018   5.960  0.00  0.00    +0.000 A 
ATOM     12  C   LIG    1       25.889 -25.186   7.081  0.00  0.00    +0.000 A 
ATOM     13  C   LIG    1       25.326 -23.908   7.016  0.00  0.00    +0.004 A 
ENDBRANCH   2   8
BRANCH   1  14
ATOM     14  N   LIG    1       26.386 -20.978   5.855  0.00  0.00    -0.313 NA
ATOM     15  H   LIG    1       26.561 -21.981   5.780  0.00  0.00    +0.122 HD
BRANCH  14  17
ATOM     16  C   LIG    1       26.316 -20.514   8.257  0.00  0.00    +0.020 C 
ATOM     17  C   LIG    1       27.145 -20.436   6.984  0.00  0.00    +0.077 C 
ENDBRANCH  14  17
ENDBRANCH   1  14
TORSDOF 3
ENDMDL
MODEL 7
REMARK VINA RESULT:      -7.3      1.411      4.972
REMARK  Name = *****
REMARK                            x       y       z     vdW  Elec       q    Type
REMARK                         _______ _______ _______ _____ _____    ______ ____
ROOT
ATOM      1  C   LIG    1       25.528 -21.915   5.795  0.00  0.00    +0.064 C 
ATOM      2  C   LIG    1       25.853 -23.132   6.757  0.00  0.00    +0.039 C 
ATOM      3  C   LIG    1       25.218 -22.670   8.102  0.00  0.00    -0.002 C 
ATOM      4  C   LIG    1       24.011 -21.840   7.657  0.00  0.00    +0.009 C 
ATOM      5  C   LIG    1       26.114 -21.578   8.717  0.00  0.00    +0.004 C 
ATOM      6  C   LIG    1       25.897 -20.390   7.776  0.00  0.00    +0.005 C 
ATOM      7  C   LIG    1       24.850 -20.918   6.780  0.00  0.00    +0.007 C 
ENDROOT
BRANCH   2   8
ATOM      8  C   LIG    1       25.475 -24.546   6.330  0.00  0.00    -0.043 A 
ATOM      9  C   LIG    1       24.142 -24.994   6.267  0.00  0.00    +0.004 A 
ATOM     10  C   LIG    1       23.839 -26.322   5.952  0.00  0.00    +0.000 A 
ATOM     11  C   LIG    1       24.855 -27.229   5.690  0.00  0.00    +0.000 A 
ATOM     12  C   LIG    1       26.184 -26.804   5.736  0.00  0.00    +0.000 A 
ATOM     13  C   LIG    1       26.486 -25.477   6.053  0.00  0.00    +0.004 A 
ENDBRANCH   2   8
BRANCH   1  14
ATOM     14  N   LIG    1       24.675 -22.249   4.646  0.00  0.00    -0.313 NA
ATOM     15  H   LIG    1       25.266 -22.581   3.883  0.00  0.00    +0.122 HD
BRANCH  14  17
ATOM     16  C   LIG    1       24.708 -20.194   3.316  0.00  0.00    +0.020 C 
ATOM     17  C   LIG    1       23.866 -21.121   4.179  0.00  0.00    +0.077 C 
ENDBRANCH  14  17
ENDBRANCH   1  14
TORSDOF 3
ENDMDL
MODEL 8
REMARK VINA RESULT:      -7.2      1.903      4.809
REMARK  Name = *****
REMARK                            x       y       z     vdW  Elec       q    Type
REMARK                         _______ _______ _______ _____ _____    ______ ____
ROOT
ATOM      1  C   LIG    1       25.011 -20.534   5.419  0.00  0.00    +0.064 C 
ATOM      2  C   LIG    1       25.755 -20.819   6.789  0.00  0.00    +0.039 C 
ATOM      3  C   LIG    1       25.260 -22.252   7.143  0.00  0.00    -0.002 C 
ATOM      4  C   LIG    1       25.071 -22.910   5.774  0.00  0.00    +0.009 C 
ATOM      5  C   LIG    1       23.802 -22.161   7.630  0.00  0.00    +0.004 C 
ATOM      6  C   LIG    1       23.038 -21.810   6.350  0.00  0.00    +0.005 C 
ATOM      7  C   LIG    1       24.137 -21.815   5.273  0.00  0.00    +0.007 C 
ENDROOT
BRANCH   2   8
ATOM      8  C   LIG    1       27.265 -20.630   6.874  0.00  0.00    -0.043 A 
ATOM      9  C   LIG    1       28.083 -21.390   7.732  0.00  0.00    +0.004 A 
ATOM     10  C   LIG    1       29.452 -21.130   7.844  0.00  0.00    +0.000 A 
ATOM     11  C   LIG    1       30.036 -20.114   7.103  0.00  0.00    +0.000 A 
ATOM     12  C   LIG    1       29.246 -19.354   6.237  0.00  0.00    +0.000 A 
ATOM     13  C   LIG    1       27.877 -19.613   6.128  0.00  0.00    +0.004 A 
ENDBRANCH   2   8
BRANCH   1  14
ATOM     14  N   LIG    1       25.899 -20.318   4.268  0.00  0.00    -0.313 NA
ATOM     15  H   LIG    1       26.858 -20.228   4.606  0.00  0.00    +0.122 HD
BRANCH  14  17
ATOM     16  C   LIG    1       24.066 -18.824   3.634  0.00  0.00    +0.020 C 
ATOM     17  C   LIG    1       25.548 -19.134   3.480  0.00  0.00    +0.077 C 
ENDBRANCH  14  17
ENDBRANCH   1  14
TORSDOF 3
ENDMDL
MODEL 9
REMARK VINA RESULT:      -7.0      1.644      4.480
REMARK  Name = *****
REMARK                            x       y       z     vdW  Elec       q    Type
REMARK                         _______ _______ _______ _____ _____    ______ ____
ROOT
ATOM      1  C   LIG    1       24.152 -21.870   7.123  0.00  0.00    +0.064 C 
ATOM      2  C   LIG    1       25.636 -22.423   7.169  0.00  0.00    +0.039 C 
ATOM      3  C   LIG    1       25.595 -23.571   6.117  0.00  0.00    -0.002 C 
ATOM      4  C   LIG    1       24.581 -23.070   5.085  0.00  0.00    +0.009 C 
ATOM      5  C   LIG    1       24.832 -24.763   6.723  0.00  0.00    +0.004 C 
ATOM      6  C   LIG    1       23.389 -24.254   6.774  0.00  0.00    +0.005 C 
ATOM      7  C   LIG    1       23.486 -22.862   6.125  0.00  0.00    +0.007 C 
ENDROOT
BRANCH   2   8
ATOM      8  C   LIG    1       26.802 -21.454   7.005  0.00  0.00    -0.043 A 
ATOM      9  C   LIG    1       26.884 -20.531   5.944  0.00  0.00    +0.004 A 
ATOM     10  C   LIG    1       28.009 -19.717   5.780  0.00  0.00    +0.000 A 
ATOM     11  C   LIG    1       29.070 -19.800   6.668  0.00  0.00    +0.000 A 
ATOM     12  C   LIG    1       29.006 -20.700   7.734  0.00  0.00    +0.000 A 
ATOM     13  C   LIG    1       27.882 -21.516   7.896  0.00  0.00    +0.004 A 
ENDBRANCH   2   8
BRANCH   1  14
ATOM     14  N   LIG    1       24.029 -20.468   6.699  0.00  0.00    -0.313 NA
ATOM     15  H   LIG    1       24.068 -19.871   7.525  0.00  0.00    +0.122 HD
BRANCH  14  17
ATOM     16  C   LIG    1       23.121 -19.511   4.637  0.00  0.00    +0.020 C 
ATOM     17  C   LIG    1       22.797 -20.194   5.957  0.00  0.00    +0.077 C 
ENDBRANCH  14  17
ENDBRANCH   1  14
TORSDOF 3
ENDMDL
