MODEL 1
REMARK VINA RESULT:      -5.9      0.000      0.000
REMARK  Name = *****
REMARK                            x       y       z     vdW  Elec       q    Type
REMARK                         _______ _______ _______ _____ _____    ______ ____
ROOT
ATOM      1  C   LIG    1       23.393 -22.937   6.847  0.00  0.00    +0.022 C 
ENDROOT
BRANCH   1   2
ATOM      2  C   LIG    1       24.601 -23.880   6.610  0.00  0.00    +0.051 C 
ATOM      3  C   LIG    1       25.892 -23.319   7.211  0.00  0.00    +0.024 C 
BRANCH   2   5
ATOM      4  C   LIG    1       25.122 -25.456   4.806  0.00  0.00    +0.101 C 
ATOM      5  N   LIG    1       24.744 -24.089   5.153  0.00  0.00    -0.317 NA
ATOM      6  H   LIG    1       23.855 -23.878   4.699  0.00  0.00    +0.122 HD
ENDBRANCH   2   5
ENDBRANCH   1   2
BRANCH   1   7
ATOM      7  C   LIG    1       23.740 -21.481   7.203  0.00  0.00    +0.029 C 
BRANCH   7   8
ATOM      8  C   LIG    1       22.966 -20.475   6.392  0.00  0.00    -0.028 C 
ATOM      9  C   LIG    1       23.251 -19.990   5.172  0.00  0.00    -0.080 C 
ATOM     10  C   LIG    1       22.379 -18.927   4.552  0.00  0.00    +0.038 C 
ATOM     11  C   LIG    1       24.417 -20.404   4.310  0.00  0.00    +0.038 C 
ENDBRANCH   7   8
ENDBRANCH   1   7
TORSDOF 4
ENDMDL
MODEL 2
REMARK VINA RESULT:      -5.6      1.726      4.481
REMARK  Name = *****
REMARK                            x       y       z     vdW  Elec       q    Type
REMARK                         _______ _______ _______ _____ _____    ______ ____
ROOT
ATOM      1  C   LIG    1       23.089 -20.554   6.221  0.00  0.00    +0.022 C 
ENDROOT
BRANCH   1   2
ATOM      2  C   LIG    1       23.978 -20.571   4.953  0.00  0.00    +0.051 C 
ATOM      3  C   LIG    1       25.466 -20.450   5.294  0.00  0.00    +0.024 C 
BRANCH   2   5
ATOM      4  C   LIG    1       22.323 -18.814   4.529  0.00  0.00    +0.101 C 
ATOM      5  N   LIG    1       23.548 -19.465   4.072  0.00  0.00    -0.317 NA
ATOM      6  H   LIG    1       24.288 -18.763   4.035  0.00  0.00    +0.122 HD
ENDBRANCH   2   5
ENDBRANCH   1   2
BRANCH   1   7
ATOM      7  C   LIG    1       23.452 -21.579   7.309  0.00  0.00    +0.029 C 
BRANCH   7   8
ATOM      8  C   LIG    1       23.331 -23.006   6.840  0.00  0.00    -0.028 C 
ATOM      9  C   LIG    1       24.297 -23.933   6.729  0.00  0.00    -0.080 C 
ATOM     10  C   LIG    1       23.982 -25.297   6.170  0.00  0.00    +0.038 C 
ATOM     11  C   LIG    1       25.743 -23.747   7.111  0.00  0.00    +0.038 C 
ENDBRANCH   7   8
ENDBRANCH   1   7
TORSDOF 4
ENDMDL
MODEL 3
REMARK VINA RESULT:      -5.6      1.463      1.910
REMARK  Name = *****
REMARK                            x       y       z     vdW  Elec       q    Type
REMARK                         _______ _______ _______ _____ _____    ______ ____
ROOT
ATOM      1  C   LIG    1       24.359 -20.993   7.312  0.00  0.00    +0.022 C 
ENDROOT
BRANCH   1   2
ATOM      2  C   LIG    1       25.782 -21.538   7.027  0.00  0.00    +0.051 C 
ATOM      3  C   LIG    1       26.688 -20.477   6.398  0.00  0.00    +0.024 C 
BRANCH   2   5
ATOM      4  C   LIG    1       25.845 -23.982   6.846  0.00  0.00    +0.101 C 
ATOM      5  N   LIG    1       25.656 -22.716   6.143  0.00  0.00    -0.317 NA
ATOM      6  H   LIG    1       24.725 -22.719   5.725  0.00  0.00    +0.122 HD
ENDBRANCH   2   5
ENDBRANCH   1   2
BRANCH   1   7
ATOM      7  C   LIG    1       23.294 -21.312   6.249  0.00  0.00    +0.029 C 
BRANCH   7   8
ATOM      8  C   LIG    1       22.614 -20.082   5.706  0.00  0.00    -0.028 C 
ATOM      9  C   LIG    1       22.959 -19.337   4.643  0.00  0.00    -0.080 C 
ATOM     10  C   LIG    1       22.180 -18.092   4.300  0.00  0.00    +0.038 C 
ATOM     11  C   LIG    1       24.108 -19.617   3.708  0.00  0.00    +0.038 C 
ENDBRANCH   7   8
ENDBRANCH   1   7
TORSDOF 4
ENDMDL
MODEL 4
REMARK VINA RESULT:      -5.6      5.749      6.872
REMARK  Name = *****
REMARK                            x       y       z     vdW  Elec       q    Type
REMARK                         _______ _______ _______ _____ _____    ______ ____
ROOT
ATOM      1  C   LIG    1       30.899 -19.526   7.189  0.00  0.00    +0.022 C 
ENDROOT
BRANCH   1   2
ATOM      2  C   LIG    1       31.042 -19.514   8.732  0.00  0.00    +0.051 C 
ATOM      3  C   LIG    1       31.620 -18.192   9.244  0.00  0.00    +0.024 C 
BRANCH   2   5
ATOM      4  C   LIG    1       31.192 -21.929   9.125  0.00  0.00    +0.101 C 
ATOM      5  N   LIG    1       31.900 -20.652   9.125  0.00  0.00    -0.317 NA
ATOM      6  H   LIG    1       32.681 -20.720   8.471  0.00  0.00    +0.122 HD
ENDBRANCH   2   5
ENDBRANCH   1   2
BRANCH   1   7
ATOM      7  C   LIG    1       29.467 -19.376   6.648  0.00  0.00    +0.029 C 
BRANCH   7   8
ATOM      8  C   LIG    1       28.422 -19.942   7.574  0.00  0.00    -0.028 C 
ATOM      9  C   LIG    1       27.169 -20.329   7.283  0.00  0.00    -0.080 C 
ATOM     10  C   LIG    1       26.248 -20.811   8.376  0.00  0.00    +0.038 C 
ATOM     11  C   LIG    1       26.544 -20.325   5.912  0.00  0.00    +0.038 C 
ENDBRANCH   7   8
ENDBRANCH   1   7
TORSDOF 4
ENDMDL
MODEL 5
REMARK VINA RESULT:      -5.5      2.119      2.881
REMARK  Name = *****
REMARK                            x       y       z     vdW  Elec       q    Type
REMARK                         _______ _______ _______ _____ _____    ______ ____
ROOT
ATOM      1  C   LIG    1       25.231 -20.881   7.793  0.00  0.00    +0.022 C 
ENDROOT
BRANCH   1   2
ATOM      2  C   LIG    1       26.485 -21.652   7.309  0.00  0.00    +0.051 C 
ATOM      3  C   LIG    1       26.208 -23.148   7.138  0.00  0.00    +0.024 C 
BRANCH   2   5
ATOM      4  C   LIG    1       28.872 -21.216   7.656  0.00  0.00    +0.101 C 
ATOM      5  N   LIG    1       27.571 -21.425   8.286  0.00  0.00    -0.317 NA
ATOM      6  H   LIG    1       27.350 -20.599   8.843  0.00  0.00    +0.122 HD
ENDBRANCH   2   5
ENDBRANCH   1   2
BRANCH   1   7
ATOM      7  C   LIG    1       23.880 -21.414   7.286  0.00  0.00    +0.029 C 
BRANCH   7   8
ATOM      8  C   LIG    1       23.096 -20.391   6.506  0.00  0.00    -0.028 C 
ATOM      9  C   LIG    1       23.198 -20.076   5.204  0.00  0.00    -0.080 C 
ATOM     10  C   LIG    1       22.362 -18.964   4.622  0.00  0.00    +0.038 C 
ATOM     11  C   LIG    1       24.114 -20.740   4.207  0.00  0.00    +0.038 C 
ENDBRANCH   7   8
ENDBRANCH   1   7
TORSDOF 4
ENDMDL
MODEL 6
REMARK VINA RESULT:      -5.3      2.575      4.563
REMARK  Name = *****
REMARK                            x       y       z     vdW  Elec       q    Type
REMARK                         _______ _______ _______ _____ _____    ______ ____
ROOT
ATOM      1  C   LIG    1       26.344 -20.373   7.498  0.00  0.00    +0.022 C 
ENDROOT
BRANCH   1   2
ATOM      2  C   LIG    1       27.378 -20.692   6.388  0.00  0.00    +0.051 C 
ATOM      3  C   LIG    1       28.781 -20.202   6.755  0.00  0.00    +0.024 C 
BRANCH   2   5
ATOM      4  C   LIG    1       25.510 -20.346   4.840  0.00  0.00    +0.101 C 
ATOM      5  N   LIG    1       26.913 -20.068   5.131  0.00  0.00    -0.317 NA
ATOM      6  H   LIG    1       27.031 -19.056   5.200  0.00  0.00    +0.122 HD
ENDBRANCH   2   5
ENDBRANCH   1   2
BRANCH   1   7
ATOM      7  C   LIG    1       25.910 -21.563   8.371  0.00  0.00    +0.029 C 
BRANCH   7   8
ATOM      8  C   LIG    1       26.092 -22.894   7.689  0.00  0.00    -0.028 C 
ATOM      9  C   LIG    1       25.175 -23.634   7.044  0.00  0.00    -0.080 C 
ATOM     10  C   LIG    1       25.545 -24.984   6.482  0.00  0.00    +0.038 C 
ATOM     11  C   LIG    1       23.736 -23.250   6.818  0.00  0.00    +0.038 C 
ENDBRANCH   7   8
ENDBRANCH   1   7
TORSDOF 4
ENDMDL
MODEL 7
REMARK VINA RESULT:      -5.3      1.638      4.506
REMARK  Name = *****
REMARK                            x       y       z     vdW  Elec       q    Type
REMARK                         _______ _______ _______ _____ _____    ______ ____
ROOT
ATOM      1  C   LIG    1       25.809 -20.958   6.899  0.00  0.00    +0.022 C 
ENDROOT
BRANCH   1   2
ATOM      2  C   LIG    1       24.676 -20.541   5.928  0.00  0.00    +0.051 C 
ATOM      3  C   LIG    1       23.288 -20.780   6.529  0.00  0.00    +0.024 C 
BRANCH   2   5
ATOM      4  C   LIG    1       24.312 -20.599   3.504  0.00  0.00    +0.101 C 
ATOM      5  N   LIG    1       24.844 -21.299   4.670  0.00  0.00    -0.317 NA
ATOM      6  H   LIG    1       25.838 -21.468   4.514  0.00  0.00    +0.122 HD
ENDBRANCH   2   5
ENDBRANCH   1   2
BRANCH   1   7
ATOM      7  C   LIG    1       25.496 -22.148   7.823  0.00  0.00    +0.029 C 
BRANCH   7   8
ATOM      8  C   LIG    1       25.997 -23.462   7.283  0.00  0.00    -0.028 C 
ATOM      9  C   LIG    1       25.287 -24.471   6.750  0.00  0.00    -0.080 C 
ATOM     10  C   LIG    1       25.975 -25.744   6.326  0.00  0.00    +0.038 C 
ATOM     11  C   LIG    1       23.797 -24.477   6.528  0.00  0.00    +0.038 C 
ENDBRANCH   7   8
ENDBRANCH   1   7
TORSDOF 4
ENDMDL
MODEL 8
REMARK VINA RESULT:      -5.3      1.205      1.859
REMARK  Name = *****
REMARK                            x       y       z     vdW  Elec       q    Type
REMARK                         _______ _______ _______ _____ _____    ______ ____
ROOT
ATOM      1  C   LIG    1       25.482 -21.198   5.935  0.00  0.00    +0.022 C 
ENDROOT
BRANCH   1   2
ATOM      2  C   LIG    1       25.018 -22.636   6.278  0.00  0.00    +0.051 C 
ATOM      3  C   LIG    1       26.018 -23.361   7.184  0.00  0.00    +0.024 C 
BRANCH   2   5
ATOM      4  C   LIG    1       25.095 -24.803   5.134  0.00  0.00    +0.101 C 
ATOM      5  N   LIG    1       24.823 -23.373   5.012  0.00  0.00    -0.317 NA
ATOM      6  H   LIG    1       23.856 -23.258   4.706  0.00  0.00    +0.122 HD
ENDBRANCH   2   5
ENDBRANCH   1   2
BRANCH   1   7
ATOM      7  C   LIG    1       25.198 -20.727   4.499  0.00  0.00    +0.029 C 
BRANCH   7   8
ATOM      8  C   LIG    1       24.237 -19.568   4.436  0.00  0.00    -0.028 C 
ATOM      9  C   LIG    1       22.906 -19.577   4.613  0.00  0.00    -0.080 C 
ATOM     10  C   LIG    1       22.107 -18.310   4.440  0.00  0.00    +0.038 C 
ATOM     11  C   LIG    1       22.074 -20.781   4.973  0.00  0.00    +0.038 C 
ENDBRANCH   7   8
ENDBRANCH   1   7
TORSDOF 4
ENDMDL
MODEL 9
REMARK VINA RESULT:      -5.3      3.391      4.474
REMARK  Name = *****
REMARK                            x       y       z     vdW  Elec       q    Type
REMARK                         _______ _______ _______ _____ _____    ______ ____
ROOT
ATOM      1  C   LIG    1       27.165 -21.802   7.734  0.00  0.00    +0.022 C 
ENDROOT
BRANCH   1   2
ATOM      2  C   LIG    1       28.248 -20.694   7.697  0.00  0.00    +0.051 C 
ATOM      3  C   LIG    1       28.576 -20.263   6.265  0.00  0.00    +0.024 C 
BRANCH   2   5
ATOM      4  C   LIG    1       30.639 -20.387   8.139  0.00  0.00    +0.101 C 
ATOM      5  N   LIG    1       29.453 -21.203   8.384  0.00  0.00    -0.317 NA
ATOM      6  H   LIG    1       29.280 -21.219   9.390  0.00  0.00    +0.122 HD
ENDBRANCH   2   5
ENDBRANCH   1   2
BRANCH   1   7
ATOM      7  C   LIG    1       25.849 -21.429   8.438  0.00  0.00    +0.029 C 
BRANCH   7   8
ATOM      8  C   LIG    1       24.889 -20.689   7.543  0.00  0.00    -0.028 C 
ATOM      9  C   LIG    1       23.789 -21.158   6.930  0.00  0.00    -0.080 C 
ATOM     10  C   LIG    1       22.992 -20.266   6.011  0.00  0.00    +0.038 C 
ATOM     11  C   LIG    1       23.239 -22.555   7.055  0.00  0.00    +0.038 C 
ENDBRANCH   7   8
ENDBRANCH   1   7
TORSDOF 4
ENDMDL
