MODEL 1
REMARK VINA RESULT:       2.6      0.000      0.000
REMARK  Name = *****
REMARK                            x       y       z     vdW  Elec       q    Type
REMARK                         _______ _______ _______ _____ _____    ______ ____
ROOT
ATOM      1  CA  LIG    1       25.131 -19.724   5.622  0.00  0.00    +0.299 C 
ATOM      2  C   LIG    1       26.077 -19.863   4.439  0.00  0.00    +0.253 C 
ATOM      3  O   LIG    1       26.750 -20.863   4.196  0.00  0.00    -0.273 OA
ATOM      4  N   LIG    1       26.219 -18.763   3.622  0.00  0.00    -0.283 N 
ATOM      5  H   LIG    1       27.019 -18.834   3.003  0.00  0.00    +0.155 HD
ATOM      6  C   LIG    1       25.506 -17.558   3.696  0.00  0.00    +0.043 A 
ATOM      7  C   LIG    1       24.203 -17.443   4.209  0.00  0.00    +0.023 A 
ATOM      8  C   LIG    1       23.622 -16.172   4.364  0.00  0.00    +0.032 A 
ATOM      9  C   LIG    1       24.302 -15.040   3.925  0.00  0.00    +0.042 A 
ATOM     10  C   LIG    1       25.554 -15.157   3.331  0.00  0.00    +0.022 A 
ATOM     11 CL   LIG    1       23.570 -13.492   4.082  0.00  0.00    -0.084 Cl
ATOM     12  C   LIG    1       23.348 -18.646   4.467  0.00  0.00    +0.076 C 
ATOM     13  C   LIG    1       26.155 -16.414   3.215  0.00  0.00    +0.025 A 
ATOM     14  N   LIG    1       23.729 -19.695   5.122  0.00  0.00    -0.259 NA
ENDROOT
BRANCH  12  15
ATOM     15  C   LIG    1       21.952 -18.657   3.904  0.00  0.00    +0.001 A 
ATOM     16  C   LIG    1       21.089 -19.709   4.232  0.00  0.00    +0.010 A 
ATOM     17  C   LIG    1       19.791 -19.738   3.717  0.00  0.00    +0.001 A 
ATOM     18  C   LIG    1       19.350 -18.720   2.872  0.00  0.00    +0.000 A 
ATOM     19  C   LIG    1       20.211 -17.681   2.525  0.00  0.00    +0.001 A 
ATOM     20  C   LIG    1       21.513 -17.654   3.029  0.00  0.00    +0.010 A 
ENDBRANCH  12  15
BRANCH   1  22
ATOM     21  O   LIG    1       24.313 -21.566   7.005  0.00  0.00    -0.248 OA
ATOM     22  C   LIG    1       25.242 -20.877   6.614  0.00  0.00    +0.339 C 
BRANCH  22  23
ATOM     23  OXT LIG    1       26.537 -21.128   6.955  0.00  0.00    -0.479 OA
ATOM     24  HXT LIG    1       26.619 -22.112   7.011  0.00  0.00    +0.295 HD
ENDBRANCH  22  23
ENDBRANCH   1  22
TORSDOF 3
ENDMDL
MODEL 2
REMARK VINA RESULT:       4.2      2.713      5.390
REMARK  Name = *****
REMARK                            x       y       z     vdW  Elec       q    Type
REMARK                         _______ _______ _______ _____ _____    ______ ____
ROOT
ATOM      1  CA  LIG    1       23.595 -18.615   3.379  0.00  0.00    +0.299 C 
ATOM      2  C   LIG    1       22.823 -17.784   4.392  0.00  0.00    +0.253 C 
ATOM      3  O   LIG    1       21.791 -18.148   4.952  0.00  0.00    -0.273 OA
ATOM      4  N   LIG    1       23.297 -16.517   4.650  0.00  0.00    -0.283 N 
ATOM      5  H   LIG    1       22.626 -15.939   5.144  0.00  0.00    +0.155 HD
ATOM      6  C   LIG    1       24.478 -15.941   4.160  0.00  0.00    +0.043 A 
ATOM      7  C   LIG    1       25.622 -16.672   3.801  0.00  0.00    +0.023 A 
ATOM      8  C   LIG    1       26.709 -16.018   3.195  0.00  0.00    +0.032 A 
ATOM      9  C   LIG    1       26.687 -14.636   3.037  0.00  0.00    +0.042 A 
ATOM     10  C   LIG    1       25.594 -13.894   3.476  0.00  0.00    +0.022 A 
ATOM     11 CL   LIG    1       28.035 -13.837   2.330  0.00  0.00    -0.084 Cl
ATOM     12  C   LIG    1       25.785 -18.114   4.173  0.00  0.00    +0.076 C 
ATOM     13  C   LIG    1       24.492 -14.546   4.037  0.00  0.00    +0.025 A 
ATOM     14  N   LIG    1       24.892 -19.031   3.979  0.00  0.00    -0.259 NA
ENDROOT
BRANCH  12  15
ATOM     15  C   LIG    1       27.064 -18.533   4.845  0.00  0.00    +0.001 A 
ATOM     16  C   LIG    1       28.206 -17.736   4.703  0.00  0.00    +0.010 A 
ATOM     17  C   LIG    1       29.404 -18.110   5.318  0.00  0.00    +0.001 A 
ATOM     18  C   LIG    1       29.467 -19.280   6.073  0.00  0.00    +0.000 A 
ATOM     19  C   LIG    1       28.339 -20.088   6.203  0.00  0.00    +0.001 A 
ATOM     20  C   LIG    1       27.143 -19.724   5.580  0.00  0.00    +0.010 A 
ENDBRANCH  12  15
BRANCH   1  22
ATOM     21  O   LIG    1       23.378 -20.958   2.718  0.00  0.00    -0.248 OA
ATOM     22  C   LIG    1       22.856 -19.880   2.957  0.00  0.00    +0.339 C 
BRANCH  22  23
ATOM     23  OXT LIG    1       21.504 -19.705   2.967  0.00  0.00    -0.479 OA
ATOM     24  HXT LIG    1       21.197 -19.900   2.048  0.00  0.00    +0.295 HD
ENDBRANCH  22  23
ENDBRANCH   1  22
TORSDOF 3
ENDMDL
MODEL 3
REMARK VINA RESULT:       5.0      2.374      5.001
REMARK  Name = *****
REMARK                            x       y       z     vdW  Elec       q    Type
REMARK                         _______ _______ _______ _____ _____    ______ ____
ROOT
ATOM      1  CA  LIG    1       23.350 -19.435   3.302  0.00  0.00    +0.299 C 
ATOM      2  C   LIG    1       22.493 -18.988   4.476  0.00  0.00    +0.253 C 
ATOM      3  O   LIG    1       21.723 -19.720   5.096  0.00  0.00    -0.273 OA
ATOM      4  N   LIG    1       22.554 -17.657   4.822  0.00  0.00    -0.283 N 
ATOM      5  H   LIG    1       21.804 -17.378   5.444  0.00  0.00    +0.155 HD
ATOM      6  C   LIG    1       23.403 -16.681   4.280  0.00  0.00    +0.043 A 
ATOM      7  C   LIG    1       24.664 -16.953   3.725  0.00  0.00    +0.023 A 
ATOM      8  C   LIG    1       25.383 -15.928   3.086  0.00  0.00    +0.032 A 
ATOM      9  C   LIG    1       24.886 -14.629   3.085  0.00  0.00    +0.042 A 
ATOM     10  C   LIG    1       23.681 -14.335   3.715  0.00  0.00    +0.022 A 
ATOM     11 CL   LIG    1       25.789 -13.372   2.336  0.00  0.00    -0.084 Cl
ATOM     12  C   LIG    1       25.340 -18.277   3.915  0.00  0.00    +0.076 C 
ATOM     13  C   LIG    1       22.941 -15.359   4.312  0.00  0.00    +0.025 A 
ATOM     14  N   LIG    1       24.781 -19.427   3.715  0.00  0.00    -0.259 NA
ENDROOT
BRANCH  12  15
ATOM     15  C   LIG    1       26.764 -18.281   4.401  0.00  0.00    +0.001 A 
ATOM     16  C   LIG    1       27.274 -19.429   5.020  0.00  0.00    +0.010 A 
ATOM     17  C   LIG    1       28.593 -19.451   5.480  0.00  0.00    +0.001 A 
ATOM     18  C   LIG    1       29.406 -18.329   5.327  0.00  0.00    +0.000 A 
ATOM     19  C   LIG    1       28.899 -17.176   4.730  0.00  0.00    +0.001 A 
ATOM     20  C   LIG    1       27.578 -17.146   4.279  0.00  0.00    +0.010 A 
ENDBRANCH  12  15
BRANCH   1  22
ATOM     21  O   LIG    1       21.893 -21.291   2.666  0.00  0.00    -0.248 OA
ATOM     22  C   LIG    1       23.018 -20.844   2.822  0.00  0.00    +0.339 C 
BRANCH  22  23
ATOM     23  OXT LIG    1       24.140 -21.541   2.483  0.00  0.00    -0.479 OA
ATOM     24  HXT LIG    1       24.249 -22.236   3.177  0.00  0.00    +0.295 HD
ENDBRANCH  22  23
ENDBRANCH   1  22
TORSDOF 3
ENDMDL
MODEL 4
REMARK VINA RESULT:       5.2      2.871      5.110
REMARK  Name = *****
REMARK                            x       y       z     vdW  Elec       q    Type
REMARK                         _______ _______ _______ _____ _____    ______ ____
ROOT
ATOM      1  CA  LIG    1       23.559 -19.461   4.344  0.00  0.00    +0.299 C 
ATOM      2  C   LIG    1       24.136 -20.423   3.316  0.00  0.00    +0.253 C 
ATOM      3  O   LIG    1       23.469 -21.053   2.498  0.00  0.00    -0.273 OA
ATOM      4  N   LIG    1       25.496 -20.633   3.354  0.00  0.00    -0.283 N 
ATOM      5  H   LIG    1       25.784 -21.442   2.813  0.00  0.00    +0.155 HD
ATOM      6  C   LIG    1       26.431 -19.976   4.167  0.00  0.00    +0.043 A 
ATOM      7  C   LIG    1       26.268 -18.670   4.659  0.00  0.00    +0.023 A 
ATOM      8  C   LIG    1       27.197 -18.147   5.574  0.00  0.00    +0.032 A 
ATOM      9  C   LIG    1       28.323 -18.888   5.922  0.00  0.00    +0.042 A 
ATOM     10  C   LIG    1       28.537 -20.145   5.366  0.00  0.00    +0.022 A 
ATOM     11 CL   LIG    1       29.475 -18.227   7.013  0.00  0.00    -0.084 Cl
ATOM     12  C   LIG    1       25.208 -17.754   4.128  0.00  0.00    +0.076 C 
ATOM     13  C   LIG    1       27.593 -20.688   4.490  0.00  0.00    +0.025 A 
ATOM     14  N   LIG    1       23.961 -18.072   3.987  0.00  0.00    -0.259 NA
ENDROOT
BRANCH  12  15
ATOM     15  C   LIG    1       25.617 -16.372   3.697  0.00  0.00    +0.001 A 
ATOM     16  C   LIG    1       24.657 -15.354   3.659  0.00  0.00    +0.010 A 
ATOM     17  C   LIG    1       25.017 -14.064   3.260  0.00  0.00    +0.001 A 
ATOM     18  C   LIG    1       26.333 -13.787   2.894  0.00  0.00    +0.000 A 
ATOM     19  C   LIG    1       27.290 -14.800   2.911  0.00  0.00    +0.001 A 
ATOM     20  C   LIG    1       26.932 -16.093   3.299  0.00  0.00    +0.010 A 
ENDBRANCH  12  15
BRANCH   1  22
ATOM     21  O   LIG    1       21.292 -18.593   4.062  0.00  0.00    -0.248 OA
ATOM     22  C   LIG    1       22.036 -19.497   4.407  0.00  0.00    +0.339 C 
BRANCH  22  23
ATOM     23  OXT LIG    1       21.575 -20.714   4.811  0.00  0.00    -0.479 OA
ATOM     24  HXT LIG    1       21.347 -21.207   3.985  0.00  0.00    +0.295 HD
ENDBRANCH  22  23
ENDBRANCH   1  22
TORSDOF 3
ENDMDL
MODEL 5
REMARK VINA RESULT:       5.4      1.721      4.505
REMARK  Name = *****
REMARK                            x       y       z     vdW  Elec       q    Type
REMARK                         _______ _______ _______ _____ _____    ______ ____
ROOT
ATOM      1  CA  LIG    1       25.044 -20.005   4.682  0.00  0.00    +0.299 C 
ATOM      2  C   LIG    1       24.347 -20.332   5.993  0.00  0.00    +0.253 C 
ATOM      3  O   LIG    1       24.902 -20.818   6.976  0.00  0.00    -0.273 OA
ATOM      4  N   LIG    1       22.989 -20.112   6.049  0.00  0.00    -0.283 N 
ATOM      5  H   LIG    1       22.552 -20.557   6.849  0.00  0.00    +0.155 HD
ATOM      6  C   LIG    1       22.188 -19.517   5.064  0.00  0.00    +0.043 A 
ATOM      7  C   LIG    1       22.654 -18.575   4.132  0.00  0.00    +0.023 A 
ATOM      8  C   LIG    1       21.807 -18.135   3.100  0.00  0.00    +0.032 A 
ATOM      9  C   LIG    1       20.484 -18.564   3.056  0.00  0.00    +0.042 A 
ATOM     10  C   LIG    1       19.991 -19.426   4.031  0.00  0.00    +0.022 A 
ATOM     11 CL   LIG    1       19.444 -17.994   1.813  0.00  0.00    -0.084 Cl
ATOM     12  C   LIG    1       23.986 -17.907   4.285  0.00  0.00    +0.076 C 
ATOM     13  C   LIG    1       20.841 -19.901   5.034  0.00  0.00    +0.025 A 
ATOM     14  N   LIG    1       25.099 -18.526   4.517  0.00  0.00    -0.259 NA
ENDROOT
BRANCH  12  15
ATOM     15  C   LIG    1       24.042 -16.407   4.191  0.00  0.00    +0.001 A 
ATOM     16  C   LIG    1       25.152 -15.798   3.593  0.00  0.00    +0.010 A 
ATOM     17  C   LIG    1       25.223 -14.405   3.499  0.00  0.00    +0.001 A 
ATOM     18  C   LIG    1       24.190 -13.617   4.004  0.00  0.00    +0.000 A 
ATOM     19  C   LIG    1       23.091 -14.215   4.618  0.00  0.00    +0.001 A 
ATOM     20  C   LIG    1       23.022 -15.606   4.724  0.00  0.00    +0.010 A 
ENDBRANCH  12  15
BRANCH   1  22
ATOM     21  O   LIG    1       27.352 -20.103   3.884  0.00  0.00    -0.248 OA
ATOM     22  C   LIG    1       26.475 -20.528   4.619  0.00  0.00    +0.339 C 
BRANCH  22  23
ATOM     23  OXT LIG    1       26.706 -21.484   5.562  0.00  0.00    -0.479 OA
ATOM     24  HXT LIG    1       25.833 -21.913   5.736  0.00  0.00    +0.295 HD
ENDBRANCH  22  23
ENDBRANCH   1  22
TORSDOF 3
ENDMDL
