MODEL 1
REMARK VINA RESULT:     -10.0      0.000      0.000
REMARK  Name = *****
REMARK                            x       y       z     vdW  Elec       q    Type
REMARK                         _______ _______ _______ _____ _____    ______ ____
ROOT
ATOM      1  C   LIG    1       26.671 -21.662   7.369  0.00  0.00    -0.016 C 
ATOM      2  C   LIG    1       25.703 -22.046   6.509  0.00  0.00    -0.011 C 
ATOM      3  C   LIG    1       25.305 -23.485   6.492  0.00  0.00    +0.024 A 
ATOM      4  C   LIG    1       23.963 -23.915   6.519  0.00  0.00    +0.129 A 
ATOM      5  C   LIG    1       23.669 -25.287   6.467  0.00  0.00    +0.046 A 
ATOM      6  C   LIG    1       24.682 -26.240   6.387  0.00  0.00    +0.004 A 
ATOM      7  C   LIG    1       26.007 -25.830   6.334  0.00  0.00    +0.001 A 
ATOM      8  O   LIG    1       22.829 -23.141   6.546  0.00  0.00    -0.487 OA
ATOM      9  C   LIG    1       22.921 -21.795   7.009  0.00  0.00    +0.265 C 
ATOM     10  C   LIG    1       23.572 -20.892   5.995  0.00  0.00    -0.003 A 
ATOM     11  C   LIG    1       22.831 -19.931   5.290  0.00  0.00    +0.007 A 
ATOM     12  C   LIG    1       23.445 -19.152   4.308  0.00  0.00    +0.000 A 
ATOM     13  C   LIG    1       24.794 -19.336   4.013  0.00  0.00    +0.001 A 
ATOM     14  C   LIG    1       25.541 -20.279   4.720  0.00  0.00    +0.009 A 
ATOM     15  C   LIG    1       26.314 -24.467   6.377  0.00  0.00    +0.012 A 
ATOM     16  C   LIG    1       24.941 -21.040   5.731  0.00  0.00    -0.011 A 
ENDROOT
BRANCH   1  17
ATOM     17  C   LIG    1       27.169 -20.264   7.679  0.00  0.00    +0.043 C 
BRANCH  17  18
ATOM     18  C   LIG    1       28.645 -20.073   7.264  0.00  0.00    +0.088 C 
BRANCH  18  20
ATOM     19  C   LIG    1       30.684 -20.746   8.426  0.00  0.00    +0.104 C 
ATOM     20  N   LIG    1       29.563 -19.804   8.393  0.00  0.00    -0.308 NA
ATOM     21  C   LIG    1       30.079 -18.432   8.314  0.00  0.00    +0.104 C 
ENDBRANCH  18  20
ENDBRANCH  17  18
ENDBRANCH   1  17
TORSDOF 3
ENDMDL
MODEL 2
REMARK VINA RESULT:      -8.8      2.426      5.574
REMARK  Name = *****
REMARK                            x       y       z     vdW  Elec       q    Type
REMARK                         _______ _______ _______ _____ _____    ______ ____
ROOT
ATOM      1  C   LIG    1       26.840 -22.584   7.250  0.00  0.00    -0.016 C 
ATOM      2  C   LIG    1       26.614 -21.293   6.922  0.00  0.00    -0.011 C 
ATOM      3  C   LIG    1       27.791 -20.382   6.792  0.00  0.00    +0.024 A 
ATOM      4  C   LIG    1       27.974 -19.511   5.699  0.00  0.00    +0.129 A 
ATOM      5  C   LIG    1       29.091 -18.661   5.666  0.00  0.00    +0.046 A 
ATOM      6  C   LIG    1       30.027 -18.657   6.698  0.00  0.00    +0.004 A 
ATOM      7  C   LIG    1       29.845 -19.491   7.792  0.00  0.00    +0.001 A 
ATOM      8  O   LIG    1       27.150 -19.328   4.616  0.00  0.00    -0.487 OA
ATOM      9  C   LIG    1       26.223 -20.356   4.272  0.00  0.00    +0.265 C 
ATOM     10  C   LIG    1       25.052 -20.402   5.218  0.00  0.00    -0.003 A 
ATOM     11  C   LIG    1       23.773 -19.988   4.818  0.00  0.00    +0.007 A 
ATOM     12  C   LIG    1       22.719 -19.978   5.733  0.00  0.00    +0.000 A 
ATOM     13  C   LIG    1       22.937 -20.365   7.054  0.00  0.00    +0.001 A 
ATOM     14  C   LIG    1       24.204 -20.791   7.456  0.00  0.00    +0.009 A 
ATOM     15  C   LIG    1       28.734 -20.338   7.842  0.00  0.00    +0.012 A 
ATOM     16  C   LIG    1       25.258 -20.838   6.535  0.00  0.00    -0.011 A 
ENDROOT
BRANCH   1  17
ATOM     17  C   LIG    1       25.856 -23.734   7.321  0.00  0.00    +0.043 C 
BRANCH  17  18
ATOM     18  C   LIG    1       25.617 -24.373   5.934  0.00  0.00    +0.088 C 
BRANCH  18  20
ATOM     19  C   LIG    1       24.286 -26.416   6.061  0.00  0.00    +0.104 C 
ATOM     20  N   LIG    1       24.278 -24.981   5.769  0.00  0.00    -0.308 NA
ATOM     21  C   LIG    1       23.303 -24.310   6.638  0.00  0.00    +0.104 C 
ENDBRANCH  18  20
ENDBRANCH  17  18
ENDBRANCH   1  17
TORSDOF 3
ENDMDL
MODEL 3
REMARK VINA RESULT:      -8.8      2.393      5.483
REMARK  Name = *****
REMARK                            x       y       z     vdW  Elec       q    Type
REMARK                         _______ _______ _______ _____ _____    ______ ____
ROOT
ATOM      1  C   LIG    1       26.715 -22.744   7.142  0.00  0.00    -0.016 C 
ATOM      2  C   LIG    1       26.543 -21.430   6.876  0.00  0.00    -0.011 C 
ATOM      3  C   LIG    1       27.755 -20.560   6.811  0.00  0.00    +0.024 A 
ATOM      4  C   LIG    1       27.989 -19.642   5.768  0.00  0.00    +0.129 A 
ATOM      5  C   LIG    1       29.138 -18.835   5.795  0.00  0.00    +0.046 A 
ATOM      6  C   LIG    1       30.056 -18.920   6.840  0.00  0.00    +0.004 A 
ATOM      7  C   LIG    1       29.824 -19.801   7.887  0.00  0.00    +0.001 A 
ATOM      8  O   LIG    1       27.191 -19.373   4.683  0.00  0.00    -0.487 OA
ATOM      9  C   LIG    1       26.232 -20.346   4.272  0.00  0.00    +0.265 C 
ATOM     10  C   LIG    1       25.045 -20.395   5.197  0.00  0.00    -0.003 A 
ATOM     11  C   LIG    1       23.789 -19.913   4.799  0.00  0.00    +0.007 A 
ATOM     12  C   LIG    1       22.721 -19.909   5.697  0.00  0.00    +0.000 A 
ATOM     13  C   LIG    1       22.901 -20.369   6.999  0.00  0.00    +0.001 A 
ATOM     14  C   LIG    1       24.144 -20.864   7.398  0.00  0.00    +0.009 A 
ATOM     15  C   LIG    1       28.681 -20.605   7.876  0.00  0.00    +0.012 A 
ATOM     16  C   LIG    1       25.212 -20.905   6.493  0.00  0.00    -0.011 A 
ENDROOT
BRANCH   1  17
ATOM     17  C   LIG    1       25.686 -23.857   7.138  0.00  0.00    +0.043 C 
BRANCH  17  18
ATOM     18  C   LIG    1       25.620 -24.576   5.771  0.00  0.00    +0.088 C 
BRANCH  18  20
ATOM     19  C   LIG    1       26.075 -26.638   6.996  0.00  0.00    +0.104 C 
ATOM     20  N   LIG    1       26.282 -25.899   5.748  0.00  0.00    -0.308 NA
ATOM     21  C   LIG    1       25.790 -26.696   4.618  0.00  0.00    +0.104 C 
ENDBRANCH  18  20
ENDBRANCH  17  18
ENDBRANCH   1  17
TORSDOF 3
ENDMDL
MODEL 4
REMARK VINA RESULT:      -7.7      1.136      1.450
REMARK  Name = *****
REMARK                            x       y       z     vdW  Elec       q    Type
REMARK                         _______ _______ _______ _____ _____    ______ ____
ROOT
ATOM      1  C   LIG    1       26.640 -21.185   5.860  0.00  0.00    -0.016 C 
ATOM      2  C   LIG    1       25.372 -21.525   5.540  0.00  0.00    -0.011 C 
ATOM      3  C   LIG    1       24.917 -22.915   5.845  0.00  0.00    +0.024 A 
ATOM      4  C   LIG    1       23.695 -23.203   6.486  0.00  0.00    +0.129 A 
ATOM      5  C   LIG    1       23.323 -24.538   6.707  0.00  0.00    +0.046 A 
ATOM      6  C   LIG    1       24.139 -25.592   6.302  0.00  0.00    +0.004 A 
ATOM      7  C   LIG    1       25.332 -25.323   5.646  0.00  0.00    +0.001 A 
ATOM      8  O   LIG    1       22.736 -22.318   6.914  0.00  0.00    -0.487 OA
ATOM      9  C   LIG    1       23.104 -20.961   7.150  0.00  0.00    +0.265 C 
ATOM     10  C   LIG    1       23.306 -20.198   5.868  0.00  0.00    -0.003 A 
ATOM     11  C   LIG    1       22.395 -19.216   5.451  0.00  0.00    +0.007 A 
ATOM     12  C   LIG    1       22.569 -18.570   4.226  0.00  0.00    +0.000 A 
ATOM     13  C   LIG    1       23.642 -18.909   3.404  0.00  0.00    +0.001 A 
ATOM     14  C   LIG    1       24.561 -19.874   3.819  0.00  0.00    +0.009 A 
ATOM     15  C   LIG    1       25.713 -23.999   5.413  0.00  0.00    +0.012 A 
ATOM     16  C   LIG    1       24.413 -20.502   5.062  0.00  0.00    -0.011 A 
ENDROOT
BRANCH   1  17
ATOM     17  C   LIG    1       27.309 -19.827   5.781  0.00  0.00    +0.043 C 
BRANCH  17  18
ATOM     18  C   LIG    1       28.730 -19.849   6.388  0.00  0.00    +0.088 C 
BRANCH  18  20
ATOM     19  C   LIG    1       27.424 -20.218   8.417  0.00  0.00    +0.104 C 
ATOM     20  N   LIG    1       28.767 -20.147   7.837  0.00  0.00    -0.308 NA
ATOM     21  C   LIG    1       29.472 -21.412   8.078  0.00  0.00    +0.104 C 
ENDBRANCH  18  20
ENDBRANCH  17  18
ENDBRANCH   1  17
TORSDOF 3
ENDMDL
MODEL 5
REMARK VINA RESULT:      -7.6      2.512      5.603
REMARK  Name = *****
REMARK                            x       y       z     vdW  Elec       q    Type
REMARK                         _______ _______ _______ _____ _____    ______ ____
ROOT
ATOM      1  C   LIG    1       25.859 -19.887   4.522  0.00  0.00    -0.016 C 
ATOM      2  C   LIG    1       26.187 -20.673   5.571  0.00  0.00    -0.011 C 
ATOM      3  C   LIG    1       27.364 -20.282   6.404  0.00  0.00    +0.024 A 
ATOM      4  C   LIG    1       27.334 -20.248   7.812  0.00  0.00    +0.129 A 
ATOM      5  C   LIG    1       28.493 -19.902   8.525  0.00  0.00    +0.046 A 
ATOM      6  C   LIG    1       29.681 -19.592   7.866  0.00  0.00    +0.004 A 
ATOM      7  C   LIG    1       29.731 -19.647   6.480  0.00  0.00    +0.001 A 
ATOM      8  O   LIG    1       26.288 -20.564   8.644  0.00  0.00    -0.487 OA
ATOM      9  C   LIG    1       24.959 -20.531   8.126  0.00  0.00    +0.265 C 
ATOM     10  C   LIG    1       24.671 -21.709   7.234  0.00  0.00    -0.003 A 
ATOM     11  C   LIG    1       23.811 -22.740   7.640  0.00  0.00    +0.007 A 
ATOM     12  C   LIG    1       23.611 -23.853   6.822  0.00  0.00    +0.000 A 
ATOM     13  C   LIG    1       24.279 -23.953   5.604  0.00  0.00    +0.001 A 
ATOM     14  C   LIG    1       25.126 -22.925   5.186  0.00  0.00    +0.009 A 
ATOM     15  C   LIG    1       28.587 -19.997   5.758  0.00  0.00    +0.012 A 
ATOM     16  C   LIG    1       25.303 -21.788   5.984  0.00  0.00    -0.011 A 
ENDROOT
BRANCH   1  17
ATOM     17  C   LIG    1       24.656 -19.978   3.604  0.00  0.00    +0.043 C 
BRANCH  17  18
ATOM     18  C   LIG    1       23.871 -18.648   3.551  0.00  0.00    +0.088 C 
BRANCH  18  20
ATOM     19  C   LIG    1       22.379 -19.790   5.110  0.00  0.00    +0.104 C 
ATOM     20  N   LIG    1       22.502 -18.729   4.108  0.00  0.00    -0.308 NA
ATOM     21  C   LIG    1       22.118 -17.444   4.705  0.00  0.00    +0.104 C 
ENDBRANCH  18  20
ENDBRANCH  17  18
ENDBRANCH   1  17
TORSDOF 3
ENDMDL
