MODEL 1
REMARK VINA RESULT:      19.6      0.000      0.000
REMARK  Name = *****
REMARK                            x       y       z     vdW  Elec       q    Type
REMARK                         _______ _______ _______ _____ _____    ______ ____
ROOT
ATOM      1  C   LIG    1       22.838 -17.441   4.462  0.00  0.00    +0.045 A 
ATOM      2  C   LIG    1       24.116 -17.982   4.210  0.00  0.00    +0.031 A 
ATOM      3  S   LIG    1       23.955 -19.694   3.964  0.00  0.00    -0.087 S 
ATOM      4  C   LIG    1       22.278 -19.631   3.725  0.00  0.00    +0.024 A 
ATOM      5  C   LIG    1       21.462 -20.709   3.325  0.00  0.00    +0.061 A 
ATOM      6  C   LIG    1       20.103 -20.496   3.148  0.00  0.00    +0.118 A 
ATOM      7  C   LIG    1       19.554 -19.244   3.346  0.00  0.00    +0.046 A 
ATOM      8  C   LIG    1       20.378 -18.177   3.754  0.00  0.00    +0.013 A 
ATOM      9  C   LIG    1       21.778 -18.359   3.981  0.00  0.00    +0.001 A 
ENDROOT
BRANCH   2  10
ATOM     10  C   LIG    1       25.532 -17.469   4.205  0.00  0.00    -0.010 A 
ATOM     11  C   LIG    1       26.639 -18.231   4.598  0.00  0.00    +0.012 A 
ATOM     12  C   LIG    1       27.950 -17.723   4.535  0.00  0.00    +0.046 A 
ATOM     13  C   LIG    1       28.184 -16.437   4.074  0.00  0.00    +0.117 A 
ATOM     14  C   LIG    1       27.123 -15.631   3.709  0.00  0.00    +0.046 A 
ATOM     15  C   LIG    1       25.818 -16.143   3.779  0.00  0.00    +0.012 A 
BRANCH  13  16
ATOM     16  O   LIG    1       29.474 -16.005   3.993  0.00  0.00    -0.507 OA
ATOM     17  H   LIG    1       29.931 -16.228   4.821  0.00  0.00    +0.292 HD
ENDBRANCH  13  16
ENDBRANCH   2  10
BRANCH   1  19
ATOM     18  O   LIG    1       21.984 -15.919   6.078  0.00  0.00    -0.287 OA
ATOM     19  C   LIG    1       22.572 -16.090   5.024  0.00  0.00    +0.195 C 
BRANCH  19  20
ATOM     20  C   LIG    1       23.001 -14.856   4.282  0.00  0.00    +0.022 A 
ATOM     21  C   LIG    1       22.830 -14.815   2.889  0.00  0.00    +0.015 A 
ATOM     22  C   LIG    1       23.286 -13.725   2.139  0.00  0.00    +0.046 A 
ATOM     23  C   LIG    1       23.914 -12.650   2.766  0.00  0.00    +0.121 A 
ATOM     24  C   LIG    1       24.041 -12.652   4.155  0.00  0.00    +0.046 A 
ATOM     25  C   LIG    1       23.622 -13.762   4.907  0.00  0.00    +0.015 A 
BRANCH  23  26
ATOM     26  O   LIG    1       24.354 -11.669   1.925  0.00  0.00    -0.491 OA
BRANCH  26  27
ATOM     27  C   LIG    1       25.768 -11.447   1.812  0.00  0.00    +0.244 C 
BRANCH  27  28
ATOM     28  C   LIG    1       26.499 -11.563   3.166  0.00  0.00    +0.125 C 
BRANCH  28  29
ATOM     29  N   LIG    1       26.896 -12.932   3.548  0.00  0.00    -0.299 NA
ATOM     30  C   LIG    1       28.358 -13.107   3.450  0.00  0.00    +0.084 C 
ATOM     31  C   LIG    1       29.144 -12.370   4.540  0.00  0.00    +0.015 C 
ATOM     32  C   LIG    1       28.646 -12.747   5.932  0.00  0.00    +0.002 C 
ATOM     33  C   LIG    1       27.128 -12.617   6.032  0.00  0.00    +0.015 C 
ATOM     34  C   LIG    1       26.431 -13.344   4.880  0.00  0.00    +0.084 C 
ENDBRANCH  28  29
ENDBRANCH  27  28
ENDBRANCH  26  27
ENDBRANCH  23  26
ENDBRANCH  19  20
ENDBRANCH   1  19
BRANCH   6  35
ATOM     35  O   LIG    1       19.353 -21.567   2.759  0.00  0.00    -0.507 OA
ATOM     36  H   LIG    1       19.900 -22.370   2.779  0.00  0.00    +0.292 HD
ENDBRANCH   6  35
TORSDOF 9
ENDMDL
MODEL 2
REMARK VINA RESULT:      20.7      1.777      3.974
REMARK  Name = *****
REMARK                            x       y       z     vdW  Elec       q    Type
REMARK                         _______ _______ _______ _____ _____    ______ ____
ROOT
ATOM      1  C   LIG    1       23.921 -18.171   3.572  0.00  0.00    +0.045 A 
ATOM      2  C   LIG    1       23.295 -16.908   3.515  0.00  0.00    +0.031 A 
ATOM      3  S   LIG    1       21.575 -17.138   3.590  0.00  0.00    -0.087 S 
ATOM      4  C   LIG    1       21.684 -18.737   4.145  0.00  0.00    +0.024 A 
ATOM      5  C   LIG    1       20.604 -19.538   4.565  0.00  0.00    +0.061 A 
ATOM      6  C   LIG    1       20.855 -20.825   5.017  0.00  0.00    +0.118 A 
ATOM      7  C   LIG    1       22.145 -21.314   5.070  0.00  0.00    +0.046 A 
ATOM      8  C   LIG    1       23.216 -20.506   4.640  0.00  0.00    +0.013 A 
ATOM      9  C   LIG    1       23.000 -19.187   4.134  0.00  0.00    +0.001 A 
ENDROOT
BRANCH   2  10
ATOM     10  C   LIG    1       23.738 -15.483   3.313  0.00  0.00    -0.010 A 
ATOM     11  C   LIG    1       24.602 -15.073   2.290  0.00  0.00    +0.012 A 
ATOM     12  C   LIG    1       24.954 -13.722   2.114  0.00  0.00    +0.046 A 
ATOM     13  C   LIG    1       24.448 -12.747   2.959  0.00  0.00    +0.117 A 
ATOM     14  C   LIG    1       23.621 -13.104   4.006  0.00  0.00    +0.046 A 
ATOM     15  C   LIG    1       23.278 -14.454   4.178  0.00  0.00    +0.012 A 
BRANCH  13  16
ATOM     16  O   LIG    1       24.786 -11.448   2.722  0.00  0.00    -0.507 OA
ATOM     17  H   LIG    1       24.127 -10.872   3.142  0.00  0.00    +0.292 HD
ENDBRANCH  13  16
ENDBRANCH   2  10
BRANCH   1  19
ATOM     18  O   LIG    1       25.705 -19.470   2.683  0.00  0.00    -0.287 OA
ATOM     19  C   LIG    1       25.343 -18.442   3.228  0.00  0.00    +0.195 C 
BRANCH  19  20
ATOM     20  C   LIG    1       26.415 -17.447   3.574  0.00  0.00    +0.022 A 
ATOM     21  C   LIG    1       26.400 -16.194   2.941  0.00  0.00    +0.015 A 
ATOM     22  C   LIG    1       27.419 -15.262   3.164  0.00  0.00    +0.046 A 
ATOM     23  C   LIG    1       28.470 -15.559   4.032  0.00  0.00    +0.121 A 
ATOM     24  C   LIG    1       28.468 -16.777   4.710  0.00  0.00    +0.046 A 
ATOM     25  C   LIG    1       27.469 -17.732   4.457  0.00  0.00    +0.015 A 
BRANCH  23  26
ATOM     26  O   LIG    1       29.425 -14.589   4.133  0.00  0.00    -0.491 OA
BRANCH  26  27
ATOM     27  C   LIG    1       29.216 -13.349   3.440  0.00  0.00    +0.244 C 
BRANCH  27  28
ATOM     28  C   LIG    1       27.889 -12.664   3.830  0.00  0.00    +0.125 C 
BRANCH  28  29
ATOM     29  N   LIG    1       27.886 -12.013   5.153  0.00  0.00    -0.299 NA
ATOM     30  C   LIG    1       26.520 -11.621   5.549  0.00  0.00    +0.084 C 
ATOM     31  C   LIG    1       25.620 -12.804   5.918  0.00  0.00    +0.015 C 
ATOM     32  C   LIG    1       26.264 -13.676   6.991  0.00  0.00    +0.002 C 
ATOM     33  C   LIG    1       27.696 -14.049   6.617  0.00  0.00    +0.015 C 
ATOM     34  C   LIG    1       28.506 -12.812   6.219  0.00  0.00    +0.084 C 
ENDBRANCH  28  29
ENDBRANCH  27  28
ENDBRANCH  26  27
ENDBRANCH  23  26
ENDBRANCH  19  20
ENDBRANCH   1  19
BRANCH   6  35
ATOM     35  O   LIG    1       19.779 -21.563   5.415  0.00  0.00    -0.507 OA
ATOM     36  H   LIG    1       19.724 -22.371   4.878  0.00  0.00    +0.292 HD
ENDBRANCH   6  35
TORSDOF 9
ENDMDL
