MODEL 1
REMARK VINA RESULT:      -5.5      0.000      0.000
REMARK  Name = *****
REMARK                            x       y       z     vdW  Elec       q    Type
REMARK                         _______ _______ _______ _____ _____    ______ ____
ROOT
ATOM      1  C   LIG    1       31.930 -17.925   9.049  0.00  0.00    +0.253 C 
ENDROOT
BRANCH   1   3
ATOM      2  O   LIG    1       30.811 -16.254  11.759  0.00  0.00    -0.258 OA
ATOM      3  P   LIG    1       31.323 -17.018  10.519  0.00  0.00    +0.339 P 
BRANCH   3   4
ATOM      4  O   LIG    1       29.950 -16.675   9.685  0.00  0.00    -0.324 OA
ATOM      5  H   LIG    1       30.217 -16.335   8.807  0.00  0.00    +0.220 HD
ENDBRANCH   3   4
BRANCH   3   6
ATOM      6  O   LIG    1       30.788 -18.454  11.118  0.00  0.00    -0.324 OA
ATOM      7  H   LIG    1       30.182 -18.253  11.861  0.00  0.00    +0.220 HD
ENDBRANCH   3   6
ENDBRANCH   1   3
BRANCH   1   8
ATOM      8  P   LIG    1       31.250 -19.486   8.577  0.00  0.00    +0.339 P 
ATOM      9  O   LIG    1       29.788 -19.697   8.766  0.00  0.00    -0.258 OA
BRANCH   8  10
ATOM     10  O   LIG    1       32.092 -20.599   9.365  0.00  0.00    -0.324 OA
ATOM     11  H   LIG    1       32.816 -20.207   9.891  0.00  0.00    +0.220 HD
ENDBRANCH   8  10
BRANCH   8  12
ATOM     12  O   LIG    1       31.696 -19.781   7.070  0.00  0.00    -0.324 OA
ATOM     13  H   LIG    1       32.381 -19.160   6.753  0.00  0.00    +0.220 HD
ENDBRANCH   8  12
ENDBRANCH   1   8
TORSDOF 6
ENDMDL
MODEL 2
REMARK VINA RESULT:      -5.4      0.876      1.831
REMARK  Name = *****
REMARK                            x       y       z     vdW  Elec       q    Type
REMARK                         _______ _______ _______ _____ _____    ______ ____
ROOT
ATOM      1  C   LIG    1       31.099 -17.863   8.742  0.00  0.00    +0.253 C 
ENDROOT
BRANCH   1   3
ATOM      2  O   LIG    1       30.958 -16.498  11.825  0.00  0.00    -0.258 OA
ATOM      3  P   LIG    1       31.023 -17.122  10.414  0.00  0.00    +0.339 P 
BRANCH   3   4
ATOM      4  O   LIG    1       30.387 -18.535  10.962  0.00  0.00    -0.324 OA
ATOM      5  H   LIG    1       30.938 -19.262  10.606  0.00  0.00    +0.220 HD
ENDBRANCH   3   4
BRANCH   3   6
ATOM      6  O   LIG    1       32.593 -17.565  10.624  0.00  0.00    -0.324 OA
ATOM      7  H   LIG    1       32.594 -18.459  11.023  0.00  0.00    +0.220 HD
ENDBRANCH   3   6
ENDBRANCH   1   3
BRANCH   1   8
ATOM      8  P   LIG    1       31.233 -19.609   8.507  0.00  0.00    +0.339 P 
ATOM      9  O   LIG    1       32.201 -20.356   9.356  0.00  0.00    -0.258 OA
BRANCH   8  10
ATOM     10  O   LIG    1       31.551 -19.829   6.952  0.00  0.00    -0.324 OA
ATOM     11  H   LIG    1       32.091 -20.629   6.798  0.00  0.00    +0.220 HD
ENDBRANCH   8  10
BRANCH   8  12
ATOM     12  O   LIG    1       29.763 -20.232   8.604  0.00  0.00    -0.324 OA
ATOM     13  H   LIG    1       29.557 -20.828   7.857  0.00  0.00    +0.220 HD
ENDBRANCH   8  12
ENDBRANCH   1   8
TORSDOF 6
ENDMDL
MODEL 3
REMARK VINA RESULT:      -5.3      2.850      3.687
REMARK  Name = *****
REMARK                            x       y       z     vdW  Elec       q    Type
REMARK                         _______ _______ _______ _____ _____    ______ ____
ROOT
ATOM      1  C   LIG    1       29.873 -21.014   7.988  0.00  0.00    +0.253 C 
ENDROOT
BRANCH   1   3
ATOM      2  O   LIG    1       30.116 -18.300   5.998  0.00  0.00    -0.258 OA
ATOM      3  P   LIG    1       30.005 -19.542   6.909  0.00  0.00    +0.339 P 
BRANCH   3   4
ATOM      4  O   LIG    1       30.027 -18.607   8.260  0.00  0.00    -0.324 OA
ATOM      5  H   LIG    1       29.098 -18.409   8.495  0.00  0.00    +0.220 HD
ENDBRANCH   3   4
BRANCH   3   6
ATOM      6  O   LIG    1       31.631 -19.787   6.861  0.00  0.00    -0.324 OA
ATOM      7  H   LIG    1       31.911 -20.064   7.757  0.00  0.00    +0.220 HD
ENDBRANCH   3   6
ENDBRANCH   1   3
BRANCH   1   8
ATOM      8  P   LIG    1       31.151 -21.442   9.131  0.00  0.00    +0.339 P 
ATOM      9  O   LIG    1       30.755 -22.110  10.402  0.00  0.00    -0.258 OA
BRANCH   8  10
ATOM     10  O   LIG    1       31.960 -20.091   9.427  0.00  0.00    -0.324 OA
ATOM     11  H   LIG    1       32.281 -19.668   8.606  0.00  0.00    +0.220 HD
ENDBRANCH   8  10
BRANCH   8  12
ATOM     12  O   LIG    1       32.254 -22.288   8.341  0.00  0.00    -0.324 OA
ATOM     13  H   LIG    1       33.010 -21.741   8.050  0.00  0.00    +0.220 HD
ENDBRANCH   8  12
ENDBRANCH   1   8
TORSDOF 6
ENDMDL
MODEL 4
REMARK VINA RESULT:      -5.2      1.531      3.818
REMARK  Name = *****
REMARK                            x       y       z     vdW  Elec       q    Type
REMARK                         _______ _______ _______ _____ _____    ______ ____
ROOT
ATOM      1  C   LIG    1       31.858 -18.443   8.323  0.00  0.00    +0.253 C 
ENDROOT
BRANCH   1   3
ATOM      2  O   LIG    1       30.096 -21.265   8.883  0.00  0.00    -0.258 OA
ATOM      3  P   LIG    1       30.903 -19.974   8.627  0.00  0.00    +0.339 P 
BRANCH   3   4
ATOM      4  O   LIG    1       32.265 -20.649   9.249  0.00  0.00    -0.324 OA
ATOM      5  H   LIG    1       33.019 -20.342   8.706  0.00  0.00    +0.220 HD
ENDBRANCH   3   4
BRANCH   3   6
ATOM      6  O   LIG    1       30.394 -19.313  10.045  0.00  0.00    -0.324 OA
ATOM      7  H   LIG    1       29.854 -18.527   9.824  0.00  0.00    +0.220 HD
ENDBRANCH   3   6
ENDBRANCH   1   3
BRANCH   1   8
ATOM      8  P   LIG    1       31.800 -17.076   9.442  0.00  0.00    +0.339 P 
ATOM      9  O   LIG    1       30.465 -16.517   9.791  0.00  0.00    -0.258 OA
BRANCH   8  10
ATOM     10  O   LIG    1       32.746 -15.944   8.817  0.00  0.00    -0.324 OA
ATOM     11  H   LIG    1       33.221 -16.260   8.023  0.00  0.00    +0.220 HD
ENDBRANCH   8  10
BRANCH   8  12
ATOM     12  O   LIG    1       32.629 -17.476  10.749  0.00  0.00    -0.324 OA
ATOM     13  H   LIG    1       32.069 -17.526  11.549  0.00  0.00    +0.220 HD
ENDBRANCH   8  12
ENDBRANCH   1   8
TORSDOF 6
ENDMDL
MODEL 5
REMARK VINA RESULT:      -5.2      1.832      2.446
REMARK  Name = *****
REMARK                            x       y       z     vdW  Elec       q    Type
REMARK                         _______ _______ _______ _____ _____    ______ ____
ROOT
ATOM      1  C   LIG    1       30.140 -18.267   8.570  0.00  0.00    +0.253 C 
ENDROOT
BRANCH   1   3
ATOM      2  O   LIG    1       32.735 -17.511  10.589  0.00  0.00    -0.258 OA
ATOM      3  P   LIG    1       31.548 -17.857   9.665  0.00  0.00    +0.339 P 
BRANCH   3   4
ATOM      4  O   LIG    1       32.092 -19.395   9.468  0.00  0.00    -0.324 OA
ATOM      5  H   LIG    1       32.269 -19.523   8.514  0.00  0.00    +0.220 HD
ENDBRANCH   3   4
BRANCH   3   6
ATOM      6  O   LIG    1       32.325 -17.246   8.350  0.00  0.00    -0.324 OA
ATOM      7  H   LIG    1       31.731 -17.359   7.580  0.00  0.00    +0.220 HD
ENDBRANCH   3   6
ENDBRANCH   1   3
BRANCH   1   8
ATOM      8  P   LIG    1       30.106 -19.759   7.622  0.00  0.00    +0.339 P 
ATOM      9  O   LIG    1       29.817 -21.033   8.337  0.00  0.00    -0.258 OA
BRANCH   8  10
ATOM     10  O   LIG    1       31.514 -19.839   6.862  0.00  0.00    -0.324 OA
ATOM     11  H   LIG    1       31.705 -19.025   6.356  0.00  0.00    +0.220 HD
ENDBRANCH   8  10
BRANCH   8  12
ATOM     12  O   LIG    1       29.111 -19.536   6.392  0.00  0.00    -0.324 OA
ATOM     13  H   LIG    1       28.199 -19.830   6.588  0.00  0.00    +0.220 HD
ENDBRANCH   8  12
ENDBRANCH   1   8
TORSDOF 6
ENDMDL
MODEL 6
REMARK VINA RESULT:      -5.1      1.040      3.984
REMARK  Name = *****
REMARK                            x       y       z     vdW  Elec       q    Type
REMARK                         _______ _______ _______ _____ _____    ______ ____
ROOT
ATOM      1  C   LIG    1       30.845 -17.336   9.141  0.00  0.00    +0.253 C 
ENDROOT
BRANCH   1   3
ATOM      2  O   LIG    1       31.522 -19.968   7.142  0.00  0.00    -0.258 OA
ATOM      3  P   LIG    1       31.212 -18.763   8.057  0.00  0.00    +0.339 P 
BRANCH   3   4
ATOM      4  O   LIG    1       32.158 -19.373   9.254  0.00  0.00    -0.324 OA
ATOM      5  H   LIG    1       32.804 -18.680   9.499  0.00  0.00    +0.220 HD
ENDBRANCH   3   4
BRANCH   3   6
ATOM      6  O   LIG    1       29.820 -19.459   8.588  0.00  0.00    -0.324 OA
ATOM      7  H   LIG    1       29.740 -19.262   9.543  0.00  0.00    +0.220 HD
ENDBRANCH   3   6
ENDBRANCH   1   3
BRANCH   1   8
ATOM      8  P   LIG    1       31.308 -17.324  10.847  0.00  0.00    +0.339 P 
ATOM      9  O   LIG    1       32.760 -17.272  11.175  0.00  0.00    -0.258 OA
BRANCH   8  10
ATOM     10  O   LIG    1       30.620 -18.611  11.507  0.00  0.00    -0.324 OA
ATOM     11  H   LIG    1       31.006 -18.827  12.379  0.00  0.00    +0.220 HD
ENDBRANCH   8  10
BRANCH   8  12
ATOM     12  O   LIG    1       30.500 -16.147  11.567  0.00  0.00    -0.324 OA
ATOM     13  H   LIG    1       29.757 -16.478  12.109  0.00  0.00    +0.220 HD
ENDBRANCH   8  12
ENDBRANCH   1   8
TORSDOF 6
ENDMDL
MODEL 7
REMARK VINA RESULT:      -5.0      1.883      2.376
REMARK  Name = *****
REMARK                            x       y       z     vdW  Elec       q    Type
REMARK                         _______ _______ _______ _____ _____    ______ ____
ROOT
ATOM      1  C   LIG    1       30.586 -19.055   7.605  0.00  0.00    +0.253 C 
ENDROOT
BRANCH   1   3
ATOM      2  O   LIG    1       32.304 -17.902  10.270  0.00  0.00    -0.258 OA
ATOM      3  P   LIG    1       31.518 -18.430   9.051  0.00  0.00    +0.339 P 
BRANCH   3   4
ATOM      4  O   LIG    1       30.193 -18.725   9.977  0.00  0.00    -0.324 OA
ATOM      5  H   LIG    1       30.503 -18.876  10.893  0.00  0.00    +0.220 HD
ENDBRANCH   3   4
BRANCH   3   6
ATOM      6  O   LIG    1       32.164 -19.933   9.218  0.00  0.00    -0.324 OA
ATOM      7  H   LIG    1       33.138 -19.839   9.171  0.00  0.00    +0.220 HD
ENDBRANCH   3   6
ENDBRANCH   1   3
BRANCH   1   8
ATOM      8  P   LIG    1       29.346 -20.304   7.771  0.00  0.00    +0.339 P 
ATOM      9  O   LIG    1       28.011 -19.898   8.291  0.00  0.00    -0.258 OA
BRANCH   8  10
ATOM     10  O   LIG    1       29.987 -21.454   8.685  0.00  0.00    -0.324 OA
ATOM     11  H   LIG    1       30.950 -21.335   8.802  0.00  0.00    +0.220 HD
ENDBRANCH   8  10
BRANCH   8  12
ATOM     12  O   LIG    1       29.225 -21.065   6.370  0.00  0.00    -0.324 OA
ATOM     13  H   LIG    1       29.537 -21.991   6.416  0.00  0.00    +0.220 HD
ENDBRANCH   8  12
ENDBRANCH   1   8
TORSDOF 6
ENDMDL
MODEL 8
REMARK VINA RESULT:      -4.9      2.471      3.586
REMARK  Name = *****
REMARK                            x       y       z     vdW  Elec       q    Type
REMARK                         _______ _______ _______ _____ _____    ______ ____
ROOT
ATOM      1  C   LIG    1       29.712 -18.808   6.985  0.00  0.00    +0.253 C 
ENDROOT
BRANCH   1   3
ATOM      2  O   LIG    1       32.142 -19.089   9.308  0.00  0.00    -0.258 OA
ATOM      3  P   LIG    1       31.030 -18.960   8.245  0.00  0.00    +0.339 P 
BRANCH   3   4
ATOM      4  O   LIG    1       30.095 -20.063   9.026  0.00  0.00    -0.324 OA
ATOM      5  H   LIG    1       29.995 -19.760   9.951  0.00  0.00    +0.220 HD
ENDBRANCH   3   4
BRANCH   3   6
ATOM      6  O   LIG    1       31.771 -20.051   7.262  0.00  0.00    -0.324 OA
ATOM      7  H   LIG    1       32.737 -19.943   7.381  0.00  0.00    +0.220 HD
ENDBRANCH   3   6
ENDBRANCH   1   3
BRANCH   1   8
ATOM      8  P   LIG    1       28.523 -20.090   6.727  0.00  0.00    +0.339 P 
ATOM      9  O   LIG    1       27.355 -20.154   7.648  0.00  0.00    -0.258 OA
BRANCH   8  10
ATOM     10  O   LIG    1       29.339 -21.469   6.745  0.00  0.00    -0.324 OA
ATOM     11  H   LIG    1       29.877 -21.567   7.556  0.00  0.00    +0.220 HD
ENDBRANCH   8  10
BRANCH   8  12
ATOM     12  O   LIG    1       28.063 -20.033   5.197  0.00  0.00    -0.324 OA
ATOM     13  H   LIG    1       27.477 -19.273   5.009  0.00  0.00    +0.220 HD
ENDBRANCH   8  12
ENDBRANCH   1   8
TORSDOF 6
ENDMDL
MODEL 9
REMARK VINA RESULT:      -4.8      2.112      4.109
REMARK  Name = *****
REMARK                            x       y       z     vdW  Elec       q    Type
REMARK                         _______ _______ _______ _____ _____    ______ ____
ROOT
ATOM      1  C   LIG    1       30.387 -19.042   7.191  0.00  0.00    +0.253 C 
ENDROOT
BRANCH   1   3
ATOM      2  O   LIG    1       28.087 -21.505   7.029  0.00  0.00    -0.258 OA
ATOM      3  P   LIG    1       29.140 -20.378   7.103  0.00  0.00    +0.339 P 
BRANCH   3   4
ATOM      4  O   LIG    1       30.201 -21.360   7.884  0.00  0.00    -0.324 OA
ATOM      5  H   LIG    1       30.638 -20.827   8.578  0.00  0.00    +0.220 HD
ENDBRANCH   3   4
BRANCH   3   6
ATOM      6  O   LIG    1       28.461 -19.763   8.470  0.00  0.00    -0.324 OA
ATOM      7  H   LIG    1       27.758 -20.383   8.751  0.00  0.00    +0.220 HD
ENDBRANCH   3   6
ENDBRANCH   1   3
BRANCH   1   8
ATOM      8  P   LIG    1       31.134 -18.571   8.722  0.00  0.00    +0.339 P 
ATOM      9  O   LIG    1       30.239 -18.162   9.839  0.00  0.00    -0.258 OA
BRANCH   8  10
ATOM     10  O   LIG    1       32.177 -17.406   8.372  0.00  0.00    -0.324 OA
ATOM     11  H   LIG    1       32.937 -17.396   8.987  0.00  0.00    +0.220 HD
ENDBRANCH   8  10
BRANCH   8  12
ATOM     12  O   LIG    1       32.128 -19.742   9.164  0.00  0.00    -0.324 OA
ATOM     13  H   LIG    1       33.061 -19.547   8.945  0.00  0.00    +0.220 HD
ENDBRANCH   8  12
ENDBRANCH   1   8
TORSDOF 6
ENDMDL
