MODEL 1
REMARK VINA RESULT:      -8.9      0.000      0.000
REMARK  Name = *****
REMARK                            x       y       z     vdW  Elec       q    Type
REMARK                         _______ _______ _______ _____ _____    ______ ____
ROOT
ATOM      1  C   LIG    1       25.216 -27.841   6.733  0.00  0.00    +0.095 C 
ATOM      2  C   LIG    1       26.535 -27.047   6.518  0.00  0.00    +0.038 C 
ATOM      3  C   LIG    1       26.416 -26.031   5.375  0.00  0.00    +0.086 C 
ATOM      4  N   LIG    1       25.312 -25.084   5.563  0.00  0.00    -0.302 NA
ATOM      5  C   LIG    1       24.044 -25.831   5.630  0.00  0.00    +0.086 C 
ATOM      6  C   LIG    1       24.019 -26.844   6.777  0.00  0.00    +0.038 C 
ENDROOT
BRANCH   1   7
ATOM      7  C   LIG    1       25.305 -28.682   8.037  0.00  0.00    -0.030 A 
ATOM      8  C   LIG    1       26.357 -28.495   8.957  0.00  0.00    +0.005 A 
ATOM      9  C   LIG    1       26.473 -29.269  10.114  0.00  0.00    +0.000 A 
ATOM     10  C   LIG    1       25.528 -30.246  10.394  0.00  0.00    +0.000 A 
ATOM     11  C   LIG    1       24.464 -30.439   9.521  0.00  0.00    +0.000 A 
ATOM     12  C   LIG    1       24.349 -29.661   8.364  0.00  0.00    +0.005 A 
ENDBRANCH   1   7
BRANCH   1  13
ATOM     13  C   LIG    1       24.971 -28.795   5.534  0.00  0.00    +0.318 C 
ATOM     14  O   LIG    1       23.918 -28.882   4.914  0.00  0.00    -0.250 OA
BRANCH  13  15
ATOM     15  O   LIG    1       26.036 -29.635   5.360  0.00  0.00    -0.464 OA
BRANCH  15  17
ATOM     16  C   LIG    1       26.386 -31.878   6.223  0.00  0.00    +0.048 C 
ATOM     17  C   LIG    1       25.744 -31.022   5.156  0.00  0.00    +0.229 C 
ENDBRANCH  15  17
ENDBRANCH  13  15
ENDBRANCH   1  13
BRANCH   4  18
ATOM     18  C   LIG    1       25.493 -24.185   6.728  0.00  0.00    +0.086 C 
BRANCH  18  19
ATOM     19  C   LIG    1       26.596 -23.140   6.488  0.00  0.00    +0.046 C 
BRANCH  19  20
ATOM     20  C   LIG    1       26.278 -21.675   6.950  0.00  0.00    +0.108 C 
BRANCH  20  21
ATOM     21  C   LIG    1       25.085 -21.106   6.111  0.00  0.00    -0.023 A 
ATOM     22  C   LIG    1       23.894 -20.663   6.716  0.00  0.00    +0.005 A 
ATOM     23  C   LIG    1       22.814 -20.204   5.946  0.00  0.00    +0.000 A 
ATOM     24  C   LIG    1       22.885 -20.199   4.556  0.00  0.00    +0.000 A 
ATOM     25  C   LIG    1       24.032 -20.661   3.930  0.00  0.00    +0.000 A 
ATOM     26  C   LIG    1       25.111 -21.112   4.695  0.00  0.00    +0.005 A 
ENDBRANCH  20  21
BRANCH  20  27
ATOM     27  C   LIG    1       27.582 -20.816   6.813  0.00  0.00    -0.023 A 
ATOM     28  C   LIG    1       27.715 -19.812   5.829  0.00  0.00    +0.005 A 
ATOM     29  C   LIG    1       28.881 -19.047   5.709  0.00  0.00    +0.000 A 
ATOM     30  C   LIG    1       29.956 -19.273   6.561  0.00  0.00    +0.000 A 
ATOM     31  C   LIG    1       29.855 -20.251   7.545  0.00  0.00    +0.000 A 
ATOM     32  C   LIG    1       28.682 -21.007   7.679  0.00  0.00    +0.005 A 
ENDBRANCH  20  27
BRANCH  20  33
ATOM     33  C   LIG    1       25.807 -21.759   8.368  0.00  0.00    +0.079 C 
ATOM     34  N   LIG    1       25.445 -21.780   9.465  0.00  0.00    -0.195 NA
ENDBRANCH  20  33
ENDBRANCH  19  20
ENDBRANCH  18  19
ENDBRANCH   4  18
TORSDOF 10
ENDMDL
MODEL 2
REMARK VINA RESULT:      -8.3      0.997      1.659
REMARK  Name = *****
REMARK                            x       y       z     vdW  Elec       q    Type
REMARK                         _______ _______ _______ _____ _____    ______ ____
ROOT
ATOM      1  C   LIG    1       25.195 -27.865   6.604  0.00  0.00    +0.095 C 
ATOM      2  C   LIG    1       26.439 -27.171   5.981  0.00  0.00    +0.038 C 
ATOM      3  C   LIG    1       26.094 -26.421   4.688  0.00  0.00    +0.086 C 
ATOM      4  N   LIG    1       25.030 -25.427   4.868  0.00  0.00    -0.302 NA
ATOM      5  C   LIG    1       23.808 -26.109   5.329  0.00  0.00    +0.086 C 
ATOM      6  C   LIG    1       24.012 -26.851   6.653  0.00  0.00    +0.038 C 
ENDROOT
BRANCH   1   7
ATOM      7  C   LIG    1       25.538 -28.408   8.020  0.00  0.00    -0.030 A 
ATOM      8  C   LIG    1       24.849 -29.511   8.565  0.00  0.00    +0.005 A 
ATOM      9  C   LIG    1       25.118 -29.987   9.851  0.00  0.00    +0.000 A 
ATOM     10  C   LIG    1       26.099 -29.381  10.626  0.00  0.00    +0.000 A 
ATOM     11  C   LIG    1       26.814 -28.308  10.107  0.00  0.00    +0.000 A 
ATOM     12  C   LIG    1       26.544 -27.834   8.819  0.00  0.00    +0.005 A 
ENDBRANCH   1   7
BRANCH   1  13
ATOM     13  C   LIG    1       24.745 -29.048   5.706  0.00  0.00    +0.318 C 
ATOM     14  O   LIG    1       23.582 -29.396   5.541  0.00  0.00    -0.250 OA
BRANCH  13  15
ATOM     15  O   LIG    1       25.827 -29.746   5.248  0.00  0.00    -0.464 OA
BRANCH  15  17
ATOM     16  C   LIG    1       26.378 -31.915   6.191  0.00  0.00    +0.048 C 
ATOM     17  C   LIG    1       25.670 -31.160   5.089  0.00  0.00    +0.229 C 
ENDBRANCH  15  17
ENDBRANCH  13  15
ENDBRANCH   1  13
BRANCH   4  18
ATOM     18  C   LIG    1       25.412 -24.304   5.758  0.00  0.00    +0.086 C 
BRANCH  18  19
ATOM     19  C   LIG    1       25.172 -22.935   5.097  0.00  0.00    +0.046 C 
BRANCH  19  20
ATOM     20  C   LIG    1       25.039 -21.710   6.068  0.00  0.00    +0.108 C 
BRANCH  20  21
ATOM     21  C   LIG    1       24.258 -20.556   5.355  0.00  0.00    -0.023 A 
ATOM     22  C   LIG    1       22.995 -20.125   5.805  0.00  0.00    +0.005 A 
ATOM     23  C   LIG    1       22.285 -19.124   5.125  0.00  0.00    +0.000 A 
ATOM     24  C   LIG    1       22.802 -18.547   3.968  0.00  0.00    +0.000 A 
ATOM     25  C   LIG    1       24.027 -18.975   3.482  0.00  0.00    +0.000 A 
ATOM     26  C   LIG    1       24.739 -19.967   4.162  0.00  0.00    +0.005 A 
ENDBRANCH  20  21
BRANCH  20  27
ATOM     27  C   LIG    1       26.477 -21.280   6.524  0.00  0.00    -0.023 A 
ATOM     28  C   LIG    1       27.095 -21.836   7.666  0.00  0.00    +0.005 A 
ATOM     29  C   LIG    1       28.379 -21.451   8.070  0.00  0.00    +0.000 A 
ATOM     30  C   LIG    1       29.076 -20.485   7.354  0.00  0.00    +0.000 A 
ATOM     31  C   LIG    1       28.498 -19.922   6.221  0.00  0.00    +0.000 A 
ATOM     32  C   LIG    1       27.220 -20.319   5.803  0.00  0.00    +0.005 A 
ENDBRANCH  20  27
BRANCH  20  33
ATOM     33  C   LIG    1       24.195 -22.158   7.220  0.00  0.00    +0.079 C 
ATOM     34  N   LIG    1       23.509 -22.482   8.090  0.00  0.00    -0.195 NA
ENDBRANCH  20  33
ENDBRANCH  19  20
ENDBRANCH  18  19
ENDBRANCH   4  18
TORSDOF 10
ENDMDL
MODEL 3
REMARK VINA RESULT:      -7.3      5.373      9.251
REMARK  Name = *****
REMARK                            x       y       z     vdW  Elec       q    Type
REMARK                         _______ _______ _______ _____ _____    ______ ____
ROOT
ATOM      1  C   LIG    1       25.017 -28.614  13.093  0.00  0.00    +0.095 C 
ATOM      2  C   LIG    1       25.709 -28.258  11.747  0.00  0.00    +0.038 C 
ATOM      3  C   LIG    1       27.055 -28.974  11.583  0.00  0.00    +0.086 C 
ATOM      4  N   LIG    1       26.945 -30.432  11.693  0.00  0.00    -0.302 NA
ATOM      5  C   LIG    1       26.415 -30.775  13.025  0.00  0.00    +0.086 C 
ATOM      6  C   LIG    1       25.038 -30.161  13.285  0.00  0.00    +0.038 C 
ENDROOT
BRANCH   1   7
ATOM      7  C   LIG    1       23.565 -28.058  13.112  0.00  0.00    -0.030 A 
ATOM      8  C   LIG    1       22.458 -28.899  12.878  0.00  0.00    +0.005 A 
ATOM      9  C   LIG    1       21.150 -28.408  12.853  0.00  0.00    +0.000 A 
ATOM     10  C   LIG    1       20.910 -27.058  13.077  0.00  0.00    +0.000 A 
ATOM     11  C   LIG    1       21.978 -26.207  13.336  0.00  0.00    +0.000 A 
ATOM     12  C   LIG    1       23.286 -26.702  13.362  0.00  0.00    +0.005 A 
ENDBRANCH   1   7
BRANCH   1  13
ATOM     13  C   LIG    1       25.808 -27.996  14.275  0.00  0.00    +0.318 C 
ATOM     14  O   LIG    1       25.620 -28.262  15.456  0.00  0.00    -0.250 OA
BRANCH  13  15
ATOM     15  O   LIG    1       26.638 -27.003  13.835  0.00  0.00    -0.464 OA
BRANCH  15  17
ATOM     16  C   LIG    1       26.081 -24.704  14.383  0.00  0.00    +0.048 C 
ATOM     17  C   LIG    1       26.899 -25.924  14.739  0.00  0.00    +0.229 C 
ENDBRANCH  15  17
ENDBRANCH  13  15
ENDBRANCH   1  13
BRANCH   4  18
ATOM     18  C   LIG    1       26.156 -31.052  10.602  0.00  0.00    +0.086 C 
BRANCH  18  19
ATOM     19  C   LIG    1       26.533 -30.487   9.221  0.00  0.00    +0.046 C 
BRANCH  19  20
ATOM     20  C   LIG    1       25.433 -30.586   8.107  0.00  0.00    +0.108 C 
BRANCH  20  21
ATOM     21  C   LIG    1       25.249 -29.189   7.424  0.00  0.00    -0.023 A 
ATOM     22  C   LIG    1       24.382 -29.004   6.330  0.00  0.00    +0.005 A 
ATOM     23  C   LIG    1       24.266 -27.757   5.698  0.00  0.00    +0.000 A 
ATOM     24  C   LIG    1       25.029 -26.672   6.122  0.00  0.00    +0.000 A 
ATOM     25  C   LIG    1       25.916 -26.832   7.174  0.00  0.00    +0.000 A 
ATOM     26  C   LIG    1       26.027 -28.072   7.811  0.00  0.00    +0.005 A 
ENDBRANCH  20  21
BRANCH  20  27
ATOM     27  C   LIG    1       24.112 -31.123   8.759  0.00  0.00    -0.023 A 
ATOM     28  C   LIG    1       23.305 -30.312   9.587  0.00  0.00    +0.005 A 
ATOM     29  C   LIG    1       22.126 -30.795  10.167  0.00  0.00    +0.000 A 
ATOM     30  C   LIG    1       21.727 -32.109   9.951  0.00  0.00    +0.000 A 
ATOM     31  C   LIG    1       22.497 -32.933   9.136  0.00  0.00    +0.000 A 
ATOM     32  C   LIG    1       23.669 -32.446   8.538  0.00  0.00    +0.005 A 
ENDBRANCH  20  27
BRANCH  20  33
ATOM     33  C   LIG    1       25.959 -31.514   7.058  0.00  0.00    +0.079 C 
ATOM     34  N   LIG    1       26.368 -32.196   6.220  0.00  0.00    -0.195 NA
ENDBRANCH  20  33
ENDBRANCH  19  20
ENDBRANCH  18  19
ENDBRANCH   4  18
TORSDOF 10
ENDMDL
MODEL 4
REMARK VINA RESULT:      -7.0      4.984      7.856
REMARK  Name = *****
REMARK                            x       y       z     vdW  Elec       q    Type
REMARK                         _______ _______ _______ _____ _____    ______ ____
ROOT
ATOM      1  C   LIG    1       25.046 -30.249   8.127  0.00  0.00    +0.095 C 
ATOM      2  C   LIG    1       24.170 -29.971   9.381  0.00  0.00    +0.038 C 
ATOM      3  C   LIG    1       24.268 -31.100  10.414  0.00  0.00    +0.086 C 
ATOM      4  N   LIG    1       25.645 -31.367  10.842  0.00  0.00    -0.302 NA
ATOM      5  C   LIG    1       26.444 -31.765   9.669  0.00  0.00    +0.086 C 
ATOM      6  C   LIG    1       26.471 -30.686   8.584  0.00  0.00    +0.038 C 
ENDROOT
BRANCH   1   7
ATOM      7  C   LIG    1       25.101 -28.986   7.222  0.00  0.00    -0.030 A 
ATOM      8  C   LIG    1       25.888 -27.870   7.572  0.00  0.00    +0.005 A 
ATOM      9  C   LIG    1       25.917 -26.713   6.790  0.00  0.00    +0.000 A 
ATOM     10  C   LIG    1       25.170 -26.644   5.622  0.00  0.00    +0.000 A 
ATOM     11  C   LIG    1       24.404 -27.737   5.235  0.00  0.00    +0.000 A 
ATOM     12  C   LIG    1       24.377 -28.895   6.018  0.00  0.00    +0.005 A 
ENDBRANCH   1   7
BRANCH   1  13
ATOM     13  C   LIG    1       24.447 -31.426   7.313  0.00  0.00    +0.318 C 
ATOM     14  O   LIG    1       23.277 -31.786   7.363  0.00  0.00    -0.250 OA
BRANCH  13  15
ATOM     15  O   LIG    1       25.431 -32.105   6.650  0.00  0.00    -0.464 OA
BRANCH  15  17
ATOM     16  C   LIG    1       25.893 -31.940   4.272  0.00  0.00    +0.048 C 
ATOM     17  C   LIG    1       25.103 -32.631   5.359  0.00  0.00    +0.229 C 
ENDBRANCH  15  17
ENDBRANCH  13  15
ENDBRANCH   1  13
BRANCH   4  18
ATOM     18  C   LIG    1       26.265 -30.244  11.585  0.00  0.00    +0.086 C 
BRANCH  18  19
ATOM     19  C   LIG    1       25.331 -29.024  11.677  0.00  0.00    +0.046 C 
BRANCH  19  20
ATOM     20  C   LIG    1       24.867 -28.612  13.117  0.00  0.00    +0.108 C 
BRANCH  20  21
ATOM     21  C   LIG    1       23.378 -28.131  13.073  0.00  0.00    -0.023 A 
ATOM     22  C   LIG    1       22.336 -28.975  12.644  0.00  0.00    +0.005 A 
ATOM     23  C   LIG    1       21.014 -28.513  12.562  0.00  0.00    +0.000 A 
ATOM     24  C   LIG    1       20.702 -27.194  12.880  0.00  0.00    +0.000 A 
ATOM     25  C   LIG    1       21.711 -26.330  13.272  0.00  0.00    +0.000 A 
ATOM     26  C   LIG    1       23.028 -26.791  13.362  0.00  0.00    +0.005 A 
ENDBRANCH  20  21
BRANCH  20  27
ATOM     27  C   LIG    1       25.846 -27.513  13.659  0.00  0.00    -0.023 A 
ATOM     28  C   LIG    1       26.228 -27.458  15.017  0.00  0.00    +0.005 A 
ATOM     29  C   LIG    1       27.102 -26.476  15.498  0.00  0.00    +0.000 A 
ATOM     30  C   LIG    1       27.608 -25.509  14.636  0.00  0.00    +0.000 A 
ATOM     31  C   LIG    1       27.257 -25.539  13.291  0.00  0.00    +0.000 A 
ATOM     32  C   LIG    1       26.395 -26.533  12.803  0.00  0.00    +0.005 A 
ENDBRANCH  20  27
BRANCH  20  33
ATOM     33  C   LIG    1       24.897 -29.852  13.955  0.00  0.00    +0.079 C 
ATOM     34  N   LIG    1       24.883 -30.824  14.578  0.00  0.00    -0.195 NA
ENDBRANCH  20  33
ENDBRANCH  19  20
ENDBRANCH  18  19
ENDBRANCH   4  18
TORSDOF 10
ENDMDL
MODEL 5
REMARK VINA RESULT:      -7.0      3.991      8.565
REMARK  Name = *****
REMARK                            x       y       z     vdW  Elec       q    Type
REMARK                         _______ _______ _______ _____ _____    ______ ____
ROOT
ATOM      1  C   LIG    1       30.078 -19.210   7.815  0.00  0.00    +0.095 C 
ATOM      2  C   LIG    1       29.257 -18.511   6.694  0.00  0.00    +0.038 C 
ATOM      3  C   LIG    1       28.669 -19.517   5.697  0.00  0.00    +0.086 C 
ATOM      4  N   LIG    1       27.832 -20.537   6.338  0.00  0.00    -0.302 NA
ATOM      5  C   LIG    1       28.650 -21.291   7.305  0.00  0.00    +0.086 C 
ATOM      6  C   LIG    1       29.249 -20.396   8.393  0.00  0.00    +0.038 C 
ENDROOT
BRANCH   1   7
ATOM      7  C   LIG    1       30.453 -18.185   8.921  0.00  0.00    -0.030 A 
ATOM      8  C   LIG    1       31.508 -17.267   8.739  0.00  0.00    +0.005 A 
ATOM      9  C   LIG    1       31.883 -16.366   9.739  0.00  0.00    +0.000 A 
ATOM     10  C   LIG    1       31.202 -16.345  10.948  0.00  0.00    +0.000 A 
ATOM     11  C   LIG    1       30.140 -17.219  11.150  0.00  0.00    +0.000 A 
ATOM     12  C   LIG    1       29.765 -18.119  10.147  0.00  0.00    +0.005 A 
ENDBRANCH   1   7
BRANCH   1  13
ATOM     13  C   LIG    1       31.380 -19.810   7.221  0.00  0.00    +0.318 C 
ATOM     14  O   LIG    1       32.049 -19.289   6.337  0.00  0.00    -0.250 OA
BRANCH  13  15
ATOM     15  O   LIG    1       31.598 -21.068   7.709  0.00  0.00    -0.464 OA
BRANCH  15  17
ATOM     16  C   LIG    1       31.174 -22.335   9.736  0.00  0.00    +0.048 C 
ATOM     17  C   LIG    1       31.915 -21.182   9.100  0.00  0.00    +0.229 C 
ENDBRANCH  15  17
ENDBRANCH  13  15
ENDBRANCH   1  13
BRANCH   4  18
ATOM     18  C   LIG    1       26.600 -19.992   6.956  0.00  0.00    +0.086 C 
BRANCH  18  19
ATOM     19  C   LIG    1       25.745 -21.090   7.611  0.00  0.00    +0.046 C 
BRANCH  19  20
ATOM     20  C   LIG    1       24.611 -21.711   6.722  0.00  0.00    +0.108 C 
BRANCH  20  21
ATOM     21  C   LIG    1       25.044 -23.135   6.235  0.00  0.00    -0.023 A 
ATOM     22  C   LIG    1       24.607 -23.666   5.007  0.00  0.00    +0.005 A 
ATOM     23  C   LIG    1       24.963 -24.964   4.609  0.00  0.00    +0.000 A 
ATOM     24  C   LIG    1       25.740 -25.772   5.434  0.00  0.00    +0.000 A 
ATOM     25  C   LIG    1       26.157 -25.289   6.664  0.00  0.00    +0.000 A 
ATOM     26  C   LIG    1       25.810 -23.994   7.060  0.00  0.00    +0.005 A 
ENDBRANCH  20  21
BRANCH  20  27
ATOM     27  C   LIG    1       24.315 -20.727   5.537  0.00  0.00    -0.023 A 
ATOM     28  C   LIG    1       25.220 -20.553   4.467  0.00  0.00    +0.005 A 
ATOM     29  C   LIG    1       24.952 -19.674   3.411  0.00  0.00    +0.000 A 
ATOM     30  C   LIG    1       23.778 -18.931   3.401  0.00  0.00    +0.000 A 
ATOM     31  C   LIG    1       22.863 -19.083   4.437  0.00  0.00    +0.000 A 
ATOM     32  C   LIG    1       23.120 -19.976   5.487  0.00  0.00    +0.005 A 
ENDBRANCH  20  27
BRANCH  20  33
ATOM     33  C   LIG    1       23.419 -21.900   7.606  0.00  0.00    +0.079 C 
ATOM     34  N   LIG    1       22.488 -22.003   8.282  0.00  0.00    -0.195 NA
ENDBRANCH  20  33
ENDBRANCH  19  20
ENDBRANCH  18  19
ENDBRANCH   4  18
TORSDOF 10
ENDMDL
MODEL 6
REMARK VINA RESULT:      -6.7      5.611      9.138
REMARK  Name = *****
REMARK                            x       y       z     vdW  Elec       q    Type
REMARK                         _______ _______ _______ _____ _____    ______ ____
ROOT
ATOM      1  C   LIG    1       22.631 -29.550  13.272  0.00  0.00    +0.095 C 
ATOM      2  C   LIG    1       23.503 -30.800  13.581  0.00  0.00    +0.038 C 
ATOM      3  C   LIG    1       23.012 -32.045  12.833  0.00  0.00    +0.086 C 
ATOM      4  N   LIG    1       22.948 -31.852  11.380  0.00  0.00    -0.302 NA
ATOM      5  C   LIG    1       22.013 -30.754  11.081  0.00  0.00    +0.086 C 
ATOM      6  C   LIG    1       22.432 -29.432  11.731  0.00  0.00    +0.038 C 
ENDROOT
BRANCH   1   7
ATOM      7  C   LIG    1       23.298 -28.274  13.859  0.00  0.00    -0.030 A 
ATOM      8  C   LIG    1       23.110 -27.011  13.261  0.00  0.00    +0.005 A 
ATOM      9  C   LIG    1       23.733 -25.862  13.753  0.00  0.00    +0.000 A 
ATOM     10  C   LIG    1       24.552 -25.939  14.871  0.00  0.00    +0.000 A 
ATOM     11  C   LIG    1       24.737 -27.165  15.500  0.00  0.00    +0.000 A 
ATOM     12  C   LIG    1       24.111 -28.314  15.007  0.00  0.00    +0.005 A 
ENDBRANCH   1   7
BRANCH   1  13
ATOM     13  C   LIG    1       21.223 -29.718  13.902  0.00  0.00    +0.318 C 
ATOM     14  O   LIG    1       20.943 -30.524  14.781  0.00  0.00    -0.250 OA
BRANCH  13  15
ATOM     15  O   LIG    1       20.303 -28.954  13.240  0.00  0.00    -0.464 OA
BRANCH  15  17
ATOM     16  C   LIG    1       19.643 -26.687  13.804  0.00  0.00    +0.048 C 
ATOM     17  C   LIG    1       19.418 -28.162  14.039  0.00  0.00    +0.229 C 
ENDBRANCH  15  17
ENDBRANCH  13  15
ENDBRANCH   1  13
BRANCH   4  18
ATOM     18  C   LIG    1       24.274 -31.644  10.750  0.00  0.00    +0.086 C 
BRANCH  18  19
ATOM     19  C   LIG    1       24.228 -30.576   9.643  0.00  0.00    +0.046 C 
BRANCH  19  20
ATOM     20  C   LIG    1       25.614 -30.060   9.118  0.00  0.00    +0.108 C 
BRANCH  20  21
ATOM     21  C   LIG    1       26.437 -29.460  10.308  0.00  0.00    -0.023 A 
ATOM     22  C   LIG    1       27.746 -29.889  10.597  0.00  0.00    +0.005 A 
ATOM     23  C   LIG    1       28.451 -29.378  11.697  0.00  0.00    +0.000 A 
ATOM     24  C   LIG    1       27.861 -28.449  12.550  0.00  0.00    +0.000 A 
ATOM     25  C   LIG    1       26.562 -28.033  12.310  0.00  0.00    +0.000 A 
ATOM     26  C   LIG    1       25.860 -28.535  11.211  0.00  0.00    +0.005 A 
ENDBRANCH  20  21
BRANCH  20  27
ATOM     27  C   LIG    1       25.355 -29.021   7.972  0.00  0.00    -0.023 A 
ATOM     28  C   LIG    1       26.072 -27.807   7.890  0.00  0.00    +0.005 A 
ATOM     29  C   LIG    1       25.839 -26.882   6.865  0.00  0.00    +0.000 A 
ATOM     30  C   LIG    1       24.870 -27.136   5.901  0.00  0.00    +0.000 A 
ATOM     31  C   LIG    1       24.150 -28.325   5.951  0.00  0.00    +0.000 A 
ATOM     32  C   LIG    1       24.394 -29.262   6.966  0.00  0.00    +0.005 A 
ENDBRANCH  20  27
BRANCH  20  33
ATOM     33  C   LIG    1       26.367 -31.258   8.631  0.00  0.00    +0.079 C 
ATOM     34  N   LIG    1       26.954 -32.194   8.298  0.00  0.00    -0.195 NA
ENDBRANCH  20  33
ENDBRANCH  19  20
ENDBRANCH  18  19
ENDBRANCH   4  18
TORSDOF 10
ENDMDL
MODEL 7
REMARK VINA RESULT:      -6.6      5.633      8.998
REMARK  Name = *****
REMARK                            x       y       z     vdW  Elec       q    Type
REMARK                         _______ _______ _______ _____ _____    ______ ____
ROOT
ATOM      1  C   LIG    1       21.828 -30.577  12.502  0.00  0.00    +0.095 C 
ATOM      2  C   LIG    1       22.844 -31.678  12.915  0.00  0.00    +0.038 C 
ATOM      3  C   LIG    1       22.709 -32.941  12.055  0.00  0.00    +0.086 C 
ATOM      4  N   LIG    1       22.849 -32.674  10.620  0.00  0.00    -0.302 NA
ATOM      5  C   LIG    1       21.796 -31.732  10.201  0.00  0.00    +0.086 C 
ATOM      6  C   LIG    1       21.864 -30.401  10.954  0.00  0.00    +0.038 C 
ENDROOT
BRANCH   1   7
ATOM      7  C   LIG    1       22.154 -29.245  13.234  0.00  0.00    -0.030 A 
ATOM      8  C   LIG    1       21.830 -27.999  12.661  0.00  0.00    +0.005 A 
ATOM      9  C   LIG    1       22.151 -26.792  13.288  0.00  0.00    +0.000 A 
ATOM     10  C   LIG    1       22.795 -26.797  14.518  0.00  0.00    +0.000 A 
ATOM     11  C   LIG    1       23.106 -28.010  15.122  0.00  0.00    +0.000 A 
ATOM     12  C   LIG    1       22.782 -29.217  14.494  0.00  0.00    +0.005 A 
ENDBRANCH   1   7
BRANCH   1  13
ATOM     13  C   LIG    1       20.388 -31.018  12.878  0.00  0.00    +0.318 C 
ATOM     14  O   LIG    1       20.106 -31.759  13.811  0.00  0.00    -0.250 OA
BRANCH  13  15
ATOM     15  O   LIG    1       19.492 -30.595  11.936  0.00  0.00    -0.464 OA
BRANCH  15  17
ATOM     16  C   LIG    1       18.044 -31.429  10.175  0.00  0.00    +0.048 C 
ATOM     17  C   LIG    1       18.394 -31.466  11.644  0.00  0.00    +0.229 C 
ENDBRANCH  15  17
ENDBRANCH  13  15
ENDBRANCH   1  13
BRANCH   4  18
ATOM     18  C   LIG    1       24.202 -32.207  10.232  0.00  0.00    +0.086 C 
BRANCH  18  19
ATOM     19  C   LIG    1       24.147 -31.023   9.250  0.00  0.00    +0.046 C 
BRANCH  19  20
ATOM     20  C   LIG    1       25.504 -30.288   8.972  0.00  0.00    +0.108 C 
BRANCH  20  21
ATOM     21  C   LIG    1       26.052 -29.673  10.303  0.00  0.00    -0.023 A 
ATOM     22  C   LIG    1       25.215 -28.996  11.209  0.00  0.00    +0.005 A 
ATOM     23  C   LIG    1       25.730 -28.406  12.374  0.00  0.00    +0.000 A 
ATOM     24  C   LIG    1       27.094 -28.454  12.650  0.00  0.00    +0.000 A 
ATOM     25  C   LIG    1       27.948 -29.083  11.759  0.00  0.00    +0.000 A 
ATOM     26  C   LIG    1       27.436 -29.678  10.603  0.00  0.00    +0.005 A 
ENDBRANCH  20  21
BRANCH  20  27
ATOM     27  C   LIG    1       25.267 -29.212   7.856  0.00  0.00    -0.023 A 
ATOM     28  C   LIG    1       25.956 -27.979   7.850  0.00  0.00    +0.005 A 
ATOM     29  C   LIG    1       25.742 -27.021   6.852  0.00  0.00    +0.000 A 
ATOM     30  C   LIG    1       24.820 -27.259   5.840  0.00  0.00    +0.000 A 
ATOM     31  C   LIG    1       24.129 -28.466   5.814  0.00  0.00    +0.000 A 
ATOM     32  C   LIG    1       24.355 -29.436   6.802  0.00  0.00    +0.005 A 
ENDBRANCH  20  27
BRANCH  20  33
ATOM     33  C   LIG    1       26.485 -31.335   8.543  0.00  0.00    +0.079 C 
ATOM     34  N   LIG    1       27.210 -32.158   8.185  0.00  0.00    -0.195 NA
ENDBRANCH  20  33
ENDBRANCH  19  20
ENDBRANCH  18  19
ENDBRANCH   4  18
TORSDOF 10
ENDMDL
MODEL 8
REMARK VINA RESULT:      -6.5      5.548      9.150
REMARK  Name = *****
REMARK                            x       y       z     vdW  Elec       q    Type
REMARK                         _______ _______ _______ _____ _____    ______ ____
ROOT
ATOM      1  C   LIG    1       23.724 -30.012  11.956  0.00  0.00    +0.095 C 
ATOM      2  C   LIG    1       24.371 -31.419  12.093  0.00  0.00    +0.038 C 
ATOM      3  C   LIG    1       23.395 -32.541  11.716  0.00  0.00    +0.086 C 
ATOM      4  N   LIG    1       22.848 -32.394  10.363  0.00  0.00    -0.302 NA
ATOM      5  C   LIG    1       22.117 -31.118  10.276  0.00  0.00    +0.086 C 
ATOM      6  C   LIG    1       23.007 -29.909  10.577  0.00  0.00    +0.038 C 
ENDROOT
BRANCH   1   7
ATOM      7  C   LIG    1       24.807 -28.908  12.119  0.00  0.00    -0.030 A 
ATOM      8  C   LIG    1       24.690 -27.911  13.108  0.00  0.00    +0.005 A 
ATOM      9  C   LIG    1       25.633 -26.889  13.242  0.00  0.00    +0.000 A 
ATOM     10  C   LIG    1       26.734 -26.844  12.397  0.00  0.00    +0.000 A 
ATOM     11  C   LIG    1       26.892 -27.827  11.427  0.00  0.00    +0.000 A 
ATOM     12  C   LIG    1       25.947 -28.850  11.296  0.00  0.00    +0.005 A 
ENDBRANCH   1   7
BRANCH   1  13
ATOM     13  C   LIG    1       22.640 -29.819  13.050  0.00  0.00    +0.318 C 
ATOM     14  O   LIG    1       22.621 -30.406  14.125  0.00  0.00    -0.250 OA
BRANCH  13  15
ATOM     15  O   LIG    1       21.628 -29.023  12.592  0.00  0.00    -0.464 OA
BRANCH  15  17
ATOM     16  C   LIG    1       20.778 -26.791  13.031  0.00  0.00    +0.048 C 
ATOM     17  C   LIG    1       20.963 -28.197  13.553  0.00  0.00    +0.229 C 
ENDBRANCH  15  17
ENDBRANCH  13  15
ENDBRANCH   1  13
BRANCH   4  18
ATOM     18  C   LIG    1       23.866 -32.529   9.293  0.00  0.00    +0.086 C 
BRANCH  18  19
ATOM     19  C   LIG    1       23.666 -31.496   8.170  0.00  0.00    +0.046 C 
BRANCH  19  20
ATOM     20  C   LIG    1       24.908 -31.218   7.253  0.00  0.00    +0.108 C 
BRANCH  20  21
ATOM     21  C   LIG    1       24.993 -29.688   6.932  0.00  0.00    -0.023 A 
ATOM     22  C   LIG    1       25.726 -28.798   7.739  0.00  0.00    +0.005 A 
ATOM     23  C   LIG    1       25.751 -27.422   7.467  0.00  0.00    +0.000 A 
ATOM     24  C   LIG    1       25.026 -26.896   6.401  0.00  0.00    +0.000 A 
ATOM     25  C   LIG    1       24.266 -27.742   5.610  0.00  0.00    +0.000 A 
ATOM     26  C   LIG    1       24.247 -29.115   5.875  0.00  0.00    +0.005 A 
ENDBRANCH  20  21
BRANCH  20  27
ATOM     27  C   LIG    1       24.783 -32.104   5.966  0.00  0.00    -0.023 A 
ATOM     28  C   LIG    1       23.612 -32.838   5.676  0.00  0.00    +0.005 A 
ATOM     29  C   LIG    1       23.504 -33.628   4.525  0.00  0.00    +0.000 A 
ATOM     30  C   LIG    1       24.570 -33.721   3.638  0.00  0.00    +0.000 A 
ATOM     31  C   LIG    1       25.736 -33.006   3.892  0.00  0.00    +0.000 A 
ATOM     32  C   LIG    1       25.840 -32.199   5.034  0.00  0.00    +0.005 A 
ENDBRANCH  20  27
BRANCH  20  33
ATOM     33  C   LIG    1       26.124 -31.560   8.055  0.00  0.00    +0.079 C 
ATOM     34  N   LIG    1       27.067 -31.780   8.684  0.00  0.00    -0.195 NA
ENDBRANCH  20  33
ENDBRANCH  19  20
ENDBRANCH  18  19
ENDBRANCH   4  18
TORSDOF 10
ENDMDL
MODEL 9
REMARK VINA RESULT:      -6.5      4.989      9.124
REMARK  Name = *****
REMARK                            x       y       z     vdW  Elec       q    Type
REMARK                         _______ _______ _______ _____ _____    ______ ____
ROOT
ATOM      1  C   LIG    1       25.075 -30.530   7.564  0.00  0.00    +0.095 C 
ATOM      2  C   LIG    1       23.638 -30.878   8.046  0.00  0.00    +0.038 C 
ATOM      3  C   LIG    1       23.595 -32.197   8.827  0.00  0.00    +0.086 C 
ATOM      4  N   LIG    1       24.503 -32.210   9.979  0.00  0.00    -0.302 NA
ATOM      5  C   LIG    1       25.884 -32.017   9.504  0.00  0.00    +0.086 C 
ATOM      6  C   LIG    1       26.068 -30.696   8.753  0.00  0.00    +0.038 C 
ENDROOT
BRANCH   1   7
ATOM      7  C   LIG    1       25.112 -29.087   6.988  0.00  0.00    -0.030 A 
ATOM      8  C   LIG    1       25.890 -28.079   7.593  0.00  0.00    +0.005 A 
ATOM      9  C   LIG    1       25.903 -26.768   7.112  0.00  0.00    +0.000 A 
ATOM     10  C   LIG    1       25.149 -26.428   5.996  0.00  0.00    +0.000 A 
ATOM     11  C   LIG    1       24.391 -27.405   5.361  0.00  0.00    +0.000 A 
ATOM     12  C   LIG    1       24.380 -28.717   5.844  0.00  0.00    +0.005 A 
ENDBRANCH   1   7
BRANCH   1  13
ATOM     13  C   LIG    1       25.517 -31.525   6.458  0.00  0.00    +0.318 C 
ATOM     14  O   LIG    1       26.674 -31.697   6.095  0.00  0.00    -0.250 OA
BRANCH  13  15
ATOM     15  O   LIG    1       24.429 -32.072   5.837  0.00  0.00    -0.464 OA
BRANCH  15  17
ATOM     16  C   LIG    1       24.609 -33.466   3.856  0.00  0.00    +0.048 C 
ATOM     17  C   LIG    1       24.556 -33.418   5.366  0.00  0.00    +0.229 C 
ENDBRANCH  15  17
ENDBRANCH  13  15
ENDBRANCH   1  13
BRANCH   4  18
ATOM     18  C   LIG    1       24.135 -31.239  11.036  0.00  0.00    +0.086 C 
BRANCH  18  19
ATOM     19  C   LIG    1       22.733 -30.644  10.815  0.00  0.00    +0.046 C 
BRANCH  19  20
ATOM     20  C   LIG    1       21.862 -30.421  12.100  0.00  0.00    +0.108 C 
BRANCH  20  21
ATOM     21  C   LIG    1       20.367 -30.767  11.789  0.00  0.00    -0.023 A 
ATOM     22  C   LIG    1       19.445 -31.065  12.810  0.00  0.00    +0.005 A 
ATOM     23  C   LIG    1       18.121 -31.423  12.511  0.00  0.00    +0.000 A 
ATOM     24  C   LIG    1       17.692 -31.517  11.190  0.00  0.00    +0.000 A 
ATOM     25  C   LIG    1       18.586 -31.264  10.163  0.00  0.00    +0.000 A 
ATOM     26  C   LIG    1       19.903 -30.900  10.458  0.00  0.00    +0.005 A 
ENDBRANCH  20  21
BRANCH  20  27
ATOM     27  C   LIG    1       22.057 -28.942  12.582  0.00  0.00    -0.023 A 
ATOM     28  C   LIG    1       23.331 -28.422  12.897  0.00  0.00    +0.005 A 
ATOM     29  C   LIG    1       23.502 -27.100  13.327  0.00  0.00    +0.000 A 
ATOM     30  C   LIG    1       22.401 -26.264  13.471  0.00  0.00    +0.000 A 
ATOM     31  C   LIG    1       21.132 -26.744  13.163  0.00  0.00    +0.000 A 
ATOM     32  C   LIG    1       20.960 -28.062  12.714  0.00  0.00    +0.005 A 
ENDBRANCH  20  27
BRANCH  20  33
ATOM     33  C   LIG    1       22.332 -31.411  13.120  0.00  0.00    +0.079 C 
ATOM     34  N   LIG    1       22.733 -32.178  13.884  0.00  0.00    -0.195 NA
ENDBRANCH  20  33
ENDBRANCH  19  20
ENDBRANCH  18  19
ENDBRANCH   4  18
TORSDOF 10
ENDMDL
