MODEL 1
REMARK VINA RESULT:      -4.9      0.000      0.000
REMARK  Name = *****
REMARK                            x       y       z     vdW  Elec       q    Type
REMARK                         _______ _______ _______ _____ _____    ______ ____
ROOT
ATOM      1  C   LIG    1       26.376 -17.230   3.639  0.00  0.00    +0.167 C 
ATOM      2  O   LIG    1       27.597 -17.305   3.731  0.00  0.00    -0.292 OA
ENDROOT
BRANCH   1   6
ATOM      3  C   LIG    1       24.559 -13.313   3.404  0.00  0.00    -0.048 A 
ATOM      4  C   LIG    1       23.863 -14.375   3.984  0.00  0.00    +0.004 A 
ATOM      5  C   LIG    1       24.440 -15.641   4.057  0.00  0.00    +0.012 A 
ATOM      6  C   LIG    1       25.725 -15.877   3.553  0.00  0.00    +0.018 A 
ATOM      7  C   LIG    1       26.417 -14.817   2.954  0.00  0.00    +0.012 A 
ATOM      8  C   LIG    1       25.837 -13.545   2.880  0.00  0.00    +0.004 A 
BRANCH   3  10
ATOM      9  C   LIG    1       23.482 -11.447   4.690  0.00  0.00    +0.009 C 
ATOM     10  C   LIG    1       23.921 -11.951   3.325  0.00  0.00    +0.032 C 
ENDBRANCH   3  10
ENDBRANCH   1   6
BRANCH   1  11
ATOM     11  C   LIG    1       25.487 -18.475   3.576  0.00  0.00    +0.071 C 
ATOM     12  C   LIG    1       25.513 -19.056   2.162  0.00  0.00    +0.017 C 
BRANCH  11  13
ATOM     13  C   LIG    1       25.872 -19.489   4.668  0.00  0.00    +0.095 C 
BRANCH  13  14
ATOM     14  N   LIG    1       25.121 -20.761   4.608  0.00  0.00    -0.302 NA
ATOM     15  C   LIG    1       25.326 -21.560   5.830  0.00  0.00    +0.084 C 
ATOM     16  C   LIG    1       24.586 -21.016   7.056  0.00  0.00    +0.015 C 
ATOM     17  C   LIG    1       23.098 -20.847   6.772  0.00  0.00    +0.002 C 
ATOM     18  C   LIG    1       22.874 -20.046   5.494  0.00  0.00    +0.015 C 
ATOM     19  C   LIG    1       23.682 -20.626   4.332  0.00  0.00    +0.084 C 
ENDBRANCH  13  14
ENDBRANCH  11  13
ENDBRANCH   1  11
TORSDOF 5
ENDMDL
MODEL 2
REMARK VINA RESULT:      -4.7      2.060      3.093
REMARK  Name = *****
REMARK                            x       y       z     vdW  Elec       q    Type
REMARK                         _______ _______ _______ _____ _____    ______ ____
ROOT
ATOM      1  C   LIG    1       22.487 -16.597   4.857  0.00  0.00    +0.167 C 
ATOM      2  O   LIG    1       21.754 -15.979   5.622  0.00  0.00    -0.292 OA
ENDROOT
BRANCH   1   6
ATOM      3  C   LIG    1       25.929 -14.592   3.175  0.00  0.00    -0.048 A 
ATOM      4  C   LIG    1       25.904 -15.984   3.265  0.00  0.00    +0.004 A 
ATOM      5  C   LIG    1       24.801 -16.637   3.811  0.00  0.00    +0.012 A 
ATOM      6  C   LIG    1       23.697 -15.914   4.282  0.00  0.00    +0.018 A 
ATOM      7  C   LIG    1       23.729 -14.516   4.210  0.00  0.00    +0.012 A 
ATOM      8  C   LIG    1       24.838 -13.861   3.660  0.00  0.00    +0.004 A 
BRANCH   3  10
ATOM      9  C   LIG    1       28.151 -13.528   3.652  0.00  0.00    +0.009 C 
ATOM     10  C   LIG    1       27.130 -13.898   2.588  0.00  0.00    +0.032 C 
ENDBRANCH   3  10
ENDBRANCH   1   6
BRANCH   1  11
ATOM     11  C   LIG    1       22.228 -18.061   4.489  0.00  0.00    +0.071 C 
ATOM     12  C   LIG    1       21.126 -18.141   3.434  0.00  0.00    +0.017 C 
BRANCH  11  13
ATOM     13  C   LIG    1       23.531 -18.769   4.077  0.00  0.00    +0.095 C 
BRANCH  13  14
ATOM     14  N   LIG    1       23.502 -20.238   4.242  0.00  0.00    -0.302 NA
ATOM     15  C   LIG    1       24.866 -20.797   4.290  0.00  0.00    +0.084 C 
ATOM     16  C   LIG    1       25.600 -20.520   5.606  0.00  0.00    +0.015 C 
ATOM     17  C   LIG    1       24.786 -20.997   6.803  0.00  0.00    +0.002 C 
ATOM     18  C   LIG    1       23.364 -20.448   6.748  0.00  0.00    +0.015 C 
ATOM     19  C   LIG    1       22.720 -20.724   5.388  0.00  0.00    +0.084 C 
ENDBRANCH  13  14
ENDBRANCH  11  13
ENDBRANCH   1  11
TORSDOF 5
ENDMDL
MODEL 3
REMARK VINA RESULT:      -4.6      2.744      6.886
REMARK  Name = *****
REMARK                            x       y       z     vdW  Elec       q    Type
REMARK                         _______ _______ _______ _____ _____    ______ ____
ROOT
ATOM      1  C   LIG    1       23.548 -15.112   4.386  0.00  0.00    +0.167 C 
ATOM      2  O   LIG    1       22.653 -14.657   5.090  0.00  0.00    -0.292 OA
ENDROOT
BRANCH   1   6
ATOM      3  C   LIG    1       23.754 -19.391   3.804  0.00  0.00    -0.048 A 
ATOM      4  C   LIG    1       24.857 -18.591   3.508  0.00  0.00    +0.004 A 
ATOM      5  C   LIG    1       24.796 -17.210   3.687  0.00  0.00    +0.012 A 
ATOM      6  C   LIG    1       23.631 -16.596   4.166  0.00  0.00    +0.018 A 
ATOM      7  C   LIG    1       22.516 -17.397   4.445  0.00  0.00    +0.012 A 
ATOM      8  C   LIG    1       22.579 -18.784   4.265  0.00  0.00    +0.004 A 
BRANCH   3  10
ATOM      9  C   LIG    1       24.597 -21.572   4.717  0.00  0.00    +0.009 C 
ATOM     10  C   LIG    1       23.830 -20.882   3.600  0.00  0.00    +0.032 C 
ENDBRANCH   3  10
ENDBRANCH   1   6
BRANCH   1  11
ATOM     11  C   LIG    1       24.573 -14.210   3.692  0.00  0.00    +0.071 C 
ATOM     12  C   LIG    1       23.861 -13.282   2.708  0.00  0.00    +0.017 C 
BRANCH  11  13
ATOM     13  C   LIG    1       25.447 -13.469   4.719  0.00  0.00    +0.095 C 
BRANCH  13  14
ATOM     14  N   LIG    1       26.701 -14.171   5.069  0.00  0.00    -0.302 NA
ATOM     15  C   LIG    1       27.326 -14.773   3.878  0.00  0.00    +0.084 C 
ATOM     16  C   LIG    1       27.990 -13.754   2.947  0.00  0.00    +0.015 C 
ATOM     17  C   LIG    1       28.997 -12.892   3.700  0.00  0.00    +0.002 C 
ATOM     18  C   LIG    1       28.368 -12.287   4.951  0.00  0.00    +0.015 C 
ATOM     19  C   LIG    1       27.688 -13.362   5.800  0.00  0.00    +0.084 C 
ENDBRANCH  13  14
ENDBRANCH  11  13
ENDBRANCH   1  11
TORSDOF 5
ENDMDL
MODEL 4
REMARK VINA RESULT:      -4.2      1.536      2.503
REMARK  Name = *****
REMARK                            x       y       z     vdW  Elec       q    Type
REMARK                         _______ _______ _______ _____ _____    ______ ____
ROOT
ATOM      1  C   LIG    1       28.350 -18.393   5.104  0.00  0.00    +0.167 C 
ATOM      2  O   LIG    1       29.475 -18.193   5.551  0.00  0.00    -0.292 OA
ENDROOT
BRANCH   1   6
ATOM      3  C   LIG    1       26.254 -15.136   3.183  0.00  0.00    -0.048 A 
ATOM      4  C   LIG    1       25.820 -16.450   3.004  0.00  0.00    +0.004 A 
ATOM      5  C   LIG    1       26.495 -17.505   3.615  0.00  0.00    +0.012 A 
ATOM      6  C   LIG    1       27.618 -17.273   4.419  0.00  0.00    +0.018 A 
ATOM      7  C   LIG    1       28.066 -15.956   4.584  0.00  0.00    +0.012 A 
ATOM      8  C   LIG    1       27.388 -14.896   3.970  0.00  0.00    +0.004 A 
BRANCH   3  10
ATOM      9  C   LIG    1       24.507 -13.353   3.439  0.00  0.00    +0.009 C 
ATOM     10  C   LIG    1       25.520 -14.004   2.512  0.00  0.00    +0.032 C 
ENDBRANCH   3  10
ENDBRANCH   1   6
BRANCH   1  11
ATOM     11  C   LIG    1       27.673 -19.764   5.193  0.00  0.00    +0.071 C 
ATOM     12  C   LIG    1       28.393 -20.629   6.227  0.00  0.00    +0.017 C 
BRANCH  11  13
ATOM     13  C   LIG    1       26.162 -19.622   5.450  0.00  0.00    +0.095 C 
BRANCH  13  14
ATOM     14  N   LIG    1       25.345 -20.720   4.891  0.00  0.00    -0.302 NA
ATOM     15  C   LIG    1       24.467 -21.309   5.918  0.00  0.00    +0.084 C 
ATOM     16  C   LIG    1       23.276 -20.423   6.295  0.00  0.00    +0.015 C 
ATOM     17  C   LIG    1       22.467 -20.033   5.062  0.00  0.00    +0.002 C 
ATOM     18  C   LIG    1       23.370 -19.449   3.981  0.00  0.00    +0.015 C 
ATOM     19  C   LIG    1       24.557 -20.371   3.699  0.00  0.00    +0.084 C 
ENDBRANCH  13  14
ENDBRANCH  11  13
ENDBRANCH   1  11
TORSDOF 5
ENDMDL
MODEL 5
REMARK VINA RESULT:      -3.2      2.097      6.862
REMARK  Name = *****
REMARK                            x       y       z     vdW  Elec       q    Type
REMARK                         _______ _______ _______ _____ _____    ______ ____
ROOT
ATOM      1  C   LIG    1       25.918 -17.554   3.263  0.00  0.00    +0.167 C 
ATOM      2  O   LIG    1       26.507 -17.843   2.227  0.00  0.00    -0.292 OA
ENDROOT
BRANCH   1   6
ATOM      3  C   LIG    1       23.217 -20.458   4.987  0.00  0.00    -0.048 A 
ATOM      4  C   LIG    1       22.744 -19.201   4.608  0.00  0.00    +0.004 A 
ATOM      5  C   LIG    1       23.610 -18.258   4.057  0.00  0.00    +0.012 A 
ATOM      6  C   LIG    1       24.969 -18.548   3.873  0.00  0.00    +0.018 A 
ATOM      7  C   LIG    1       25.448 -19.803   4.272  0.00  0.00    +0.012 A 
ATOM      8  C   LIG    1       24.577 -20.749   4.825  0.00  0.00    +0.004 A 
BRANCH   3  10
ATOM      9  C   LIG    1       20.976 -21.572   4.800  0.00  0.00    +0.009 C 
ATOM     10  C   LIG    1       22.272 -21.466   5.587  0.00  0.00    +0.032 C 
ENDBRANCH   3  10
ENDBRANCH   1   6
BRANCH   1  11
ATOM     11  C   LIG    1       26.140 -16.219   3.980  0.00  0.00    +0.071 C 
ATOM     12  C   LIG    1       27.638 -15.931   4.079  0.00  0.00    +0.017 C 
BRANCH  11  13
ATOM     13  C   LIG    1       25.336 -15.090   3.314  0.00  0.00    +0.095 C 
BRANCH  13  14
ATOM     14  N   LIG    1       25.935 -13.746   3.466  0.00  0.00    -0.302 NA
ATOM     15  C   LIG    1       25.809 -12.961   2.225  0.00  0.00    +0.084 C 
ATOM     16  C   LIG    1       24.388 -12.454   1.956  0.00  0.00    +0.015 C 
ATOM     17  C   LIG    1       23.851 -11.664   3.144  0.00  0.00    +0.002 C 
ATOM     18  C   LIG    1       24.002 -12.455   4.438  0.00  0.00    +0.015 C 
ATOM     19  C   LIG    1       25.435 -12.964   4.607  0.00  0.00    +0.084 C 
ENDBRANCH  13  14
ENDBRANCH  11  13
ENDBRANCH   1  11
TORSDOF 5
ENDMDL
MODEL 6
REMARK VINA RESULT:      -3.2      2.933      6.641
REMARK  Name = *****
REMARK                            x       y       z     vdW  Elec       q    Type
REMARK                         _______ _______ _______ _____ _____    ______ ____
ROOT
ATOM      1  C   LIG    1       24.157 -13.979   3.890  0.00  0.00    +0.167 C 
ATOM      2  O   LIG    1       23.857 -13.185   4.775  0.00  0.00    -0.292 OA
ENDROOT
BRANCH   1   6
ATOM      3  C   LIG    1       23.154 -18.166   4.290  0.00  0.00    -0.048 A 
ATOM      4  C   LIG    1       22.290 -17.189   4.786  0.00  0.00    +0.004 A 
ATOM      5  C   LIG    1       22.610 -15.837   4.666  0.00  0.00    +0.012 A 
ATOM      6  C   LIG    1       23.800 -15.430   4.049  0.00  0.00    +0.018 A 
ATOM      7  C   LIG    1       24.677 -16.411   3.568  0.00  0.00    +0.012 A 
ATOM      8  C   LIG    1       24.355 -17.769   3.689  0.00  0.00    +0.004 A 
BRANCH   3  10
ATOM      9  C   LIG    1       23.002 -20.123   5.854  0.00  0.00    +0.009 C 
ATOM     10  C   LIG    1       22.801 -19.623   4.432  0.00  0.00    +0.032 C 
ENDBRANCH   3  10
ENDBRANCH   1   6
BRANCH   1  11
ATOM     11  C   LIG    1       24.859 -13.534   2.604  0.00  0.00    +0.071 C 
ATOM     12  C   LIG    1       23.943 -12.601   1.812  0.00  0.00    +0.017 C 
BRANCH  11  13
ATOM     13  C   LIG    1       26.243 -12.932   2.906  0.00  0.00    +0.095 C 
BRANCH  13  14
ATOM     14  N   LIG    1       27.198 -13.882   3.518  0.00  0.00    -0.302 NA
ATOM     15  C   LIG    1       28.590 -13.442   3.317  0.00  0.00    +0.084 C 
ATOM     16  C   LIG    1       28.995 -12.251   4.191  0.00  0.00    +0.015 C 
ATOM     17  C   LIG    1       28.732 -12.535   5.666  0.00  0.00    +0.002 C 
ATOM     18  C   LIG    1       27.302 -13.018   5.882  0.00  0.00    +0.015 C 
ATOM     19  C   LIG    1       26.964 -14.175   4.940  0.00  0.00    +0.084 C 
ENDBRANCH  13  14
ENDBRANCH  11  13
ENDBRANCH   1  11
TORSDOF 5
ENDMDL
MODEL 7
REMARK VINA RESULT:      -3.0      2.373      3.419
REMARK  Name = *****
REMARK                            x       y       z     vdW  Elec       q    Type
REMARK                         _______ _______ _______ _____ _____    ______ ____
ROOT
ATOM      1  C   LIG    1       23.621 -15.097   3.898  0.00  0.00    +0.167 C 
ATOM      2  O   LIG    1       22.728 -14.458   3.353  0.00  0.00    -0.292 OA
ENDROOT
BRANCH   1   6
ATOM      3  C   LIG    1       27.637 -13.494   3.906  0.00  0.00    -0.048 A 
ATOM      4  C   LIG    1       27.164 -14.192   2.795  0.00  0.00    +0.004 A 
ATOM      5  C   LIG    1       25.873 -14.717   2.787  0.00  0.00    +0.012 A 
ATOM      6  C   LIG    1       25.024 -14.557   3.891  0.00  0.00    +0.018 A 
ATOM      7  C   LIG    1       25.505 -13.874   5.015  0.00  0.00    +0.012 A 
ATOM      8  C   LIG    1       26.802 -13.347   5.021  0.00  0.00    +0.004 A 
BRANCH   3  10
ATOM      9  C   LIG    1       29.224 -11.861   4.961  0.00  0.00    +0.009 C 
ATOM     10  C   LIG    1       29.037 -12.938   3.904  0.00  0.00    +0.032 C 
ENDBRANCH   3  10
ENDBRANCH   1   6
BRANCH   1  11
ATOM     11  C   LIG    1       23.349 -16.420   4.620  0.00  0.00    +0.071 C 
ATOM     12  C   LIG    1       21.844 -16.678   4.676  0.00  0.00    +0.017 C 
BRANCH  11  13
ATOM     13  C   LIG    1       24.151 -17.572   3.990  0.00  0.00    +0.095 C 
BRANCH  13  14
ATOM     14  N   LIG    1       23.345 -18.771   3.673  0.00  0.00    -0.302 NA
ATOM     15  C   LIG    1       24.193 -19.867   3.172  0.00  0.00    +0.084 C 
ATOM     16  C   LIG    1       25.034 -20.545   4.258  0.00  0.00    +0.015 C 
ATOM     17  C   LIG    1       24.160 -21.030   5.410  0.00  0.00    +0.002 C 
ATOM     18  C   LIG    1       23.257 -19.911   5.917  0.00  0.00    +0.015 C 
ATOM     19  C   LIG    1       22.490 -19.257   4.766  0.00  0.00    +0.084 C 
ENDBRANCH  13  14
ENDBRANCH  11  13
ENDBRANCH   1  11
TORSDOF 5
ENDMDL
MODEL 8
REMARK VINA RESULT:      -2.6      2.160      3.464
REMARK  Name = *****
REMARK                            x       y       z     vdW  Elec       q    Type
REMARK                         _______ _______ _______ _____ _____    ______ ____
ROOT
ATOM      1  C   LIG    1       23.137 -19.629   4.392  0.00  0.00    +0.167 C 
ATOM      2  O   LIG    1       22.171 -20.035   5.029  0.00  0.00    -0.292 OA
ENDROOT
BRANCH   1   6
ATOM      3  C   LIG    1       23.825 -15.368   4.140  0.00  0.00    -0.048 A 
ATOM      4  C   LIG    1       24.785 -16.261   3.663  0.00  0.00    +0.004 A 
ATOM      5  C   LIG    1       24.573 -17.637   3.747  0.00  0.00    +0.012 A 
ATOM      6  C   LIG    1       23.397 -18.151   4.309  0.00  0.00    +0.018 A 
ATOM      7  C   LIG    1       22.441 -17.255   4.805  0.00  0.00    +0.012 A 
ATOM      8  C   LIG    1       22.656 -15.874   4.720  0.00  0.00    +0.004 A 
BRANCH   3  10
ATOM      9  C   LIG    1       25.473 -13.567   3.556  0.00  0.00    +0.009 C 
ATOM     10  C   LIG    1       24.070 -13.884   4.050  0.00  0.00    +0.032 C 
ENDBRANCH   3  10
ENDBRANCH   1   6
BRANCH   1  11
ATOM     11  C   LIG    1       24.113 -20.584   3.698  0.00  0.00    +0.071 C 
ATOM     12  C   LIG    1       24.700 -19.911   2.458  0.00  0.00    +0.017 C 
BRANCH  11  13
ATOM     13  C   LIG    1       25.176 -21.103   4.682  0.00  0.00    +0.095 C 
BRANCH  13  14
ATOM     14  N   LIG    1       25.626 -20.102   5.674  0.00  0.00    -0.302 NA
ATOM     15  C   LIG    1       25.860 -20.722   6.990  0.00  0.00    +0.084 C 
ATOM     16  C   LIG    1       27.133 -21.570   7.057  0.00  0.00    +0.015 C 
ATOM     17  C   LIG    1       28.354 -20.768   6.621  0.00  0.00    +0.002 C 
ATOM     18  C   LIG    1       28.113 -20.099   5.272  0.00  0.00    +0.015 C 
ATOM     19  C   LIG    1       26.801 -19.312   5.275  0.00  0.00    +0.084 C 
ENDBRANCH  13  14
ENDBRANCH  11  13
ENDBRANCH   1  11
TORSDOF 5
ENDMDL
MODEL 9
REMARK VINA RESULT:      -2.4      2.480      6.871
REMARK  Name = *****
REMARK                            x       y       z     vdW  Elec       q    Type
REMARK                         _______ _______ _______ _____ _____    ______ ____
ROOT
ATOM      1  C   LIG    1       25.140 -16.722   3.522  0.00  0.00    +0.167 C 
ATOM      2  O   LIG    1       26.244 -16.827   2.998  0.00  0.00    -0.292 OA
ENDROOT
BRANCH   1   6
ATOM      3  C   LIG    1       23.064 -20.320   4.721  0.00  0.00    -0.048 A 
ATOM      4  C   LIG    1       22.386 -19.101   4.682  0.00  0.00    +0.004 A 
ATOM      5  C   LIG    1       23.051 -17.936   4.302  0.00  0.00    +0.012 A 
ATOM      6  C   LIG    1       24.408 -17.961   3.954  0.00  0.00    +0.018 A 
ATOM      7  C   LIG    1       25.093 -19.181   4.011  0.00  0.00    +0.012 A 
ATOM      8  C   LIG    1       24.425 -20.351   4.392  0.00  0.00    +0.004 A 
BRANCH   3  10
ATOM      9  C   LIG    1       20.878 -21.552   4.709  0.00  0.00    +0.009 C 
ATOM     10  C   LIG    1       22.336 -21.570   5.139  0.00  0.00    +0.032 C 
ENDBRANCH   3  10
ENDBRANCH   1   6
BRANCH   1  11
ATOM     11  C   LIG    1       24.491 -15.359   3.783  0.00  0.00    +0.071 C 
ATOM     12  C   LIG    1       23.074 -15.558   4.320  0.00  0.00    +0.017 C 
BRANCH  11  13
ATOM     13  C   LIG    1       25.378 -14.485   4.687  0.00  0.00    +0.095 C 
BRANCH  13  14
ATOM     14  N   LIG    1       25.745 -13.179   4.099  0.00  0.00    -0.302 NA
ATOM     15  C   LIG    1       26.579 -12.391   5.024  0.00  0.00    +0.084 C 
ATOM     16  C   LIG    1       28.018 -12.901   5.146  0.00  0.00    +0.015 C 
ATOM     17  C   LIG    1       28.685 -12.999   3.779  0.00  0.00    +0.002 C 
ATOM     18  C   LIG    1       27.818 -13.788   2.804  0.00  0.00    +0.015 C 
ATOM     19  C   LIG    1       26.388 -13.245   2.777  0.00  0.00    +0.084 C 
ENDBRANCH  13  14
ENDBRANCH  11  13
ENDBRANCH   1  11
TORSDOF 5
ENDMDL
