MODEL 1
REMARK VINA RESULT:       0.9      0.000      0.000
REMARK  Name = *****
REMARK                            x       y       z     vdW  Elec       q    Type
REMARK                         _______ _______ _______ _____ _____    ______ ____
ROOT
ATOM      1  C   LIG    1       24.168 -14.450   4.054  0.00  0.00    +0.068 C 
ATOM      2  C   LIG    1       24.969 -15.772   3.993  0.00  0.00    +0.044 C 
ATOM      3  C   LIG    1       24.097 -17.038   3.731  0.00  0.00    +0.086 C 
ATOM      4  N   LIG    1       22.672 -16.957   4.080  0.00  0.00    -0.300 NA
ATOM      5  C   LIG    1       22.450 -16.085   5.209  0.00  0.00    +0.086 C 
ATOM      6  C   LIG    1       22.859 -14.667   4.886  0.00  0.00    +0.044 C 
ENDROOT
BRANCH   1   8
ATOM      7  C   LIG    1       24.540 -12.182   5.496  0.00  0.00    +0.220 C 
ATOM      8  N   LIG    1       25.045 -13.218   4.659  0.00  0.00    -0.263 N 
ATOM      9  O   LIG    1       25.248 -11.452   6.208  0.00  0.00    -0.275 OA
BRANCH   8  10
ATOM     10  C   LIG    1       26.577 -13.274   4.507  0.00  0.00    +0.037 A 
ATOM     11  C   LIG    1       27.503 -12.971   5.524  0.00  0.00    +0.023 A 
ATOM     12  C   LIG    1       28.808 -12.503   5.256  0.00  0.00    +0.002 A 
ATOM     13  C   LIG    1       29.367 -12.714   4.014  0.00  0.00    +0.000 A 
ATOM     14  C   LIG    1       28.593 -13.352   3.067  0.00  0.00    +0.002 A 
ATOM     15  C   LIG    1       27.223 -13.582   3.300  0.00  0.00    +0.023 A 
ENDBRANCH   8  10
BRANCH   7  17
ATOM     16  C   LIG    1       22.653 -11.449   7.029  0.00  0.00    +0.013 C 
ATOM     17  C   LIG    1       23.098 -11.759   5.620  0.00  0.00    +0.093 C 
ENDBRANCH   7  17
ENDBRANCH   1   8
BRANCH   4  18
ATOM     18  C   LIG    1       22.008 -18.254   4.324  0.00  0.00    +0.108 C 
BRANCH  18  19
ATOM     19  C   LIG    1       22.725 -19.569   3.903  0.00  0.00    +0.166 C 
BRANCH  19  20
ATOM     20  N   LIG    1       23.491 -20.262   4.914  0.00  0.00    -0.192 N 
ATOM     21  C   LIG    1       24.847 -20.411   4.967  0.00  0.00    +0.364 C 
ATOM     22  O   LIG    1       25.711 -20.166   4.071  0.00  0.00    -0.243 OA
ATOM     23  N   LIG    1       25.106 -20.869   6.215  0.00  0.00    -0.194 N 
ATOM     24  N   LIG    1       23.954 -20.807   6.949  0.00  0.00    -0.043 NA
ATOM     25  N   LIG    1       22.998 -20.460   6.186  0.00  0.00    -0.043 NA
BRANCH  23  26
ATOM     26  C   LIG    1       26.418 -21.039   6.776  0.00  0.00    +0.147 C 
ATOM     27  C   LIG    1       27.387 -19.998   6.245  0.00  0.00    +0.029 C 
ENDBRANCH  23  26
ENDBRANCH  19  20
ENDBRANCH  18  19
ENDBRANCH   4  18
BRANCH   1  28
ATOM     28  C   LIG    1       23.551 -14.162   2.618  0.00  0.00    +0.185 C 
BRANCH  28  29
ATOM     29  O   LIG    1       24.250 -13.206   1.820  0.00  0.00    -0.381 OA
ATOM     30  C   LIG    1       23.748 -11.876   1.993  0.00  0.00    +0.193 C 
ENDBRANCH  28  29
ENDBRANCH   1  28
TORSDOF 9
ENDMDL
MODEL 2
REMARK VINA RESULT:       2.9      1.871      6.922
REMARK  Name = *****
REMARK                            x       y       z     vdW  Elec       q    Type
REMARK                         _______ _______ _______ _____ _____    ______ ____
ROOT
ATOM      1  C   LIG    1       24.190 -18.341   4.436  0.00  0.00    +0.068 C 
ATOM      2  C   LIG    1       22.959 -17.697   5.117  0.00  0.00    +0.044 C 
ATOM      3  C   LIG    1       22.439 -16.407   4.413  0.00  0.00    +0.086 C 
ATOM      4  N   LIG    1       23.392 -15.669   3.574  0.00  0.00    -0.300 NA
ATOM      5  C   LIG    1       24.741 -15.787   4.071  0.00  0.00    +0.086 C 
ATOM      6  C   LIG    1       25.209 -17.223   4.030  0.00  0.00    +0.044 C 
ENDROOT
BRANCH   1   8
ATOM      7  C   LIG    1       24.235 -20.555   6.003  0.00  0.00    +0.220 C 
ATOM      8  N   LIG    1       24.903 -19.466   5.373  0.00  0.00    -0.263 N 
ATOM      9  O   LIG    1       24.805 -21.572   6.430  0.00  0.00    -0.275 OA
BRANCH   8  10
ATOM     10  C   LIG    1       26.442 -19.503   5.422  0.00  0.00    +0.037 A 
ATOM     11  C   LIG    1       27.206 -20.296   6.299  0.00  0.00    +0.023 A 
ATOM     12  C   LIG    1       28.510 -19.943   6.711  0.00  0.00    +0.002 A 
ATOM     13  C   LIG    1       29.241 -19.043   5.967  0.00  0.00    +0.000 A 
ATOM     14  C   LIG    1       28.634 -18.495   4.855  0.00  0.00    +0.002 A 
ATOM     15  C   LIG    1       27.260 -18.690   4.622  0.00  0.00    +0.023 A 
ENDBRANCH   8  10
BRANCH   7  17
ATOM     16  C   LIG    1       21.935 -21.307   5.233  0.00  0.00    +0.013 C 
ATOM     17  C   LIG    1       22.760 -20.641   6.307  0.00  0.00    +0.093 C 
ENDBRANCH   7  17
ENDBRANCH   1   8
BRANCH   4  18
ATOM     18  C   LIG    1       23.071 -14.242   3.362  0.00  0.00    +0.108 C 
BRANCH  18  19
ATOM     19  C   LIG    1       23.924 -13.408   2.364  0.00  0.00    +0.166 C 
BRANCH  19  20
ATOM     20  N   LIG    1       25.346 -13.325   2.610  0.00  0.00    -0.192 N 
ATOM     21  C   LIG    1       25.964 -13.032   3.792  0.00  0.00    +0.364 C 
ATOM     22  O   LIG    1       25.461 -12.576   4.862  0.00  0.00    -0.243 OA
ATOM     23  N   LIG    1       27.266 -13.353   3.600  0.00  0.00    -0.194 N 
ATOM     24  N   LIG    1       27.382 -14.003   2.404  0.00  0.00    -0.043 NA
ATOM     25  N   LIG    1       26.257 -13.982   1.812  0.00  0.00    -0.043 NA
BRANCH  23  26
ATOM     26  C   LIG    1       28.277 -13.344   4.621  0.00  0.00    +0.147 C 
ATOM     27  C   LIG    1       29.070 -12.050   4.605  0.00  0.00    +0.029 C 
ENDBRANCH  23  26
ENDBRANCH  19  20
ENDBRANCH  18  19
ENDBRANCH   4  18
BRANCH   1  28
ATOM     28  C   LIG    1       23.758 -18.871   3.001  0.00  0.00    +0.185 C 
BRANCH  28  29
ATOM     29  O   LIG    1       24.601 -19.872   2.427  0.00  0.00    -0.381 OA
ATOM     30  C   LIG    1       24.232 -21.196   2.830  0.00  0.00    +0.193 C 
ENDBRANCH  28  29
ENDBRANCH   1  28
TORSDOF 9
ENDMDL
