MODEL 1
REMARK VINA RESULT:      -9.1      0.000      0.000
REMARK  Name = *****
REMARK                            x       y       z     vdW  Elec       q    Type
REMARK                         _______ _______ _______ _____ _____    ______ ____
ROOT
ATOM      1  C   LIG    1       25.393 -21.395   7.046  0.00  0.00    +0.095 C 
ENDROOT
BRANCH   1   2
ATOM      2  C   LIG    1       24.517 -20.656   6.011  0.00  0.00    -0.016 A 
ATOM      3  C   LIG    1       25.019 -20.362   4.733  0.00  0.00    +0.006 A 
ATOM      4  C   LIG    1       24.269 -19.647   3.788  0.00  0.00    +0.000 A 
ATOM      5  C   LIG    1       22.986 -19.199   4.109  0.00  0.00    +0.000 A 
ATOM      6  C   LIG    1       22.459 -19.486   5.352  0.00  0.00    +0.000 A 
ATOM      7  C   LIG    1       23.203 -20.217   6.286  0.00  0.00    +0.006 A 
ENDBRANCH   1   2
BRANCH   1   8
ATOM      8  C   LIG    1       24.894 -22.845   7.418  0.00  0.00    +0.025 C 
ATOM      9  C   LIG    1       23.597 -23.280   6.696  0.00  0.00    +0.006 C 
ATOM     10  C   LIG    1       23.752 -24.770   6.423  0.00  0.00    +0.000 C 
ATOM     11  C   LIG    1       25.216 -24.889   6.064  0.00  0.00    +0.000 C 
ATOM     12  C   LIG    1       25.887 -24.001   7.098  0.00  0.00    +0.006 C 
ENDBRANCH   1   8
BRANCH   1  13
ATOM     13  O   LIG    1       25.345 -20.619   8.263  0.00  0.00    -0.384 OA
ATOM     14  H   LIG    1       24.548 -20.880   8.753  0.00  0.00    +0.211 HD
ENDBRANCH   1  13
BRANCH   1  15
ATOM     15  C   LIG    1       26.911 -21.375   6.655  0.00  0.00    +0.055 C 
BRANCH  15  16
ATOM     16  C   LIG    1       27.877 -20.839   7.720  0.00  0.00    +0.087 C 
BRANCH  16  17
ATOM     17  N   LIG    1       29.306 -20.878   7.327  0.00  0.00    -0.302 NA
ATOM     18  C   LIG    1       29.676 -19.978   6.222  0.00  0.00    +0.084 C 
ATOM     19  C   LIG    1       29.597 -18.496   6.592  0.00  0.00    +0.015 C 
ATOM     20  C   LIG    1       30.450 -18.189   7.820  0.00  0.00    +0.002 C 
ATOM     21  C   LIG    1       30.154 -19.160   8.960  0.00  0.00    +0.015 C 
ATOM     22  C   LIG    1       30.183 -20.617   8.484  0.00  0.00    +0.084 C 
ENDBRANCH  16  17
ENDBRANCH  15  16
ENDBRANCH   1  15
TORSDOF 6
ENDMDL
MODEL 2
REMARK VINA RESULT:      -9.1      0.564      1.412
REMARK  Name = *****
REMARK                            x       y       z     vdW  Elec       q    Type
REMARK                         _______ _______ _______ _____ _____    ______ ____
ROOT
ATOM      1  C   LIG    1       25.490 -21.425   7.242  0.00  0.00    +0.095 C 
ENDROOT
BRANCH   1   2
ATOM      2  C   LIG    1       24.715 -20.667   6.142  0.00  0.00    -0.016 A 
ATOM      3  C   LIG    1       23.380 -20.282   6.345  0.00  0.00    +0.006 A 
ATOM      4  C   LIG    1       22.633 -19.640   5.348  0.00  0.00    +0.000 A 
ATOM      5  C   LIG    1       23.211 -19.372   4.105  0.00  0.00    +0.000 A 
ATOM      6  C   LIG    1       24.527 -19.724   3.880  0.00  0.00    +0.000 A 
ATOM      7  C   LIG    1       25.276 -20.348   4.885  0.00  0.00    +0.006 A 
ENDBRANCH   1   2
BRANCH   1   8
ATOM      8  C   LIG    1       24.976 -22.890   7.521  0.00  0.00    +0.025 C 
ATOM      9  C   LIG    1       23.644 -23.246   6.821  0.00  0.00    +0.006 C 
ATOM     10  C   LIG    1       23.758 -24.712   6.426  0.00  0.00    +0.000 C 
ATOM     11  C   LIG    1       25.205 -24.827   6.000  0.00  0.00    +0.000 C 
ATOM     12  C   LIG    1       25.933 -24.035   7.071  0.00  0.00    +0.006 C 
ENDBRANCH   1   8
BRANCH   1  13
ATOM     13  O   LIG    1       25.304 -20.684   8.468  0.00  0.00    -0.384 OA
ATOM     14  H   LIG    1       26.178 -20.538   8.864  0.00  0.00    +0.211 HD
ENDBRANCH   1  13
BRANCH   1  15
ATOM     15  C   LIG    1       27.039 -21.375   7.011  0.00  0.00    +0.055 C 
BRANCH  15  16
ATOM     16  C   LIG    1       27.775 -20.173   7.619  0.00  0.00    +0.087 C 
BRANCH  16  17
ATOM     17  N   LIG    1       29.044 -19.822   6.938  0.00  0.00    -0.302 NA
ATOM     18  C   LIG    1       29.587 -18.494   7.269  0.00  0.00    +0.084 C 
ATOM     19  C   LIG    1       30.080 -18.381   8.712  0.00  0.00    +0.015 C 
ATOM     20  C   LIG    1       31.117 -19.458   9.024  0.00  0.00    +0.002 C 
ATOM     21  C   LIG    1       30.623 -20.842   8.613  0.00  0.00    +0.015 C 
ATOM     22  C   LIG    1       30.079 -20.846   7.180  0.00  0.00    +0.084 C 
ENDBRANCH  16  17
ENDBRANCH  15  16
ENDBRANCH   1  15
TORSDOF 6
ENDMDL
MODEL 3
REMARK VINA RESULT:      -9.0      2.524      5.563
REMARK  Name = *****
REMARK                            x       y       z     vdW  Elec       q    Type
REMARK                         _______ _______ _______ _____ _____    ______ ____
ROOT
ATOM      1  C   LIG    1       24.553 -22.391   5.716  0.00  0.00    +0.095 C 
ENDROOT
BRANCH   1   2
ATOM      2  C   LIG    1       23.916 -21.090   5.178  0.00  0.00    -0.016 A 
ATOM      3  C   LIG    1       24.376 -20.512   3.984  0.00  0.00    +0.006 A 
ATOM      4  C   LIG    1       23.855 -19.304   3.496  0.00  0.00    +0.000 A 
ATOM      5  C   LIG    1       22.856 -18.637   4.207  0.00  0.00    +0.000 A 
ATOM      6  C   LIG    1       22.372 -19.189   5.376  0.00  0.00    +0.000 A 
ATOM      7  C   LIG    1       22.880 -20.404   5.850  0.00  0.00    +0.006 A 
ENDBRANCH   1   2
BRANCH   1   8
ATOM      8  C   LIG    1       25.784 -22.174   6.678  0.00  0.00    +0.025 C 
ATOM      9  C   LIG    1       26.627 -20.916   6.366  0.00  0.00    +0.006 C 
ATOM     10  C   LIG    1       27.087 -20.377   7.714  0.00  0.00    +0.000 C 
ATOM     11  C   LIG    1       25.879 -20.612   8.592  0.00  0.00    +0.000 C 
ATOM     12  C   LIG    1       25.436 -22.007   8.188  0.00  0.00    +0.006 C 
ENDBRANCH   1   8
BRANCH   1  13
ATOM     13  O   LIG    1       25.049 -23.116   4.570  0.00  0.00    -0.384 OA
ATOM     14  H   LIG    1       25.954 -22.811   4.392  0.00  0.00    +0.211 HD
ENDBRANCH   1  13
BRANCH   1  15
ATOM     15  C   LIG    1       23.483 -23.358   6.331  0.00  0.00    +0.055 C 
BRANCH  15  16
ATOM     16  C   LIG    1       23.987 -24.748   6.743  0.00  0.00    +0.087 C 
BRANCH  16  17
ATOM     17  N   LIG    1       24.902 -25.383   5.764  0.00  0.00    -0.302 NA
ATOM     18  C   LIG    1       26.217 -25.774   6.298  0.00  0.00    +0.084 C 
ATOM     19  C   LIG    1       26.147 -26.925   7.303  0.00  0.00    +0.015 C 
ATOM     20  C   LIG    1       25.450 -28.141   6.698  0.00  0.00    +0.002 C 
ATOM     21  C   LIG    1       24.119 -27.757   6.056  0.00  0.00    +0.015 C 
ATOM     22  C   LIG    1       24.268 -26.551   5.123  0.00  0.00    +0.084 C 
ENDBRANCH  16  17
ENDBRANCH  15  16
ENDBRANCH   1  15
TORSDOF 6
ENDMDL
MODEL 4
REMARK VINA RESULT:      -8.7      2.327      6.106
REMARK  Name = *****
REMARK                            x       y       z     vdW  Elec       q    Type
REMARK                         _______ _______ _______ _____ _____    ______ ____
ROOT
ATOM      1  C   LIG    1       24.086 -22.110   5.813  0.00  0.00    +0.095 C 
ENDROOT
BRANCH   1   2
ATOM      2  C   LIG    1       25.198 -21.389   6.607  0.00  0.00    -0.016 A 
ATOM      3  C   LIG    1       26.361 -20.942   5.960  0.00  0.00    +0.006 A 
ATOM      4  C   LIG    1       27.411 -20.331   6.661  0.00  0.00    +0.000 A 
ATOM      5  C   LIG    1       27.322 -20.159   8.043  0.00  0.00    +0.000 A 
ATOM      6  C   LIG    1       26.184 -20.574   8.706  0.00  0.00    +0.000 A 
ATOM      7  C   LIG    1       25.129 -21.167   8.001  0.00  0.00    +0.006 A 
ENDBRANCH   1   2
BRANCH   1   8
ATOM      8  C   LIG    1       23.238 -21.174   4.867  0.00  0.00    +0.025 C 
ATOM      9  C   LIG    1       22.728 -19.878   5.539  0.00  0.00    +0.006 C 
ATOM     10  C   LIG    1       22.780 -18.802   4.463  0.00  0.00    +0.000 C 
ATOM     11  C   LIG    1       24.053 -19.141   3.719  0.00  0.00    +0.000 C 
ATOM     12  C   LIG    1       23.978 -20.653   3.599  0.00  0.00    +0.006 C 
ENDBRANCH   1   8
BRANCH   1  13
ATOM     13  O   LIG    1       23.167 -22.655   6.785  0.00  0.00    -0.384 OA
ATOM     14  H   LIG    1       22.510 -21.970   6.992  0.00  0.00    +0.211 HD
ENDBRANCH   1  13
BRANCH   1  15
ATOM     15  C   LIG    1       24.626 -23.377   5.063  0.00  0.00    +0.055 C 
BRANCH  15  16
ATOM     16  C   LIG    1       24.844 -24.629   5.923  0.00  0.00    +0.087 C 
BRANCH  16  17
ATOM     17  N   LIG    1       25.746 -25.638   5.319  0.00  0.00    -0.302 NA
ATOM     18  C   LIG    1       26.698 -26.266   6.251  0.00  0.00    +0.084 C 
ATOM     19  C   LIG    1       26.028 -27.172   7.285  0.00  0.00    +0.015 C 
ATOM     20  C   LIG    1       25.178 -28.245   6.608  0.00  0.00    +0.002 C 
ATOM     21  C   LIG    1       24.238 -27.638   5.570  0.00  0.00    +0.015 C 
ATOM     22  C   LIG    1       24.980 -26.689   4.622  0.00  0.00    +0.084 C 
ENDBRANCH  16  17
ENDBRANCH  15  16
ENDBRANCH   1  15
TORSDOF 6
ENDMDL
MODEL 5
REMARK VINA RESULT:      -8.6      1.239      3.615
REMARK  Name = *****
REMARK                            x       y       z     vdW  Elec       q    Type
REMARK                         _______ _______ _______ _____ _____    ______ ____
ROOT
ATOM      1  C   LIG    1       25.602 -21.619   6.539  0.00  0.00    +0.095 C 
ENDROOT
BRANCH   1   2
ATOM      2  C   LIG    1       25.447 -23.130   6.261  0.00  0.00    -0.016 A 
ATOM      3  C   LIG    1       25.815 -24.075   7.231  0.00  0.00    +0.006 A 
ATOM      4  C   LIG    1       25.735 -25.455   6.991  0.00  0.00    +0.000 A 
ATOM      5  C   LIG    1       25.285 -25.924   5.755  0.00  0.00    +0.000 A 
ATOM      6  C   LIG    1       24.900 -25.019   4.786  0.00  0.00    +0.000 A 
ATOM      7  C   LIG    1       24.963 -23.642   5.036  0.00  0.00    +0.006 A 
ENDBRANCH   1   2
BRANCH   1   8
ATOM      8  C   LIG    1       24.251 -20.804   6.534  0.00  0.00    +0.025 C 
ATOM      9  C   LIG    1       23.989 -20.008   5.234  0.00  0.00    +0.006 C 
ATOM     10  C   LIG    1       22.485 -20.072   5.002  0.00  0.00    +0.000 C 
ATOM     11  C   LIG    1       22.146 -21.483   5.430  0.00  0.00    +0.000 C 
ATOM     12  C   LIG    1       22.955 -21.651   6.703  0.00  0.00    +0.006 C 
ENDBRANCH   1   8
BRANCH   1  13
ATOM     13  O   LIG    1       26.412 -21.080   5.471  0.00  0.00    -0.384 OA
ATOM     14  H   LIG    1       26.045 -21.397   4.629  0.00  0.00    +0.211 HD
ENDBRANCH   1  13
BRANCH   1  15
ATOM     15  C   LIG    1       26.455 -21.342   7.825  0.00  0.00    +0.055 C 
BRANCH  15  16
ATOM     16  C   LIG    1       27.572 -20.299   7.683  0.00  0.00    +0.087 C 
BRANCH  16  17
ATOM     17  N   LIG    1       28.795 -20.798   7.009  0.00  0.00    -0.302 NA
ATOM     18  C   LIG    1       29.344 -19.911   5.970  0.00  0.00    +0.084 C 
ATOM     19  C   LIG    1       29.923 -18.609   6.527  0.00  0.00    +0.015 C 
ATOM     20  C   LIG    1       30.986 -18.890   7.585  0.00  0.00    +0.002 C 
ATOM     21  C   LIG    1       30.481 -19.877   8.634  0.00  0.00    +0.015 C 
ATOM     22  C   LIG    1       29.851 -21.116   7.988  0.00  0.00    +0.084 C 
ENDBRANCH  16  17
ENDBRANCH  15  16
ENDBRANCH   1  15
TORSDOF 6
ENDMDL
MODEL 6
REMARK VINA RESULT:      -8.5      1.847      5.564
REMARK  Name = *****
REMARK                            x       y       z     vdW  Elec       q    Type
REMARK                         _______ _______ _______ _____ _____    ______ ____
ROOT
ATOM      1  C   LIG    1       25.311 -21.313   7.141  0.00  0.00    +0.095 C 
ENDROOT
BRANCH   1   2
ATOM      2  C   LIG    1       26.670 -20.598   6.974  0.00  0.00    -0.016 A 
ATOM      3  C   LIG    1       27.103 -20.175   5.707  0.00  0.00    +0.006 A 
ATOM      4  C   LIG    1       28.353 -19.571   5.514  0.00  0.00    +0.000 A 
ATOM      5  C   LIG    1       29.212 -19.380   6.599  0.00  0.00    +0.000 A 
ATOM      6  C   LIG    1       28.808 -19.770   7.860  0.00  0.00    +0.000 A 
ATOM      7  C   LIG    1       27.551 -20.356   8.052  0.00  0.00    +0.006 A 
ENDBRANCH   1   2
BRANCH   1   8
ATOM      8  C   LIG    1       24.424 -21.356   5.837  0.00  0.00    +0.025 C 
ATOM      9  C   LIG    1       22.973 -21.842   6.065  0.00  0.00    +0.006 C 
ATOM     10  C   LIG    1       22.107 -21.033   5.109  0.00  0.00    +0.000 C 
ATOM     11  C   LIG    1       22.752 -19.666   5.157  0.00  0.00    +0.000 C 
ATOM     12  C   LIG    1       24.234 -19.992   5.108  0.00  0.00    +0.006 C 
ENDBRANCH   1   8
BRANCH   1  13
ATOM     13  O   LIG    1       24.563 -20.563   8.122  0.00  0.00    -0.384 OA
ATOM     14  H   LIG    1       24.746 -19.619   7.981  0.00  0.00    +0.211 HD
ENDBRANCH   1  13
BRANCH   1  15
ATOM     15  C   LIG    1       25.467 -22.728   7.797  0.00  0.00    +0.055 C 
BRANCH  15  16
ATOM     16  C   LIG    1       25.947 -23.853   6.869  0.00  0.00    +0.087 C 
BRANCH  16  17
ATOM     17  N   LIG    1       25.125 -25.086   6.926  0.00  0.00    -0.302 NA
ATOM     18  C   LIG    1       24.231 -25.297   5.775  0.00  0.00    +0.084 C 
ATOM     19  C   LIG    1       24.976 -25.596   4.473  0.00  0.00    +0.015 C 
ATOM     20  C   LIG    1       25.905 -26.796   4.635  0.00  0.00    +0.002 C 
ATOM     21  C   LIG    1       26.789 -26.653   5.871  0.00  0.00    +0.015 C 
ATOM     22  C   LIG    1       25.970 -26.281   7.112  0.00  0.00    +0.084 C 
ENDBRANCH  16  17
ENDBRANCH  15  16
ENDBRANCH   1  15
TORSDOF 6
ENDMDL
MODEL 7
REMARK VINA RESULT:      -8.5      1.867      6.030
REMARK  Name = *****
REMARK                            x       y       z     vdW  Elec       q    Type
REMARK                         _______ _______ _______ _____ _____    ______ ____
ROOT
ATOM      1  C   LIG    1       25.655 -21.661   6.885  0.00  0.00    +0.095 C 
ENDROOT
BRANCH   1   2
ATOM      2  C   LIG    1       27.095 -21.102   6.854  0.00  0.00    -0.016 A 
ATOM      3  C   LIG    1       28.050 -21.539   7.785  0.00  0.00    +0.006 A 
ATOM      4  C   LIG    1       29.350 -21.014   7.817  0.00  0.00    +0.000 A 
ATOM      5  C   LIG    1       29.724 -20.021   6.910  0.00  0.00    +0.000 A 
ATOM      6  C   LIG    1       28.812 -19.582   5.971  0.00  0.00    +0.000 A 
ATOM      7  C   LIG    1       27.521 -20.122   5.930  0.00  0.00    +0.006 A 
ENDBRANCH   1   2
BRANCH   1   8
ATOM      8  C   LIG    1       24.530 -20.605   6.557  0.00  0.00    +0.025 C 
ATOM      9  C   LIG    1       24.484 -20.157   5.078  0.00  0.00    +0.006 C 
ATOM     10  C   LIG    1       23.010 -19.953   4.750  0.00  0.00    +0.000 C 
ATOM     11  C   LIG    1       22.346 -21.084   5.502  0.00  0.00    +0.000 C 
ATOM     12  C   LIG    1       23.070 -21.070   6.837  0.00  0.00    +0.006 C 
ENDBRANCH   1   8
BRANCH   1  13
ATOM     13  O   LIG    1       25.414 -22.115   8.234  0.00  0.00    -0.384 OA
ATOM     14  H   LIG    1       26.031 -22.841   8.420  0.00  0.00    +0.211 HD
ENDBRANCH   1  13
BRANCH   1  15
ATOM     15  C   LIG    1       25.512 -22.964   6.025  0.00  0.00    +0.055 C 
BRANCH  15  16
ATOM     16  C   LIG    1       25.975 -24.267   6.690  0.00  0.00    +0.087 C 
BRANCH  16  17
ATOM     17  N   LIG    1       26.322 -25.351   5.740  0.00  0.00    -0.302 NA
ATOM     18  C   LIG    1       26.755 -26.614   6.360  0.00  0.00    +0.084 C 
ATOM     19  C   LIG    1       25.636 -27.338   7.110  0.00  0.00    +0.015 C 
ATOM     20  C   LIG    1       24.438 -27.591   6.198  0.00  0.00    +0.002 C 
ATOM     21  C   LIG    1       24.014 -26.319   5.468  0.00  0.00    +0.015 C 
ATOM     22  C   LIG    1       25.209 -25.620   4.810  0.00  0.00    +0.084 C 
ENDBRANCH  16  17
ENDBRANCH  15  16
ENDBRANCH   1  15
TORSDOF 6
ENDMDL
MODEL 8
REMARK VINA RESULT:      -8.2      2.502      5.195
REMARK  Name = *****
REMARK                            x       y       z     vdW  Elec       q    Type
REMARK                         _______ _______ _______ _____ _____    ______ ____
ROOT
ATOM      1  C   LIG    1       24.567 -23.010   6.274  0.00  0.00    +0.095 C 
ENDROOT
BRANCH   1   2
ATOM      2  C   LIG    1       25.595 -22.019   6.863  0.00  0.00    -0.016 A 
ATOM      3  C   LIG    1       25.555 -21.674   8.223  0.00  0.00    +0.006 A 
ATOM      4  C   LIG    1       26.441 -20.739   8.778  0.00  0.00    +0.000 A 
ATOM      5  C   LIG    1       27.394 -20.115   7.970  0.00  0.00    +0.000 A 
ATOM      6  C   LIG    1       27.469 -20.446   6.632  0.00  0.00    +0.000 A 
ATOM      7  C   LIG    1       26.596 -21.394   6.085  0.00  0.00    +0.006 A 
ENDBRANCH   1   2
BRANCH   1   8
ATOM      8  C   LIG    1       24.676 -24.482   6.830  0.00  0.00    +0.025 C 
ATOM      9  C   LIG    1       23.823 -25.520   6.063  0.00  0.00    +0.006 C 
ATOM     10  C   LIG    1       24.637 -26.807   6.058  0.00  0.00    +0.000 C 
ATOM     11  C   LIG    1       26.051 -26.301   5.874  0.00  0.00    +0.000 C 
ATOM     12  C   LIG    1       26.104 -25.105   6.808  0.00  0.00    +0.006 C 
ENDBRANCH   1   8
BRANCH   1  13
ATOM     13  O   LIG    1       24.826 -23.085   4.855  0.00  0.00    -0.384 OA
ATOM     14  H   LIG    1       25.700 -23.491   4.732  0.00  0.00    +0.211 HD
ENDBRANCH   1  13
BRANCH   1  15
ATOM     15  C   LIG    1       23.103 -22.454   6.353  0.00  0.00    +0.055 C 
BRANCH  15  16
ATOM     16  C   LIG    1       22.920 -20.976   5.982  0.00  0.00    +0.087 C 
BRANCH  16  17
ATOM     17  N   LIG    1       22.555 -20.741   4.565  0.00  0.00    -0.302 NA
ATOM     18  C   LIG    1       21.700 -19.566   4.324  0.00  0.00    +0.084 C 
ATOM     19  C   LIG    1       22.408 -18.236   4.586  0.00  0.00    +0.015 C 
ATOM     20  C   LIG    1       23.689 -18.123   3.763  0.00  0.00    +0.002 C 
ATOM     21  C   LIG    1       24.562 -19.365   3.919  0.00  0.00    +0.015 C 
ATOM     22  C   LIG    1       23.756 -20.653   3.713  0.00  0.00    +0.084 C 
ENDBRANCH  16  17
ENDBRANCH  15  16
ENDBRANCH   1  15
TORSDOF 6
ENDMDL
MODEL 9
REMARK VINA RESULT:      -8.0      1.319      1.881
REMARK  Name = *****
REMARK                            x       y       z     vdW  Elec       q    Type
REMARK                         _______ _______ _______ _____ _____    ______ ____
ROOT
ATOM      1  C   LIG    1       24.504 -21.868   6.731  0.00  0.00    +0.095 C 
ENDROOT
BRANCH   1   2
ATOM      2  C   LIG    1       24.066 -20.816   5.689  0.00  0.00    -0.016 A 
ATOM      3  C   LIG    1       24.844 -20.579   4.544  0.00  0.00    +0.006 A 
ATOM      4  C   LIG    1       24.502 -19.595   3.605  0.00  0.00    +0.000 A 
ATOM      5  C   LIG    1       23.362 -18.812   3.797  0.00  0.00    +0.000 A 
ATOM      6  C   LIG    1       22.568 -19.033   4.905  0.00  0.00    +0.000 A 
ATOM      7  C   LIG    1       22.901 -20.028   5.831  0.00  0.00    +0.006 A 
ENDBRANCH   1   2
BRANCH   1   8
ATOM      8  C   LIG    1       25.343 -23.068   6.146  0.00  0.00    +0.025 C 
ATOM      9  C   LIG    1       25.918 -24.029   7.213  0.00  0.00    +0.006 C 
ATOM     10  C   LIG    1       25.858 -25.420   6.597  0.00  0.00    +0.000 C 
ATOM     11  C   LIG    1       24.548 -25.390   5.841  0.00  0.00    +0.000 C 
ATOM     12  C   LIG    1       24.572 -24.021   5.184  0.00  0.00    +0.006 C 
ENDBRANCH   1   8
BRANCH   1  13
ATOM     13  O   LIG    1       23.296 -22.439   7.279  0.00  0.00    -0.384 OA
ATOM     14  H   LIG    1       23.046 -23.197   6.726  0.00  0.00    +0.211 HD
ENDBRANCH   1  13
BRANCH   1  15
ATOM     15  C   LIG    1       25.199 -21.211   7.974  0.00  0.00    +0.055 C 
BRANCH  15  16
ATOM     16  C   LIG    1       26.339 -20.230   7.669  0.00  0.00    +0.087 C 
BRANCH  16  17
ATOM     17  N   LIG    1       27.574 -20.463   8.456  0.00  0.00    -0.302 NA
ATOM     18  C   LIG    1       28.373 -21.626   8.039  0.00  0.00    +0.084 C 
ATOM     19  C   LIG    1       29.025 -21.456   6.666  0.00  0.00    +0.015 C 
ATOM     20  C   LIG    1       29.881 -20.193   6.617  0.00  0.00    +0.002 C 
ATOM     21  C   LIG    1       29.111 -18.978   7.125  0.00  0.00    +0.015 C 
ATOM     22  C   LIG    1       28.431 -19.262   8.470  0.00  0.00    +0.084 C 
ENDBRANCH  16  17
ENDBRANCH  15  16
ENDBRANCH   1  15
TORSDOF 6
ENDMDL
