MODEL 1
REMARK VINA RESULT:      -8.7      0.000      0.000
REMARK  Name = *****
REMARK                            x       y       z     vdW  Elec       q    Type
REMARK                         _______ _______ _______ _____ _____    ______ ____
ROOT
ATOM      1  C   LIG    1       25.209 -25.392   6.395  0.00  0.00    +0.004 A 
ATOM      2  S   LIG    1       25.871 -23.823   6.625  0.00  0.00    -0.089 S 
ATOM      3  C   LIG    1       24.326 -23.092   6.756  0.00  0.00    +0.060 A 
ATOM      4  C   LIG    1       23.324 -24.030   6.594  0.00  0.00    +0.020 A 
ATOM      5  C   LIG    1       23.829 -25.345   6.372  0.00  0.00    +0.013 A 
ENDROOT
BRANCH   1   7
ATOM      6  C   LIG    1       26.311 -27.097   4.890  0.00  0.00    +0.025 C 
ATOM      7  C   LIG    1       26.139 -26.587   6.325  0.00  0.00    +0.131 C 
BRANCH   7   8
ATOM      8  C   LIG    1       25.644 -27.716   7.237  0.00  0.00    +0.312 C 
ATOM      9  O   LIG    1       24.707 -28.449   6.958  0.00  0.00    -0.250 OA
BRANCH   8  10
ATOM     10  O   LIG    1       26.366 -27.919   8.365  0.00  0.00    -0.480 OA
ATOM     11  H   LIG    1       27.305 -28.147   8.216  0.00  0.00    +0.295 HD
ENDBRANCH   8  10
ENDBRANCH   7   8
ENDBRANCH   1   7
BRANCH   3  12
ATOM     12  C   LIG    1       24.246 -21.661   7.038  0.00  0.00    +0.200 C 
ATOM     13  O   LIG    1       24.371 -21.191   8.169  0.00  0.00    -0.286 OA
BRANCH  12  14
ATOM     14  C   LIG    1       23.979 -20.698   5.928  0.00  0.00    +0.023 A 
ATOM     15  C   LIG    1       24.985 -20.463   4.980  0.00  0.00    +0.012 A 
ATOM     16  C   LIG    1       24.764 -19.578   3.923  0.00  0.00    +0.001 A 
ATOM     17  C   LIG    1       23.537 -18.926   3.805  0.00  0.00    +0.000 A 
ATOM     18  C   LIG    1       22.523 -19.172   4.730  0.00  0.00    +0.001 A 
ATOM     19  C   LIG    1       22.737 -20.066   5.781  0.00  0.00    +0.012 A 
ENDBRANCH  12  14
ENDBRANCH   3  12
TORSDOF 5
ENDMDL
MODEL 2
REMARK VINA RESULT:      -8.5      4.340      6.077
REMARK  Name = *****
REMARK                            x       y       z     vdW  Elec       q    Type
REMARK                         _______ _______ _______ _____ _____    ______ ____
ROOT
ATOM      1  C   LIG    1       29.462 -20.340   7.369  0.00  0.00    +0.004 A 
ATOM      2  S   LIG    1       28.148 -21.387   7.729  0.00  0.00    -0.089 S 
ATOM      3  C   LIG    1       27.204 -20.797   6.426  0.00  0.00    +0.060 A 
ATOM      4  C   LIG    1       27.873 -19.795   5.749  0.00  0.00    +0.020 A 
ATOM      5  C   LIG    1       29.161 -19.522   6.299  0.00  0.00    +0.013 A 
ENDROOT
BRANCH   1   7
ATOM      6  C   LIG    1       30.798 -21.767   8.972  0.00  0.00    +0.025 C 
ATOM      7  C   LIG    1       30.751 -20.469   8.157  0.00  0.00    +0.131 C 
BRANCH   7   8
ATOM      8  C   LIG    1       30.953 -19.257   9.073  0.00  0.00    +0.312 C 
ATOM      9  O   LIG    1       30.035 -18.574   9.504  0.00  0.00    -0.250 OA
BRANCH   8  10
ATOM     10  O   LIG    1       32.229 -19.016   9.458  0.00  0.00    -0.480 OA
ATOM     11  H   LIG    1       32.350 -18.210   9.997  0.00  0.00    +0.295 HD
ENDBRANCH   8  10
ENDBRANCH   7   8
ENDBRANCH   1   7
BRANCH   3  12
ATOM     12  C   LIG    1       25.899 -21.402   6.172  0.00  0.00    +0.200 C 
ATOM     13  O   LIG    1       25.637 -22.573   6.442  0.00  0.00    -0.286 OA
BRANCH  12  14
ATOM     14  C   LIG    1       24.816 -20.592   5.535  0.00  0.00    +0.023 A 
ATOM     15  C   LIG    1       25.053 -20.016   4.279  0.00  0.00    +0.012 A 
ATOM     16  C   LIG    1       24.058 -19.265   3.651  0.00  0.00    +0.001 A 
ATOM     17  C   LIG    1       22.822 -19.087   4.272  0.00  0.00    +0.000 A 
ATOM     18  C   LIG    1       22.571 -19.675   5.510  0.00  0.00    +0.001 A 
ATOM     19  C   LIG    1       23.559 -20.438   6.135  0.00  0.00    +0.012 A 
ENDBRANCH  12  14
ENDBRANCH   3  12
TORSDOF 5
ENDMDL
MODEL 3
REMARK VINA RESULT:      -8.5      4.322      6.203
REMARK  Name = *****
REMARK                            x       y       z     vdW  Elec       q    Type
REMARK                         _______ _______ _______ _____ _____    ______ ____
ROOT
ATOM      1  C   LIG    1       28.951 -19.585   7.677  0.00  0.00    +0.004 A 
ATOM      2  S   LIG    1       27.464 -20.377   8.015  0.00  0.00    -0.089 S 
ATOM      3  C   LIG    1       27.045 -20.494   6.357  0.00  0.00    +0.060 A 
ATOM      4  C   LIG    1       28.014 -19.908   5.563  0.00  0.00    +0.020 A 
ATOM      5  C   LIG    1       29.098 -19.373   6.320  0.00  0.00    +0.013 A 
ENDROOT
BRANCH   1   7
ATOM      6  C   LIG    1       30.385 -17.836   8.804  0.00  0.00    +0.025 C 
ATOM      7  C   LIG    1       29.911 -19.293   8.813  0.00  0.00    +0.131 C 
BRANCH   7   8
ATOM      8  C   LIG    1       31.112 -20.245   8.768  0.00  0.00    +0.312 C 
ATOM      9  O   LIG    1       32.225 -19.950   9.179  0.00  0.00    -0.250 OA
BRANCH   8  10
ATOM     10  O   LIG    1       30.857 -21.493   8.307  0.00  0.00    -0.480 OA
ATOM     11  H   LIG    1       29.970 -21.610   7.910  0.00  0.00    +0.295 HD
ENDBRANCH   8  10
ENDBRANCH   7   8
ENDBRANCH   1   7
BRANCH   3  12
ATOM     12  C   LIG    1       25.812 -21.184   5.989  0.00  0.00    +0.200 C 
ATOM     13  O   LIG    1       25.635 -22.388   6.169  0.00  0.00    -0.286 OA
BRANCH  12  14
ATOM     14  C   LIG    1       24.700 -20.424   5.342  0.00  0.00    +0.023 A 
ATOM     15  C   LIG    1       23.460 -20.355   5.992  0.00  0.00    +0.012 A 
ATOM     16  C   LIG    1       22.404 -19.643   5.420  0.00  0.00    +0.001 A 
ATOM     17  C   LIG    1       22.581 -18.994   4.199  0.00  0.00    +0.000 A 
ATOM     18  C   LIG    1       23.818 -19.038   3.557  0.00  0.00    +0.001 A 
ATOM     19  C   LIG    1       24.880 -19.739   4.133  0.00  0.00    +0.012 A 
ENDBRANCH  12  14
ENDBRANCH   3  12
TORSDOF 5
ENDMDL
MODEL 4
REMARK VINA RESULT:      -8.4      1.420      2.166
REMARK  Name = *****
REMARK                            x       y       z     vdW  Elec       q    Type
REMARK                         _______ _______ _______ _____ _____    ______ ____
ROOT
ATOM      1  C   LIG    1       24.890 -25.353   6.509  0.00  0.00    +0.004 A 
ATOM      2  S   LIG    1       23.523 -24.312   6.455  0.00  0.00    -0.089 S 
ATOM      3  C   LIG    1       24.435 -22.942   6.935  0.00  0.00    +0.060 A 
ATOM      4  C   LIG    1       25.755 -23.285   7.162  0.00  0.00    +0.020 A 
ATOM      5  C   LIG    1       26.013 -24.670   6.932  0.00  0.00    +0.013 A 
ENDROOT
BRANCH   1   7
ATOM      6  C   LIG    1       24.932 -27.785   7.193  0.00  0.00    +0.025 C 
ATOM      7  C   LIG    1       24.748 -26.789   6.043  0.00  0.00    +0.131 C 
BRANCH   7   8
ATOM      8  C   LIG    1       25.735 -27.093   4.910  0.00  0.00    +0.312 C 
ATOM      9  O   LIG    1       25.855 -26.398   3.912  0.00  0.00    -0.250 OA
BRANCH   8  10
ATOM     10  O   LIG    1       26.547 -28.159   5.109  0.00  0.00    -0.480 OA
ATOM     11  H   LIG    1       27.411 -27.947   5.514  0.00  0.00    +0.295 HD
ENDBRANCH   8  10
ENDBRANCH   7   8
ENDBRANCH   1   7
BRANCH   3  12
ATOM     12  C   LIG    1       23.768 -21.645   7.013  0.00  0.00    +0.200 C 
ATOM     13  O   LIG    1       23.169 -21.257   8.015  0.00  0.00    -0.286 OA
BRANCH  12  14
ATOM     14  C   LIG    1       23.777 -20.733   5.830  0.00  0.00    +0.023 A 
ATOM     15  C   LIG    1       22.669 -19.904   5.607  0.00  0.00    +0.012 A 
ATOM     16  C   LIG    1       22.650 -19.031   4.518  0.00  0.00    +0.001 A 
ATOM     17  C   LIG    1       23.738 -18.979   3.648  0.00  0.00    +0.000 A 
ATOM     18  C   LIG    1       24.854 -19.783   3.875  0.00  0.00    +0.001 A 
ATOM     19  C   LIG    1       24.881 -20.648   4.971  0.00  0.00    +0.012 A 
ENDBRANCH  12  14
ENDBRANCH   3  12
TORSDOF 5
ENDMDL
MODEL 5
REMARK VINA RESULT:      -8.3      4.167      6.588
REMARK  Name = *****
REMARK                            x       y       z     vdW  Elec       q    Type
REMARK                         _______ _______ _______ _____ _____    ______ ____
ROOT
ATOM      1  C   LIG    1       29.084 -20.377   7.393  0.00  0.00    +0.004 A 
ATOM      2  S   LIG    1       27.841 -21.039   8.378  0.00  0.00    -0.089 S 
ATOM      3  C   LIG    1       26.642 -20.811   7.174  0.00  0.00    +0.060 A 
ATOM      4  C   LIG    1       27.181 -20.210   6.052  0.00  0.00    +0.020 A 
ATOM      5  C   LIG    1       28.577 -19.947   6.183  0.00  0.00    +0.013 A 
ENDROOT
BRANCH   1   7
ATOM      6  C   LIG    1       30.790 -21.615   8.788  0.00  0.00    +0.025 C 
ATOM      7  C   LIG    1       30.517 -20.405   7.889  0.00  0.00    +0.131 C 
BRANCH   7   8
ATOM      8  C   LIG    1       30.863 -19.105   8.625  0.00  0.00    +0.312 C 
ATOM      9  O   LIG    1       30.857 -18.994   9.842  0.00  0.00    -0.250 OA
BRANCH   8  10
ATOM     10  O   LIG    1       31.263 -18.075   7.841  0.00  0.00    -0.480 OA
ATOM     11  H   LIG    1       31.690 -18.339   7.002  0.00  0.00    +0.295 HD
ENDBRANCH   8  10
ENDBRANCH   7   8
ENDBRANCH   1   7
BRANCH   3  12
ATOM     12  C   LIG    1       25.283 -21.277   7.436  0.00  0.00    +0.200 C 
ATOM     13  O   LIG    1       24.426 -20.579   7.978  0.00  0.00    -0.286 OA
BRANCH  12  14
ATOM     14  C   LIG    1       24.889 -22.669   7.061  0.00  0.00    +0.023 A 
ATOM     15  C   LIG    1       25.891 -23.637   6.908  0.00  0.00    +0.012 A 
ATOM     16  C   LIG    1       25.556 -24.949   6.571  0.00  0.00    +0.001 A 
ATOM     17  C   LIG    1       24.219 -25.302   6.387  0.00  0.00    +0.000 A 
ATOM     18  C   LIG    1       23.216 -24.351   6.560  0.00  0.00    +0.001 A 
ATOM     19  C   LIG    1       23.547 -23.040   6.910  0.00  0.00    +0.012 A 
ENDBRANCH  12  14
ENDBRANCH   3  12
TORSDOF 5
ENDMDL
MODEL 6
REMARK VINA RESULT:      -8.2      2.229      3.011
REMARK  Name = *****
REMARK                            x       y       z     vdW  Elec       q    Type
REMARK                         _______ _______ _______ _____ _____    ______ ____
ROOT
ATOM      1  C   LIG    1       24.789 -25.230   6.507  0.00  0.00    +0.004 A 
ATOM      2  S   LIG    1       25.839 -23.930   6.907  0.00  0.00    -0.089 S 
ATOM      3  C   LIG    1       24.547 -22.812   7.047  0.00  0.00    +0.060 A 
ATOM      4  C   LIG    1       23.338 -23.420   6.761  0.00  0.00    +0.020 A 
ATOM      5  C   LIG    1       23.478 -24.802   6.436  0.00  0.00    +0.013 A 
ENDROOT
BRANCH   1   7
ATOM      6  C   LIG    1       26.128 -27.067   7.612  0.00  0.00    +0.025 C 
ATOM      7  C   LIG    1       25.361 -26.627   6.361  0.00  0.00    +0.131 C 
BRANCH   7   8
ATOM      8  C   LIG    1       26.261 -26.720   5.123  0.00  0.00    +0.312 C 
ATOM      9  O   LIG    1       25.877 -26.483   3.987  0.00  0.00    -0.250 OA
BRANCH   8  10
ATOM     10  O   LIG    1       27.562 -27.011   5.364  0.00  0.00    -0.480 OA
ATOM     11  H   LIG    1       27.925 -27.743   4.827  0.00  0.00    +0.295 HD
ENDBRANCH   8  10
ENDBRANCH   7   8
ENDBRANCH   1   7
BRANCH   3  12
ATOM     12  C   LIG    1       24.843 -21.443   7.459  0.00  0.00    +0.200 C 
ATOM     13  O   LIG    1       24.041 -20.736   8.069  0.00  0.00    -0.286 OA
BRANCH  12  14
ATOM     14  C   LIG    1       26.164 -20.833   7.118  0.00  0.00    +0.023 A 
ATOM     15  C   LIG    1       26.394 -20.408   5.802  0.00  0.00    +0.012 A 
ATOM     16  C   LIG    1       27.613 -19.823   5.454  0.00  0.00    +0.001 A 
ATOM     17  C   LIG    1       28.607 -19.658   6.418  0.00  0.00    +0.000 A 
ATOM     18  C   LIG    1       28.378 -20.057   7.733  0.00  0.00    +0.001 A 
ATOM     19  C   LIG    1       27.155 -20.631   8.088  0.00  0.00    +0.012 A 
ENDBRANCH  12  14
ENDBRANCH   3  12
TORSDOF 5
ENDMDL
MODEL 7
REMARK VINA RESULT:      -8.0      4.220      6.286
REMARK  Name = *****
REMARK                            x       y       z     vdW  Elec       q    Type
REMARK                         _______ _______ _______ _____ _____    ______ ____
ROOT
ATOM      1  C   LIG    1       28.803 -19.871   7.672  0.00  0.00    +0.004 A 
ATOM      2  S   LIG    1       28.137 -20.256   6.135  0.00  0.00    -0.089 S 
ATOM      3  C   LIG    1       26.593 -20.607   6.792  0.00  0.00    +0.060 A 
ATOM      4  C   LIG    1       26.600 -20.462   8.167  0.00  0.00    +0.020 A 
ATOM      5  C   LIG    1       27.870 -20.055   8.673  0.00  0.00    +0.013 A 
ENDROOT
BRANCH   1   7
ATOM      6  C   LIG    1       30.790 -19.011   6.368  0.00  0.00    +0.025 C 
ATOM      7  C   LIG    1       30.218 -19.333   7.753  0.00  0.00    +0.131 C 
BRANCH   7   8
ATOM      8  C   LIG    1       31.132 -20.317   8.492  0.00  0.00    +0.312 C 
ATOM      9  O   LIG    1       31.970 -19.976   9.315  0.00  0.00    -0.250 OA
BRANCH   8  10
ATOM     10  O   LIG    1       30.909 -21.629   8.241  0.00  0.00    -0.480 OA
ATOM     11  H   LIG    1       31.714 -22.157   8.069  0.00  0.00    +0.295 HD
ENDBRANCH   8  10
ENDBRANCH   7   8
ENDBRANCH   1   7
BRANCH   3  12
ATOM     12  C   LIG    1       25.506 -20.964   5.884  0.00  0.00    +0.200 C 
ATOM     13  O   LIG    1       25.194 -20.282   4.909  0.00  0.00    -0.286 OA
BRANCH  12  14
ATOM     14  C   LIG    1       24.702 -22.198   6.136  0.00  0.00    +0.023 A 
ATOM     15  C   LIG    1       25.343 -23.444   6.087  0.00  0.00    +0.012 A 
ATOM     16  C   LIG    1       24.624 -24.616   6.330  0.00  0.00    +0.001 A 
ATOM     17  C   LIG    1       23.263 -24.550   6.624  0.00  0.00    +0.000 A 
ATOM     18  C   LIG    1       22.623 -23.314   6.697  0.00  0.00    +0.001 A 
ATOM     19  C   LIG    1       23.342 -22.139   6.468  0.00  0.00    +0.012 A 
ENDBRANCH  12  14
ENDBRANCH   3  12
TORSDOF 5
ENDMDL
MODEL 8
REMARK VINA RESULT:      -7.9      1.776      7.000
REMARK  Name = *****
REMARK                            x       y       z     vdW  Elec       q    Type
REMARK                         _______ _______ _______ _____ _____    ______ ____
ROOT
ATOM      1  C   LIG    1       24.252 -22.675   7.119  0.00  0.00    +0.004 A 
ATOM      2  S   LIG    1       25.742 -23.528   7.045  0.00  0.00    -0.089 S 
ATOM      3  C   LIG    1       24.989 -24.980   6.535  0.00  0.00    +0.060 A 
ATOM      4  C   LIG    1       23.618 -24.821   6.455  0.00  0.00    +0.020 A 
ATOM      5  C   LIG    1       23.194 -23.505   6.804  0.00  0.00    +0.013 A 
ENDROOT
BRANCH   1   7
ATOM      6  C   LIG    1       23.856 -20.352   6.205  0.00  0.00    +0.025 C 
ATOM      7  C   LIG    1       24.261 -21.190   7.423  0.00  0.00    +0.131 C 
BRANCH   7   8
ATOM      8  C   LIG    1       25.635 -20.749   7.940  0.00  0.00    +0.312 C 
ATOM      9  O   LIG    1       26.501 -20.258   7.229  0.00  0.00    -0.250 OA
BRANCH   8  10
ATOM     10  O   LIG    1       25.824 -20.860   9.277  0.00  0.00    -0.480 OA
ATOM     11  H   LIG    1       25.086 -20.526   9.824  0.00  0.00    +0.295 HD
ENDBRANCH   8  10
ENDBRANCH   7   8
ENDBRANCH   1   7
BRANCH   3  12
ATOM     12  C   LIG    1       25.826 -26.138   6.230  0.00  0.00    +0.200 C 
ATOM     13  O   LIG    1       26.918 -26.049   5.671  0.00  0.00    -0.286 OA
BRANCH  12  14
ATOM     14  C   LIG    1       25.352 -27.511   6.582  0.00  0.00    +0.023 A 
ATOM     15  C   LIG    1       25.750 -28.070   7.805  0.00  0.00    +0.012 A 
ATOM     16  C   LIG    1       25.315 -29.346   8.169  0.00  0.00    +0.001 A 
ATOM     17  C   LIG    1       24.480 -30.068   7.317  0.00  0.00    +0.000 A 
ATOM     18  C   LIG    1       24.062 -29.510   6.111  0.00  0.00    +0.001 A 
ATOM     19  C   LIG    1       24.484 -28.228   5.749  0.00  0.00    +0.012 A 
ENDBRANCH  12  14
ENDBRANCH   3  12
TORSDOF 5
ENDMDL
MODEL 9
REMARK VINA RESULT:      -7.7      4.520      6.651
REMARK  Name = *****
REMARK                            x       y       z     vdW  Elec       q    Type
REMARK                         _______ _______ _______ _____ _____    ______ ____
ROOT
ATOM      1  C   LIG    1       24.617 -21.047   7.294  0.00  0.00    +0.004 A 
ATOM      2  S   LIG    1       25.689 -20.702   5.996  0.00  0.00    -0.089 S 
ATOM      3  C   LIG    1       26.989 -20.334   7.050  0.00  0.00    +0.060 A 
ATOM      4  C   LIG    1       26.598 -20.443   8.371  0.00  0.00    +0.020 A 
ATOM      5  C   LIG    1       25.234 -20.837   8.512  0.00  0.00    +0.013 A 
ENDROOT
BRANCH   1   7
ATOM      6  C   LIG    1       23.245 -23.092   6.723  0.00  0.00    +0.025 C 
ATOM      7  C   LIG    1       23.231 -21.583   6.990  0.00  0.00    +0.131 C 
BRANCH   7   8
ATOM      8  C   LIG    1       22.608 -20.838   5.804  0.00  0.00    +0.312 C 
ATOM      9  O   LIG    1       22.593 -19.620   5.702  0.00  0.00    -0.250 OA
BRANCH   8  10
ATOM     10  O   LIG    1       22.130 -21.618   4.805  0.00  0.00    -0.480 OA
ATOM     11  H   LIG    1       21.895 -21.138   3.986  0.00  0.00    +0.295 HD
ENDBRANCH   8  10
ENDBRANCH   7   8
ENDBRANCH   1   7
BRANCH   3  12
ATOM     12  C   LIG    1       28.289 -20.000   6.474  0.00  0.00    +0.200 C 
ATOM     13  O   LIG    1       28.492 -19.940   5.261  0.00  0.00    -0.286 OA
BRANCH  12  14
ATOM     14  C   LIG    1       29.455 -19.736   7.371  0.00  0.00    +0.023 A 
ATOM     15  C   LIG    1       29.845 -18.410   7.600  0.00  0.00    +0.012 A 
ATOM     16  C   LIG    1       30.922 -18.128   8.442  0.00  0.00    +0.001 A 
ATOM     17  C   LIG    1       31.612 -19.168   9.063  0.00  0.00    +0.000 A 
ATOM     18  C   LIG    1       31.216 -20.489   8.859  0.00  0.00    +0.001 A 
ATOM     19  C   LIG    1       30.131 -20.774   8.027  0.00  0.00    +0.012 A 
ENDBRANCH  12  14
ENDBRANCH   3  12
TORSDOF 5
ENDMDL
