MODEL 1
REMARK VINA RESULT:      -7.7      0.000      0.000
REMARK  Name = *****
REMARK                            x       y       z     vdW  Elec       q    Type
REMARK                         _______ _______ _______ _____ _____    ______ ____
ROOT
ATOM      1  C   LIG    1       25.840 -21.524   7.162  0.00  0.00    +0.086 C 
ENDROOT
BRANCH   1   2
ATOM      2  C   LIG    1       24.859 -20.732   6.158  0.00  0.00    -0.027 A 
ATOM      3  C   LIG    1       25.281 -20.282   4.892  0.00  0.00    +0.005 A 
ATOM      4  C   LIG    1       24.386 -19.753   3.948  0.00  0.00    +0.000 A 
ATOM      5  C   LIG    1       23.067 -19.498   4.293  0.00  0.00    +0.000 A 
ATOM      6  C   LIG    1       22.658 -19.753   5.595  0.00  0.00    +0.000 A 
ATOM      7  C   LIG    1       23.524 -20.402   6.498  0.00  0.00    +0.005 A 
ENDBRANCH   1   2
BRANCH   1   9
ATOM      8  C   LIG    1       23.937 -23.438   6.886  0.00  0.00    +0.009 C 
ATOM      9  C   LIG    1       25.380 -23.060   7.268  0.00  0.00    +0.007 C 
ATOM     10  C   LIG    1       26.285 -24.109   6.613  0.00  0.00    +0.009 C 
ENDBRANCH   1   9
BRANCH   1  11
ATOM     11  C   LIG    1       25.684 -20.942   8.502  0.00  0.00    +0.074 C 
ATOM     12  N   LIG    1       25.684 -20.499   9.543  0.00  0.00    -0.196 NA
ENDBRANCH   1  11
BRANCH   1  13
ATOM     13  C   LIG    1       27.381 -21.377   6.708  0.00  0.00    +0.045 C 
BRANCH  13  14
ATOM     14  C   LIG    1       28.374 -20.152   7.004  0.00  0.00    +0.055 C 
ATOM     15  C   LIG    1       28.998 -19.555   5.736  0.00  0.00    +0.024 C 
BRANCH  14  16
ATOM     16  N   LIG    1       29.298 -20.139   8.184  0.00  0.00    -0.306 NA
ATOM     17  C   LIG    1       30.170 -18.941   8.191  0.00  0.00    +0.105 C 
ATOM     18  C   LIG    1       30.194 -21.293   8.308  0.00  0.00    +0.105 C 
ENDBRANCH  14  16
ENDBRANCH  13  14
ENDBRANCH   1  13
TORSDOF 6
ENDMDL
MODEL 2
REMARK VINA RESULT:      -7.7      0.125      1.131
REMARK  Name = *****
REMARK                            x       y       z     vdW  Elec       q    Type
REMARK                         _______ _______ _______ _____ _____    ______ ____
ROOT
ATOM      1  C   LIG    1       25.788 -21.567   7.115  0.00  0.00    +0.086 C 
ENDROOT
BRANCH   1   2
ATOM      2  C   LIG    1       24.793 -20.809   6.100  0.00  0.00    -0.027 A 
ATOM      3  C   LIG    1       23.467 -20.485   6.446  0.00  0.00    +0.005 A 
ATOM      4  C   LIG    1       22.657 -19.671   5.637  0.00  0.00    +0.000 A 
ATOM      5  C   LIG    1       23.082 -19.290   4.374  0.00  0.00    +0.000 A 
ATOM      6  C   LIG    1       24.311 -19.748   3.917  0.00  0.00    +0.000 A 
ATOM      7  C   LIG    1       25.171 -20.456   4.781  0.00  0.00    +0.005 A 
ENDBRANCH   1   2
BRANCH   1   9
ATOM      8  C   LIG    1       23.930 -23.528   6.865  0.00  0.00    +0.009 C 
ATOM      9  C   LIG    1       25.366 -23.113   7.233  0.00  0.00    +0.007 C 
ATOM     10  C   LIG    1       26.291 -24.143   6.576  0.00  0.00    +0.009 C 
ENDBRANCH   1   9
BRANCH   1  11
ATOM     11  C   LIG    1       25.611 -20.977   8.450  0.00  0.00    +0.074 C 
ATOM     12  N   LIG    1       25.592 -20.499   9.474  0.00  0.00    -0.196 NA
ENDBRANCH   1  11
BRANCH   1  13
ATOM     13  C   LIG    1       27.327 -21.385   6.668  0.00  0.00    +0.045 C 
BRANCH  13  14
ATOM     14  C   LIG    1       28.287 -20.133   6.957  0.00  0.00    +0.055 C 
ATOM     15  C   LIG    1       28.893 -19.523   5.686  0.00  0.00    +0.024 C 
BRANCH  14  16
ATOM     16  N   LIG    1       29.213 -20.092   8.136  0.00  0.00    -0.306 NA
ATOM     17  C   LIG    1       30.020 -18.848   8.161  0.00  0.00    +0.105 C 
ATOM     18  C   LIG    1       30.170 -21.198   8.237  0.00  0.00    +0.105 C 
ENDBRANCH  14  16
ENDBRANCH  13  14
ENDBRANCH   1  13
TORSDOF 6
ENDMDL
MODEL 3
REMARK VINA RESULT:      -7.5      2.211      5.292
REMARK  Name = *****
REMARK                            x       y       z     vdW  Elec       q    Type
REMARK                         _______ _______ _______ _____ _____    ______ ____
ROOT
ATOM      1  C   LIG    1       24.705 -21.123   5.814  0.00  0.00    +0.086 C 
ENDROOT
BRANCH   1   2
ATOM      2  C   LIG    1       26.145 -20.575   6.288  0.00  0.00    -0.027 A 
ATOM      3  C   LIG    1       26.525 -20.531   7.643  0.00  0.00    +0.005 A 
ATOM      4  C   LIG    1       27.835 -20.226   8.045  0.00  0.00    +0.000 A 
ATOM      5  C   LIG    1       28.772 -19.788   7.121  0.00  0.00    +0.000 A 
ATOM      6  C   LIG    1       28.381 -19.636   5.797  0.00  0.00    +0.000 A 
ATOM      7  C   LIG    1       27.105 -20.066   5.379  0.00  0.00    +0.005 A 
ENDBRANCH   1   2
BRANCH   1   9
ATOM      8  C   LIG    1       24.173 -20.391   3.256  0.00  0.00    +0.009 C 
ATOM      9  C   LIG    1       24.056 -20.096   4.763  0.00  0.00    +0.007 C 
ATOM     10  C   LIG    1       22.602 -19.673   5.003  0.00  0.00    +0.009 C 
ENDBRANCH   1   9
BRANCH   1  11
ATOM     11  C   LIG    1       23.820 -21.144   6.986  0.00  0.00    +0.074 C 
ATOM     12  N   LIG    1       23.198 -21.259   7.924  0.00  0.00    -0.196 NA
ENDBRANCH   1  11
BRANCH   1  13
ATOM     13  C   LIG    1       24.817 -22.618   5.220  0.00  0.00    +0.045 C 
BRANCH  13  14
ATOM     14  C   LIG    1       24.769 -23.999   6.035  0.00  0.00    +0.055 C 
ATOM     15  C   LIG    1       25.896 -24.135   7.067  0.00  0.00    +0.024 C 
BRANCH  14  16
ATOM     16  N   LIG    1       24.399 -25.298   5.384  0.00  0.00    -0.306 NA
ATOM     17  C   LIG    1       24.288 -26.398   6.371  0.00  0.00    +0.105 C 
ATOM     18  C   LIG    1       25.315 -25.778   4.344  0.00  0.00    +0.105 C 
ENDBRANCH  14  16
ENDBRANCH  13  14
ENDBRANCH   1  13
TORSDOF 6
ENDMDL
MODEL 4
REMARK VINA RESULT:      -7.3      1.681      4.983
REMARK  Name = *****
REMARK                            x       y       z     vdW  Elec       q    Type
REMARK                         _______ _______ _______ _____ _____    ______ ____
ROOT
ATOM      1  C   LIG    1       25.858 -21.267   7.028  0.00  0.00    +0.086 C 
ENDROOT
BRANCH   1   2
ATOM      2  C   LIG    1       25.302 -22.770   6.860  0.00  0.00    -0.027 A 
ATOM      3  C   LIG    1       23.933 -23.083   6.962  0.00  0.00    +0.005 A 
ATOM      4  C   LIG    1       23.427 -24.353   6.639  0.00  0.00    +0.000 A 
ATOM      5  C   LIG    1       24.289 -25.405   6.368  0.00  0.00    +0.000 A 
ATOM      6  C   LIG    1       25.657 -25.183   6.443  0.00  0.00    +0.000 A 
ATOM      7  C   LIG    1       26.156 -23.879   6.640  0.00  0.00    +0.005 A 
ENDBRANCH   1   2
BRANCH   1   9
ATOM      8  C   LIG    1       27.922 -19.968   5.840  0.00  0.00    +0.009 C 
ATOM      9  C   LIG    1       27.402 -21.209   6.588  0.00  0.00    +0.007 C 
ATOM     10  C   LIG    1       28.449 -21.530   7.661  0.00  0.00    +0.009 C 
ENDBRANCH   1   9
BRANCH   1  11
ATOM     11  C   LIG    1       25.812 -20.924   8.457  0.00  0.00    +0.074 C 
ATOM     12  N   LIG    1       25.773 -20.544   9.521  0.00  0.00    -0.196 NA
ENDBRANCH   1  11
BRANCH   1  13
ATOM     13  C   LIG    1       24.949 -20.215   6.212  0.00  0.00    +0.045 C 
BRANCH  13  14
ATOM     14  C   LIG    1       24.404 -20.354   4.709  0.00  0.00    +0.055 C 
ATOM     15  C   LIG    1       25.338 -19.731   3.663  0.00  0.00    +0.024 C 
BRANCH  14  16
ATOM     16  N   LIG    1       22.951 -20.210   4.370  0.00  0.00    -0.306 NA
ATOM     17  C   LIG    1       22.453 -18.840   4.637  0.00  0.00    +0.105 C 
ATOM     18  C   LIG    1       22.036 -21.117   5.071  0.00  0.00    +0.105 C 
ENDBRANCH  14  16
ENDBRANCH  13  14
ENDBRANCH   1  13
TORSDOF 6
ENDMDL
MODEL 5
REMARK VINA RESULT:      -7.2      1.771      3.724
REMARK  Name = *****
REMARK                            x       y       z     vdW  Elec       q    Type
REMARK                         _______ _______ _______ _____ _____    ______ ____
ROOT
ATOM      1  C   LIG    1       25.333 -21.117   6.375  0.00  0.00    +0.086 C 
ENDROOT
BRANCH   1   2
ATOM      2  C   LIG    1       25.352 -22.717   6.186  0.00  0.00    -0.027 A 
ATOM      3  C   LIG    1       24.782 -23.350   5.064  0.00  0.00    +0.005 A 
ATOM      4  C   LIG    1       24.953 -24.720   4.808  0.00  0.00    +0.000 A 
ATOM      5  C   LIG    1       25.554 -25.543   5.749  0.00  0.00    +0.000 A 
ATOM      6  C   LIG    1       25.961 -24.989   6.955  0.00  0.00    +0.000 A 
ATOM      7  C   LIG    1       25.904 -23.594   7.153  0.00  0.00    +0.005 A 
ENDBRANCH   1   2
BRANCH   1   9
ATOM      8  C   LIG    1       22.879 -20.095   5.836  0.00  0.00    +0.009 C 
ATOM      9  C   LIG    1       23.878 -20.648   6.869  0.00  0.00    +0.007 C 
ATOM     10  C   LIG    1       23.088 -21.623   7.749  0.00  0.00    +0.009 C 
ENDBRANCH   1   9
BRANCH   1  11
ATOM     11  C   LIG    1       25.552 -20.502   5.059  0.00  0.00    +0.074 C 
ATOM     12  N   LIG    1       25.734 -19.924   4.104  0.00  0.00    -0.196 NA
ENDBRANCH   1  11
BRANCH   1  13
ATOM     13  C   LIG    1       26.503 -20.635   7.375  0.00  0.00    +0.045 C 
BRANCH  13  14
ATOM     14  C   LIG    1       28.070 -20.500   7.053  0.00  0.00    +0.055 C 
ATOM     15  C   LIG    1       28.926 -21.575   7.733  0.00  0.00    +0.024 C 
BRANCH  14  16
ATOM     16  N   LIG    1       28.753 -19.169   6.955  0.00  0.00    -0.306 NA
ATOM     17  C   LIG    1       29.105 -18.830   5.556  0.00  0.00    +0.105 C 
ATOM     18  C   LIG    1       29.990 -19.026   7.730  0.00  0.00    +0.105 C 
ENDBRANCH  14  16
ENDBRANCH  13  14
ENDBRANCH   1  13
TORSDOF 6
ENDMDL
MODEL 6
REMARK VINA RESULT:      -7.0      1.715      5.213
REMARK  Name = *****
REMARK                            x       y       z     vdW  Elec       q    Type
REMARK                         _______ _______ _______ _____ _____    ______ ____
ROOT
ATOM      1  C   LIG    1       26.291 -21.474   6.979  0.00  0.00    +0.086 C 
ENDROOT
BRANCH   1   2
ATOM      2  C   LIG    1       27.670 -20.666   6.776  0.00  0.00    -0.027 A 
ATOM      3  C   LIG    1       27.866 -19.763   5.713  0.00  0.00    +0.005 A 
ATOM      4  C   LIG    1       28.992 -18.928   5.635  0.00  0.00    +0.000 A 
ATOM      5  C   LIG    1       30.046 -19.083   6.523  0.00  0.00    +0.000 A 
ATOM      6  C   LIG    1       29.975 -20.093   7.473  0.00  0.00    +0.000 A 
ATOM      7  C   LIG    1       28.790 -20.841   7.627  0.00  0.00    +0.005 A 
ENDBRANCH   1   2
BRANCH   1   9
ATOM      8  C   LIG    1       24.782 -21.172   4.744  0.00  0.00    +0.009 C 
ATOM      9  C   LIG    1       25.108 -20.732   6.182  0.00  0.00    +0.007 C 
ATOM     10  C   LIG    1       23.762 -20.589   6.901  0.00  0.00    +0.009 C 
ENDBRANCH   1   9
BRANCH   1  11
ATOM     11  C   LIG    1       25.939 -21.420   8.405  0.00  0.00    +0.074 C 
ATOM     12  N   LIG    1       25.652 -21.260   9.487  0.00  0.00    -0.196 NA
ENDBRANCH   1  11
BRANCH   1  13
ATOM     13  C   LIG    1       26.449 -23.017   6.541  0.00  0.00    +0.045 C 
BRANCH  13  14
ATOM     14  C   LIG    1       25.419 -24.219   6.806  0.00  0.00    +0.055 C 
ATOM     15  C   LIG    1       26.107 -25.537   7.184  0.00  0.00    +0.024 C 
BRANCH  14  16
ATOM     16  N   LIG    1       24.183 -24.409   5.980  0.00  0.00    -0.306 NA
ATOM     17  C   LIG    1       22.962 -23.988   6.707  0.00  0.00    +0.105 C 
ATOM     18  C   LIG    1       23.927 -25.776   5.515  0.00  0.00    +0.105 C 
ENDBRANCH  14  16
ENDBRANCH  13  14
ENDBRANCH   1  13
TORSDOF 6
ENDMDL
MODEL 7
REMARK VINA RESULT:      -7.0      2.376      5.442
REMARK  Name = *****
REMARK                            x       y       z     vdW  Elec       q    Type
REMARK                         _______ _______ _______ _____ _____    ______ ____
ROOT
ATOM      1  C   LIG    1       25.037 -21.929   6.298  0.00  0.00    +0.086 C 
ENDROOT
BRANCH   1   2
ATOM      2  C   LIG    1       25.227 -23.515   6.089  0.00  0.00    -0.027 A 
ATOM      3  C   LIG    1       24.820 -24.174   4.913  0.00  0.00    +0.005 A 
ATOM      4  C   LIG    1       25.144 -25.516   4.654  0.00  0.00    +0.000 A 
ATOM      5  C   LIG    1       25.740 -26.298   5.633  0.00  0.00    +0.000 A 
ATOM      6  C   LIG    1       25.986 -25.734   6.877  0.00  0.00    +0.000 A 
ATOM      7  C   LIG    1       25.777 -24.356   7.088  0.00  0.00    +0.005 A 
ENDBRANCH   1   2
BRANCH   1   9
ATOM      8  C   LIG    1       27.127 -20.241   5.920  0.00  0.00    +0.009 C 
ATOM      9  C   LIG    1       26.417 -21.281   6.805  0.00  0.00    +0.007 C 
ATOM     10  C   LIG    1       26.444 -20.719   8.231  0.00  0.00    +0.009 C 
ENDBRANCH   1   9
BRANCH   1  11
ATOM     11  C   LIG    1       24.055 -21.727   7.372  0.00  0.00    +0.074 C 
ATOM     12  N   LIG    1       23.217 -21.557   8.113  0.00  0.00    -0.196 NA
ENDBRANCH   1  11
BRANCH   1  13
ATOM     13  C   LIG    1       24.488 -21.226   4.954  0.00  0.00    +0.045 C 
BRANCH  13  14
ATOM     14  C   LIG    1       23.179 -20.311   4.795  0.00  0.00    +0.055 C 
ATOM     15  C   LIG    1       21.873 -21.116   4.775  0.00  0.00    +0.024 C 
BRANCH  14  16
ATOM     16  N   LIG    1       23.150 -19.108   3.901  0.00  0.00    -0.306 NA
ATOM     17  C   LIG    1       24.508 -18.565   3.660  0.00  0.00    +0.105 C 
ATOM     18  C   LIG    1       22.340 -17.980   4.372  0.00  0.00    +0.105 C 
ENDBRANCH  14  16
ENDBRANCH  13  14
ENDBRANCH   1  13
TORSDOF 6
ENDMDL
MODEL 8
REMARK VINA RESULT:      -6.9      1.548      3.582
REMARK  Name = *****
REMARK                            x       y       z     vdW  Elec       q    Type
REMARK                         _______ _______ _______ _____ _____    ______ ____
ROOT
ATOM      1  C   LIG    1       25.885 -21.445   6.514  0.00  0.00    +0.086 C 
ENDROOT
BRANCH   1   2
ATOM      2  C   LIG    1       25.383 -22.976   6.542  0.00  0.00    -0.027 A 
ATOM      3  C   LIG    1       24.024 -23.325   6.429  0.00  0.00    +0.005 A 
ATOM      4  C   LIG    1       23.601 -24.655   6.273  0.00  0.00    +0.000 A 
ATOM      5  C   LIG    1       24.505 -25.699   6.394  0.00  0.00    +0.000 A 
ATOM      6  C   LIG    1       25.827 -25.405   6.695  0.00  0.00    +0.000 A 
ATOM      7  C   LIG    1       26.269 -24.067   6.722  0.00  0.00    +0.005 A 
ENDBRANCH   1   2
BRANCH   1   9
ATOM      8  C   LIG    1       23.550 -20.579   7.588  0.00  0.00    +0.009 C 
ATOM      9  C   LIG    1       25.089 -20.594   7.619  0.00  0.00    +0.007 C 
ATOM     10  C   LIG    1       25.484 -20.805   9.085  0.00  0.00    +0.009 C 
ENDBRANCH   1   9
BRANCH   1  11
ATOM     11  C   LIG    1       25.532 -20.875   5.206  0.00  0.00    +0.074 C 
ATOM     12  N   LIG    1       25.148 -20.478   4.219  0.00  0.00    -0.196 NA
ENDBRANCH   1  11
BRANCH   1  13
ATOM     13  C   LIG    1       27.484 -21.352   6.705  0.00  0.00    +0.045 C 
BRANCH  13  14
ATOM     14  C   LIG    1       28.350 -20.053   7.078  0.00  0.00    +0.055 C 
ATOM     15  C   LIG    1       28.918 -19.329   5.851  0.00  0.00    +0.024 C 
BRANCH  14  16
ATOM     16  N   LIG    1       29.262 -20.015   8.267  0.00  0.00    -0.306 NA
ATOM     17  C   LIG    1       29.941 -18.705   8.400  0.00  0.00    +0.105 C 
ATOM     18  C   LIG    1       30.324 -21.026   8.292  0.00  0.00    +0.105 C 
ENDBRANCH  14  16
ENDBRANCH  13  14
ENDBRANCH   1  13
TORSDOF 6
ENDMDL
MODEL 9
REMARK VINA RESULT:      -6.9      2.276      5.340
REMARK  Name = *****
REMARK                            x       y       z     vdW  Elec       q    Type
REMARK                         _______ _______ _______ _____ _____    ______ ____
ROOT
ATOM      1  C   LIG    1       25.319 -21.899   6.762  0.00  0.00    +0.086 C 
ENDROOT
BRANCH   1   2
ATOM      2  C   LIG    1       25.372 -23.441   6.299  0.00  0.00    -0.027 A 
ATOM      3  C   LIG    1       25.909 -24.455   7.116  0.00  0.00    +0.005 A 
ATOM      4  C   LIG    1       25.794 -25.818   6.793  0.00  0.00    +0.000 A 
ATOM      5  C   LIG    1       25.291 -26.210   5.562  0.00  0.00    +0.000 A 
ATOM      6  C   LIG    1       24.926 -25.231   4.649  0.00  0.00    +0.000 A 
ATOM      7  C   LIG    1       24.922 -23.872   5.026  0.00  0.00    +0.005 A 
ENDBRANCH   1   2
BRANCH   1   9
ATOM      8  C   LIG    1       27.935 -21.420   7.300  0.00  0.00    +0.009 C 
ATOM      9  C   LIG    1       26.497 -21.610   7.816  0.00  0.00    +0.007 C 
ATOM     10  C   LIG    1       26.260 -20.497   8.843  0.00  0.00    +0.009 C 
ENDBRANCH   1   9
BRANCH   1  11
ATOM     11  C   LIG    1       24.052 -21.683   7.475  0.00  0.00    +0.074 C 
ATOM     12  N   LIG    1       23.048 -21.630   7.992  0.00  0.00    -0.196 NA
ENDBRANCH   1  11
BRANCH   1  13
ATOM     13  C   LIG    1       25.377 -20.906   5.493  0.00  0.00    +0.045 C 
BRANCH  13  14
ATOM     14  C   LIG    1       24.171 -20.498   4.516  0.00  0.00    +0.055 C 
ATOM     15  C   LIG    1       24.636 -19.777   3.244  0.00  0.00    +0.024 C 
BRANCH  14  16
ATOM     16  N   LIG    1       22.856 -20.000   5.035  0.00  0.00    -0.306 NA
ATOM     17  C   LIG    1       21.762 -20.970   4.792  0.00  0.00    +0.105 C 
ATOM     18  C   LIG    1       22.393 -18.722   4.485  0.00  0.00    +0.105 C 
ENDBRANCH  14  16
ENDBRANCH  13  14
ENDBRANCH   1  13
TORSDOF 6
ENDMDL
