MODEL 1
REMARK VINA RESULT:      -5.4      0.000      0.000
REMARK  Name = *****
REMARK                            x       y       z     vdW  Elec       q    Type
REMARK                         _______ _______ _______ _____ _____    ______ ____
ROOT
ATOM      1  C   LIG    1       23.136 -20.377   6.718  0.00  0.00    +0.040 C 
ATOM      2  C   LIG    1       23.090 -20.562   5.196  0.00  0.00    +0.116 C 
ENDROOT
BRANCH   2   3
ATOM      3  N   LIG    1       21.941 -21.489   4.944  0.00  0.00    -0.316 NA
ATOM      4  H   LIG    1       22.191 -22.419   5.288  0.00  0.00    +0.119 HD
ATOM      5  H   LIG    1       21.177 -21.204   5.567  0.00  0.00    +0.119 HD
ENDBRANCH   2   3
BRANCH   2   6
ATOM      6  C   LIG    1       22.804 -19.238   4.444  0.00  0.00    +0.325 C 
ATOM      7  O   LIG    1       21.954 -18.433   4.826  0.00  0.00    -0.249 OA
BRANCH   6   8
ATOM      8  O   LIG    1       23.521 -19.009   3.327  0.00  0.00    -0.479 OA
ATOM      9  H   LIG    1       24.082 -18.206   3.343  0.00  0.00    +0.295 HD
ENDBRANCH   6   8
ENDBRANCH   2   6
BRANCH   2  10
ATOM     10  C   LIG    1       24.355 -21.244   4.619  0.00  0.00    +0.068 C 
BRANCH  10  11
ATOM     11  C   LIG    1       25.661 -20.887   5.292  0.00  0.00    -0.045 A 
ATOM     12  C   LIG    1       26.478 -19.873   4.771  0.00  0.00    +0.007 A 
ATOM     13  C   LIG    1       27.693 -19.564   5.379  0.00  0.00    +0.045 A 
ATOM     14  C   LIG    1       28.095 -20.259   6.513  0.00  0.00    +0.117 A 
ATOM     15  C   LIG    1       27.290 -21.252   7.060  0.00  0.00    +0.045 A 
ATOM     16  C   LIG    1       26.074 -21.564   6.450  0.00  0.00    +0.007 A 
BRANCH  14  17
ATOM     17  O   LIG    1       29.300 -19.936   7.062  0.00  0.00    -0.507 OA
ATOM     18  H   LIG    1       29.787 -19.377   6.434  0.00  0.00    +0.292 HD
ENDBRANCH  14  17
ENDBRANCH  10  11
ENDBRANCH   2  10
TORSDOF 6
ENDMDL
MODEL 2
REMARK VINA RESULT:      -3.4      3.104      4.498
REMARK  Name = *****
REMARK                            x       y       z     vdW  Elec       q    Type
REMARK                         _______ _______ _______ _____ _____    ______ ____
ROOT
ATOM      1  C   LIG    1       25.944 -20.032   4.816  0.00  0.00    +0.040 C 
ATOM      2  C   LIG    1       24.442 -20.208   4.559  0.00  0.00    +0.116 C 
ENDROOT
BRANCH   2   3
ATOM      3  N   LIG    1       24.301 -21.572   3.955  0.00  0.00    -0.316 NA
ATOM      4  H   LIG    1       24.004 -21.468   2.982  0.00  0.00    +0.119 HD
ATOM      5  H   LIG    1       25.243 -21.969   3.875  0.00  0.00    +0.119 HD
ENDBRANCH   2   3
BRANCH   2   6
ATOM      6  C   LIG    1       23.608 -20.178   5.864  0.00  0.00    +0.325 C 
ATOM      7  O   LIG    1       23.997 -20.703   6.907  0.00  0.00    -0.249 OA
BRANCH   6   8
ATOM      8  O   LIG    1       22.411 -19.562   5.803  0.00  0.00    -0.479 OA
ATOM      9  H   LIG    1       21.825 -19.703   6.574  0.00  0.00    +0.295 HD
ENDBRANCH   6   8
ENDBRANCH   2   6
BRANCH   2  10
ATOM     10  C   LIG    1       23.869 -19.199   3.533  0.00  0.00    +0.068 C 
BRANCH  10  11
ATOM     11  C   LIG    1       24.399 -17.785   3.632  0.00  0.00    -0.045 A 
ATOM     12  C   LIG    1       23.582 -16.751   4.109  0.00  0.00    +0.007 A 
ATOM     13  C   LIG    1       24.065 -15.445   4.176  0.00  0.00    +0.045 A 
ATOM     14  C   LIG    1       25.366 -15.167   3.775  0.00  0.00    +0.117 A 
ATOM     15  C   LIG    1       26.201 -16.183   3.321  0.00  0.00    +0.045 A 
ATOM     16  C   LIG    1       25.717 -17.491   3.251  0.00  0.00    +0.007 A 
BRANCH  14  17
ATOM     17  O   LIG    1       25.788 -13.874   3.839  0.00  0.00    -0.507 OA
ATOM     18  H   LIG    1       25.604 -13.444   2.987  0.00  0.00    +0.292 HD
ENDBRANCH  14  17
ENDBRANCH  10  11
ENDBRANCH   2  10
TORSDOF 6
ENDMDL
MODEL 3
REMARK VINA RESULT:      -3.3      5.029      6.248
REMARK  Name = *****
REMARK                            x       y       z     vdW  Elec       q    Type
REMARK                         _______ _______ _______ _____ _____    ______ ____
ROOT
ATOM      1  C   LIG    1       26.204 -13.980   4.670  0.00  0.00    +0.040 C 
ATOM      2  C   LIG    1       24.905 -13.655   3.922  0.00  0.00    +0.116 C 
ENDROOT
BRANCH   2   3
ATOM      3  N   LIG    1       24.369 -12.420   4.578  0.00  0.00    -0.316 NA
ATOM      4  H   LIG    1       24.261 -12.603   5.578  0.00  0.00    +0.119 HD
ATOM      5  H   LIG    1       25.110 -11.711   4.544  0.00  0.00    +0.119 HD
ENDBRANCH   2   3
BRANCH   2   6
ATOM      6  C   LIG    1       25.146 -13.331   2.426  0.00  0.00    +0.325 C 
ATOM      7  O   LIG    1       26.145 -13.718   1.820  0.00  0.00    -0.249 OA
BRANCH   6   8
ATOM      8  O   LIG    1       24.212 -12.579   1.812  0.00  0.00    -0.479 OA
ATOM      9  H   LIG    1       23.787 -12.990   1.031  0.00  0.00    +0.295 HD
ENDBRANCH   6   8
ENDBRANCH   2   6
BRANCH   2  10
ATOM     10  C   LIG    1       23.819 -14.749   4.065  0.00  0.00    +0.068 C 
BRANCH  10  11
ATOM     11  C   LIG    1       24.288 -16.174   3.866  0.00  0.00    -0.045 A 
ATOM     12  C   LIG    1       23.409 -17.247   4.064  0.00  0.00    +0.007 A 
ATOM     13  C   LIG    1       23.851 -18.560   3.904  0.00  0.00    +0.045 A 
ATOM     14  C   LIG    1       25.169 -18.806   3.539  0.00  0.00    +0.117 A 
ATOM     15  C   LIG    1       26.051 -17.755   3.314  0.00  0.00    +0.045 A 
ATOM     16  C   LIG    1       25.610 -16.440   3.477  0.00  0.00    +0.007 A 
BRANCH  14  17
ATOM     17  O   LIG    1       25.561 -20.104   3.414  0.00  0.00    -0.507 OA
ATOM     18  H   LIG    1       26.152 -20.323   4.154  0.00  0.00    +0.292 HD
ENDBRANCH  14  17
ENDBRANCH  10  11
ENDBRANCH   2  10
TORSDOF 6
ENDMDL
MODEL 4
REMARK VINA RESULT:      -3.3      5.136      5.983
REMARK  Name = *****
REMARK                            x       y       z     vdW  Elec       q    Type
REMARK                         _______ _______ _______ _____ _____    ______ ____
ROOT
ATOM      1  C   LIG    1       24.654 -14.433   4.467  0.00  0.00    +0.040 C 
ATOM      2  C   LIG    1       25.920 -14.011   3.709  0.00  0.00    +0.116 C 
ENDROOT
BRANCH   2   3
ATOM      3  N   LIG    1       25.496 -12.868   2.837  0.00  0.00    -0.316 NA
ATOM      4  H   LIG    1       26.257 -12.655   2.188  0.00  0.00    +0.119 HD
ATOM      5  H   LIG    1       24.750 -13.213   2.224  0.00  0.00    +0.119 HD
ENDBRANCH   2   3
BRANCH   2   6
ATOM      6  C   LIG    1       27.036 -13.499   4.653  0.00  0.00    +0.325 C 
ATOM      7  O   LIG    1       28.161 -13.208   4.248  0.00  0.00    -0.249 OA
BRANCH   6   8
ATOM      8  O   LIG    1       26.724 -13.402   5.961  0.00  0.00    -0.479 OA
ATOM      9  H   LIG    1       26.849 -14.220   6.485  0.00  0.00    +0.295 HD
ENDBRANCH   6   8
ENDBRANCH   2   6
BRANCH   2  10
ATOM     10  C   LIG    1       26.474 -15.112   2.771  0.00  0.00    +0.068 C 
BRANCH  10  11
ATOM     11  C   LIG    1       26.586 -16.495   3.373  0.00  0.00    -0.045 A 
ATOM     12  C   LIG    1       27.718 -16.859   4.117  0.00  0.00    +0.007 A 
ATOM     13  C   LIG    1       27.830 -18.142   4.649  0.00  0.00    +0.045 A 
ATOM     14  C   LIG    1       26.811 -19.065   4.449  0.00  0.00    +0.117 A 
ATOM     15  C   LIG    1       25.669 -18.718   3.734  0.00  0.00    +0.045 A 
ATOM     16  C   LIG    1       25.557 -17.433   3.198  0.00  0.00    +0.007 A 
BRANCH  14  17
ATOM     17  O   LIG    1       26.973 -20.313   4.970  0.00  0.00    -0.507 OA
ATOM     18  H   LIG    1       26.117 -20.773   4.947  0.00  0.00    +0.292 HD
ENDBRANCH  14  17
ENDBRANCH  10  11
ENDBRANCH   2  10
TORSDOF 6
ENDMDL
MODEL 5
REMARK VINA RESULT:      -3.2      3.159      4.511
REMARK  Name = *****
REMARK                            x       y       z     vdW  Elec       q    Type
REMARK                         _______ _______ _______ _____ _____    ______ ____
ROOT
ATOM      1  C   LIG    1       26.101 -19.880   4.841  0.00  0.00    +0.040 C 
ATOM      2  C   LIG    1       24.626 -20.222   4.594  0.00  0.00    +0.116 C 
ENDROOT
BRANCH   2   3
ATOM      3  N   LIG    1       24.636 -21.572   3.944  0.00  0.00    -0.316 NA
ATOM      4  H   LIG    1       23.927 -22.155   4.394  0.00  0.00    +0.119 HD
ATOM      5  H   LIG    1       24.276 -21.453   2.991  0.00  0.00    +0.119 HD
ENDBRANCH   2   3
BRANCH   2   6
ATOM      6  C   LIG    1       23.814 -20.334   5.909  0.00  0.00    +0.325 C 
ATOM      7  O   LIG    1       22.627 -20.017   5.980  0.00  0.00    -0.249 OA
BRANCH   6   8
ATOM      8  O   LIG    1       24.478 -20.781   6.993  0.00  0.00    -0.479 OA
ATOM      9  H   LIG    1       24.015 -21.467   7.517  0.00  0.00    +0.295 HD
ENDBRANCH   6   8
ENDBRANCH   2   6
BRANCH   2  10
ATOM     10  C   LIG    1       23.924 -19.253   3.611  0.00  0.00    +0.068 C 
BRANCH  10  11
ATOM     11  C   LIG    1       24.369 -17.809   3.679  0.00  0.00    -0.045 A 
ATOM     12  C   LIG    1       25.658 -17.441   3.270  0.00  0.00    +0.007 A 
ATOM     13  C   LIG    1       26.074 -16.113   3.357  0.00  0.00    +0.045 A 
ATOM     14  C   LIG    1       25.203 -15.147   3.845  0.00  0.00    +0.117 A 
ATOM     15  C   LIG    1       23.911 -15.486   4.234  0.00  0.00    +0.045 A 
ATOM     16  C   LIG    1       23.495 -16.816   4.150  0.00  0.00    +0.007 A 
BRANCH  14  17
ATOM     17  O   LIG    1       25.659 -13.866   3.931  0.00  0.00    -0.507 OA
ATOM     18  H   LIG    1       25.117 -13.304   3.353  0.00  0.00    +0.292 HD
ENDBRANCH  14  17
ENDBRANCH  10  11
ENDBRANCH   2  10
TORSDOF 6
ENDMDL
MODEL 6
REMARK VINA RESULT:      -3.1      4.427      5.945
REMARK  Name = *****
REMARK                            x       y       z     vdW  Elec       q    Type
REMARK                         _______ _______ _______ _____ _____    ______ ____
ROOT
ATOM      1  C   LIG    1       24.395 -14.764   4.006  0.00  0.00    +0.040 C 
ATOM      2  C   LIG    1       25.806 -14.995   3.451  0.00  0.00    +0.116 C 
ENDROOT
BRANCH   2   3
ATOM      3  N   LIG    1       25.822 -14.316   2.116  0.00  0.00    -0.316 NA
ATOM      4  H   LIG    1       26.748 -13.908   1.969  0.00  0.00    +0.119 HD
ATOM      5  H   LIG    1       25.769 -15.049   1.400  0.00  0.00    +0.119 HD
ENDBRANCH   2   3
BRANCH   2   6
ATOM      6  C   LIG    1       26.904 -14.343   4.328  0.00  0.00    +0.325 C 
ATOM      7  O   LIG    1       26.638 -13.630   5.296  0.00  0.00    -0.249 OA
BRANCH   6   8
ATOM      8  O   LIG    1       28.182 -14.576   3.970  0.00  0.00    -0.479 OA
ATOM      9  H   LIG    1       28.464 -15.514   4.003  0.00  0.00    +0.295 HD
ENDBRANCH   6   8
ENDBRANCH   2   6
BRANCH   2  10
ATOM     10  C   LIG    1       26.135 -16.488   3.202  0.00  0.00    +0.068 C 
BRANCH  10  11
ATOM     11  C   LIG    1       25.058 -17.474   3.596  0.00  0.00    -0.045 A 
ATOM     12  C   LIG    1       23.774 -17.028   3.938  0.00  0.00    +0.007 A 
ATOM     13  C   LIG    1       22.791 -17.937   4.325  0.00  0.00    +0.045 A 
ATOM     14  C   LIG    1       23.082 -19.295   4.365  0.00  0.00    +0.117 A 
ATOM     15  C   LIG    1       24.343 -19.762   4.008  0.00  0.00    +0.045 A 
ATOM     16  C   LIG    1       25.329 -18.851   3.622  0.00  0.00    +0.007 A 
BRANCH  14  17
ATOM     17  O   LIG    1       22.097 -20.144   4.769  0.00  0.00    -0.507 OA
ATOM     18  H   LIG    1       21.802 -19.879   5.656  0.00  0.00    +0.292 HD
ENDBRANCH  14  17
ENDBRANCH  10  11
ENDBRANCH   2  10
TORSDOF 6
ENDMDL
MODEL 7
REMARK VINA RESULT:      -3.1      5.287      6.395
REMARK  Name = *****
REMARK                            x       y       z     vdW  Elec       q    Type
REMARK                         _______ _______ _______ _____ _____    ______ ____
ROOT
ATOM      1  C   LIG    1       25.486 -13.684   2.519  0.00  0.00    +0.040 C 
ATOM      2  C   LIG    1       24.715 -13.475   3.828  0.00  0.00    +0.116 C 
ENDROOT
BRANCH   2   3
ATOM      3  N   LIG    1       25.753 -13.513   4.909  0.00  0.00    -0.316 NA
ATOM      4  H   LIG    1       26.225 -12.607   4.939  0.00  0.00    +0.119 HD
ATOM      5  H   LIG    1       25.257 -13.553   5.806  0.00  0.00    +0.119 HD
ENDBRANCH   2   3
BRANCH   2   6
ATOM      6  C   LIG    1       24.015 -12.094   3.892  0.00  0.00    +0.325 C 
ATOM      7  O   LIG    1       23.753 -11.535   4.957  0.00  0.00    -0.249 OA
BRANCH   6   8
ATOM      8  O   LIG    1       23.682 -11.530   2.714  0.00  0.00    -0.479 OA
ATOM      9  H   LIG    1       24.004 -11.999   1.917  0.00  0.00    +0.295 HD
ENDBRANCH   6   8
ENDBRANCH   2   6
BRANCH   2  10
ATOM     10  C   LIG    1       23.702 -14.604   4.136  0.00  0.00    +0.068 C 
BRANCH  10  11
ATOM     11  C   LIG    1       24.202 -16.015   3.918  0.00  0.00    -0.045 A 
ATOM     12  C   LIG    1       25.523 -16.248   3.512  0.00  0.00    +0.007 A 
ATOM     13  C   LIG    1       25.974 -17.547   3.287  0.00  0.00    +0.045 A 
ATOM     14  C   LIG    1       25.111 -18.620   3.473  0.00  0.00    +0.117 A 
ATOM     15  C   LIG    1       23.802 -18.414   3.898  0.00  0.00    +0.045 A 
ATOM     16  C   LIG    1       23.349 -17.112   4.120  0.00  0.00    +0.007 A 
BRANCH  14  17
ATOM     17  O   LIG    1       25.588 -19.871   3.222  0.00  0.00    -0.507 OA
ATOM     18  H   LIG    1       26.485 -19.793   2.855  0.00  0.00    +0.292 HD
ENDBRANCH  14  17
ENDBRANCH  10  11
ENDBRANCH   2  10
TORSDOF 6
ENDMDL
MODEL 8
REMARK VINA RESULT:      -3.1      4.391      5.964
REMARK  Name = *****
REMARK                            x       y       z     vdW  Elec       q    Type
REMARK                         _______ _______ _______ _____ _____    ______ ____
ROOT
ATOM      1  C   LIG    1       24.341 -14.784   4.021  0.00  0.00    +0.040 C 
ATOM      2  C   LIG    1       25.744 -15.026   3.450  0.00  0.00    +0.116 C 
ENDROOT
BRANCH   2   3
ATOM      3  N   LIG    1       25.757 -14.328   2.124  0.00  0.00    -0.316 NA
ATOM      4  H   LIG    1       25.418 -14.977   1.411  0.00  0.00    +0.119 HD
ATOM      5  H   LIG    1       25.029 -13.605   2.153  0.00  0.00    +0.119 HD
ENDBRANCH   2   3
BRANCH   2   6
ATOM      6  C   LIG    1       26.859 -14.400   4.326  0.00  0.00    +0.325 C 
ATOM      7  O   LIG    1       26.612 -13.644   5.266  0.00  0.00    -0.249 OA
BRANCH   6   8
ATOM      8  O   LIG    1       28.129 -14.707   3.998  0.00  0.00    -0.479 OA
ATOM      9  H   LIG    1       28.457 -15.564   4.341  0.00  0.00    +0.295 HD
ENDBRANCH   6   8
ENDBRANCH   2   6
BRANCH   2  10
ATOM     10  C   LIG    1       26.052 -16.519   3.177  0.00  0.00    +0.068 C 
BRANCH  10  11
ATOM     11  C   LIG    1       24.992 -17.502   3.622  0.00  0.00    -0.045 A 
ATOM     12  C   LIG    1       25.277 -18.872   3.696  0.00  0.00    +0.007 A 
ATOM     13  C   LIG    1       24.292 -19.779   4.083  0.00  0.00    +0.045 A 
ATOM     14  C   LIG    1       23.020 -19.321   4.405  0.00  0.00    +0.117 A 
ATOM     15  C   LIG    1       22.722 -17.963   4.361  0.00  0.00    +0.045 A 
ATOM     16  C   LIG    1       23.708 -17.055   3.971  0.00  0.00    +0.007 A 
BRANCH  14  17
ATOM     17  O   LIG    1       22.083 -20.245   4.758  0.00  0.00    -0.507 OA
ATOM     18  H   LIG    1       22.125 -20.985   4.130  0.00  0.00    +0.292 HD
ENDBRANCH  14  17
ENDBRANCH  10  11
ENDBRANCH   2  10
TORSDOF 6
ENDMDL
MODEL 9
REMARK VINA RESULT:      -3.1      4.608      6.243
REMARK  Name = *****
REMARK                            x       y       z     vdW  Elec       q    Type
REMARK                         _______ _______ _______ _____ _____    ______ ____
ROOT
ATOM      1  C   LIG    1       26.080 -15.494   3.347  0.00  0.00    +0.040 C 
ATOM      2  C   LIG    1       25.071 -14.414   3.757  0.00  0.00    +0.116 C 
ENDROOT
BRANCH   2   3
ATOM      3  N   LIG    1       25.680 -13.736   4.947  0.00  0.00    -0.316 NA
ATOM      4  H   LIG    1       26.018 -12.815   4.660  0.00  0.00    +0.119 HD
ATOM      5  H   LIG    1       24.916 -13.517   5.596  0.00  0.00    +0.119 HD
ENDBRANCH   2   3
BRANCH   2   6
ATOM      6  C   LIG    1       24.865 -13.344   2.656  0.00  0.00    +0.325 C 
ATOM      7  O   LIG    1       25.727 -13.088   1.815  0.00  0.00    -0.249 OA
BRANCH   6   8
ATOM      8  O   LIG    1       23.692 -12.680   2.670  0.00  0.00    -0.479 OA
ATOM      9  H   LIG    1       23.714 -11.777   2.291  0.00  0.00    +0.295 HD
ENDBRANCH   6   8
ENDBRANCH   2   6
BRANCH   2  10
ATOM     10  C   LIG    1       23.706 -14.985   4.213  0.00  0.00    +0.068 C 
BRANCH  10  11
ATOM     11  C   LIG    1       23.574 -16.491   4.169  0.00  0.00    -0.045 A 
ATOM     12  C   LIG    1       22.410 -17.118   4.634  0.00  0.00    +0.007 A 
ATOM     13  C   LIG    1       22.301 -18.508   4.616  0.00  0.00    +0.045 A 
ATOM     14  C   LIG    1       23.350 -19.276   4.126  0.00  0.00    +0.117 A 
ATOM     15  C   LIG    1       24.505 -18.674   3.638  0.00  0.00    +0.045 A 
ATOM     16  C   LIG    1       24.615 -17.282   3.659  0.00  0.00    +0.007 A 
BRANCH  14  17
ATOM     17  O   LIG    1       23.208 -20.631   4.146  0.00  0.00    -0.507 OA
ATOM     18  H   LIG    1       23.856 -21.021   3.536  0.00  0.00    +0.292 HD
ENDBRANCH  14  17
ENDBRANCH  10  11
ENDBRANCH   2  10
TORSDOF 6
ENDMDL
