MODEL 1
REMARK VINA RESULT:      -9.6      0.000      0.000
REMARK  Name = *****
REMARK                            x       y       z     vdW  Elec       q    Type
REMARK                         _______ _______ _______ _____ _____    ______ ____
ROOT
ATOM      1  C   LIG    1       24.574 -28.717   6.810  0.00  0.00    -0.000 C 
ENDROOT
BRANCH   1   2
ATOM      2  C   LIG    1       25.538 -29.324   7.887  0.00  0.00    +0.000 C 
BRANCH   2   3
ATOM      3  C   LIG    1       26.312 -28.269   8.742  0.00  0.00    +0.002 C 
BRANCH   3   4
ATOM      4  C   LIG    1       26.645 -28.653  10.258  0.00  0.00    +0.021 C 
BRANCH   4   5
ATOM      5  C   LIG    1       25.568 -29.018  11.310  0.00  0.00    +0.122 C 
BRANCH   5   8
ATOM      6  C   LIG    1       27.983 -28.351  14.353  0.00  0.00    +0.063 C 
ATOM      7  C   LIG    1       26.877 -27.793  13.418  0.00  0.00    +0.018 C 
ATOM      8  N   LIG    1       25.794 -28.589  12.853  0.00  0.00    -0.344 NA
ATOM      9  C   LIG    1       24.470 -27.990  13.136  0.00  0.00    +0.051 C 
ATOM     10  C   LIG    1       24.316 -26.599  13.351  0.00  0.00    +0.023 C 
ATOM     11  C   LIG    1       23.026 -26.054  13.446  0.00  0.00    +0.012 C 
ATOM     12  C   LIG    1       21.899 -26.887  13.350  0.00  0.00    +0.001 C 
ATOM     13  C   LIG    1       22.047 -28.263  13.193  0.00  0.00    +0.002 C 
ATOM     14  C   LIG    1       25.528 -25.746  13.471  0.00  0.00    +0.066 C 
ATOM     15  N   LIG    1       25.507 -24.449  13.520  0.00  0.00    -0.299 NA
ATOM     16  H   LIG    1       26.468 -24.091  13.642  0.00  0.00    +0.187 HD
ATOM     17  C   LIG    1       23.324 -28.810  13.100  0.00  0.00    +0.026 C 
ATOM     18  C   LIG    1       26.793 -26.466  13.648  0.00  0.00    +0.048 C 
ENDBRANCH   5   8
ENDBRANCH   4   5
ENDBRANCH   3   4
ENDBRANCH   2   3
ENDBRANCH   1   2
BRANCH   1  19
ATOM     19  C   LIG    1       25.165 -27.489   6.082  0.00  0.00    -0.000 C 
BRANCH  19  20
ATOM     20  C   LIG    1       24.223 -26.318   5.684  0.00  0.00    +0.000 C 
BRANCH  20  21
ATOM     21  C   LIG    1       24.246 -24.968   6.463  0.00  0.00    +0.002 C 
BRANCH  21  22
ATOM     22  C   LIG    1       25.552 -24.146   6.502  0.00  0.00    +0.021 C 
BRANCH  22  23
ATOM     23  C   LIG    1       25.720 -23.076   7.611  0.00  0.00    +0.122 C 
BRANCH  23  24
ATOM     24  N   LIG    1       25.848 -21.672   7.128  0.00  0.00    -0.344 NA
ATOM     25  C   LIG    1       27.112 -21.055   6.850  0.00  0.00    +0.051 C 
ATOM     26  C   LIG    1       27.220 -20.062   5.803  0.00  0.00    +0.023 C 
ATOM     27  C   LIG    1       28.408 -19.288   5.722  0.00  0.00    +0.012 C 
ATOM     28  C   LIG    1       29.548 -19.638   6.484  0.00  0.00    +0.001 C 
ATOM     29  C   LIG    1       29.492 -20.690   7.387  0.00  0.00    +0.002 C 
ATOM     30  C   LIG    1       26.063 -20.031   4.782  0.00  0.00    +0.066 C 
ATOM     31  N   LIG    1       25.854 -19.546   3.605  0.00  0.00    -0.299 NA
ATOM     32  H   LIG    1       26.529 -18.951   3.139  0.00  0.00    +0.187 HD
ATOM     33  C   LIG    1       24.781 -20.529   5.317  0.00  0.00    +0.048 C 
ATOM     34  C   LIG    1       28.272 -21.339   7.616  0.00  0.00    +0.026 C 
ATOM     35  C   LIG    1       24.738 -21.115   6.443  0.00  0.00    +0.018 C 
ATOM     36  C   LIG    1       23.460 -20.870   7.200  0.00  0.00    +0.063 C 
ENDBRANCH  23  24
ENDBRANCH  22  23
ENDBRANCH  21  22
ENDBRANCH  20  21
ENDBRANCH  19  20
ENDBRANCH   1  19
TORSDOF 11
ENDMDL
MODEL 2
REMARK VINA RESULT:      -9.6      1.705      9.358
REMARK  Name = *****
REMARK                            x       y       z     vdW  Elec       q    Type
REMARK                         _______ _______ _______ _____ _____    ______ ____
ROOT
ATOM      1  C   LIG    1       24.415 -26.797   5.839  0.00  0.00    -0.000 C 
ENDROOT
BRANCH   1   2
ATOM      2  C   LIG    1       25.104 -25.653   5.020  0.00  0.00    +0.000 C 
BRANCH   2   3
ATOM      3  C   LIG    1       25.226 -24.289   5.774  0.00  0.00    +0.002 C 
BRANCH   3   4
ATOM      4  C   LIG    1       24.011 -23.861   6.721  0.00  0.00    +0.021 C 
BRANCH   4   5
ATOM      5  C   LIG    1       23.299 -22.487   6.639  0.00  0.00    +0.122 C 
BRANCH   5   8
ATOM      6  C   LIG    1       25.755 -20.732   9.173  0.00  0.00    +0.063 C 
ATOM      7  C   LIG    1       25.425 -21.064   7.694  0.00  0.00    +0.018 C 
ATOM      8  N   LIG    1       24.075 -21.165   7.151  0.00  0.00    -0.344 NA
ATOM      9  C   LIG    1       23.898 -20.301   5.961  0.00  0.00    +0.051 C 
ATOM     10  C   LIG    1       24.991 -19.946   5.134  0.00  0.00    +0.023 C 
ATOM     11  C   LIG    1       24.752 -19.272   3.927  0.00  0.00    +0.012 C 
ATOM     12  C   LIG    1       23.441 -18.933   3.555  0.00  0.00    +0.001 C 
ATOM     13  C   LIG    1       22.368 -19.232   4.391  0.00  0.00    +0.002 C 
ATOM     14  C   LIG    1       26.370 -20.298   5.565  0.00  0.00    +0.066 C 
ATOM     15  N   LIG    1       27.427 -20.157   4.824  0.00  0.00    -0.299 NA
ATOM     16  H   LIG    1       28.265 -20.433   5.359  0.00  0.00    +0.187 HD
ATOM     17  C   LIG    1       22.599 -19.900   5.591  0.00  0.00    +0.026 C 
ATOM     18  C   LIG    1       26.506 -20.729   6.960  0.00  0.00    +0.048 C 
ENDBRANCH   5   8
ENDBRANCH   4   5
ENDBRANCH   3   4
ENDBRANCH   2   3
ENDBRANCH   1   2
BRANCH   1  19
ATOM     19  C   LIG    1       25.381 -27.531   6.797  0.00  0.00    -0.000 C 
BRANCH  19  20
ATOM     20  C   LIG    1       25.015 -28.956   7.298  0.00  0.00    +0.000 C 
BRANCH  20  21
ATOM     21  C   LIG    1       25.599 -29.514   8.632  0.00  0.00    +0.002 C 
BRANCH  21  22
ATOM     22  C   LIG    1       26.492 -28.601   9.499  0.00  0.00    +0.021 C 
BRANCH  22  23
ATOM     23  C   LIG    1       26.974 -29.128  10.875  0.00  0.00    +0.122 C 
BRANCH  23  24
ATOM     24  N   LIG    1       26.002 -28.974  11.994  0.00  0.00    -0.344 NA
ATOM     25  C   LIG    1       25.638 -27.699  12.539  0.00  0.00    +0.051 C 
ATOM     26  C   LIG    1       24.306 -27.488  13.063  0.00  0.00    +0.023 C 
ATOM     27  C   LIG    1       24.053 -26.316  13.824  0.00  0.00    +0.012 C 
ATOM     28  C   LIG    1       25.003 -25.268  13.868  0.00  0.00    +0.001 C 
ATOM     29  C   LIG    1       26.231 -25.410  13.238  0.00  0.00    +0.002 C 
ATOM     30  C   LIG    1       23.239 -28.516  12.626  0.00  0.00    +0.066 C 
ATOM     31  N   LIG    1       21.951 -28.592  12.610  0.00  0.00    -0.299 NA
ATOM     32  H   LIG    1       21.364 -27.879  13.025  0.00  0.00    +0.187 HD
ATOM     33  C   LIG    1       23.791 -29.841  12.285  0.00  0.00    +0.048 C 
ATOM     34  C   LIG    1       26.567 -26.634  12.647  0.00  0.00    +0.026 C 
ATOM     35  C   LIG    1       25.045 -30.006  12.172  0.00  0.00    +0.018 C 
ATOM     36  C   LIG    1       25.514 -31.371  12.602  0.00  0.00    +0.063 C 
ENDBRANCH  23  24
ENDBRANCH  22  23
ENDBRANCH  21  22
ENDBRANCH  20  21
ENDBRANCH  19  20
ENDBRANCH   1  19
TORSDOF 11
ENDMDL
MODEL 3
REMARK VINA RESULT:      -9.6      1.904      9.543
REMARK  Name = *****
REMARK                            x       y       z     vdW  Elec       q    Type
REMARK                         _______ _______ _______ _____ _____    ______ ____
ROOT
ATOM      1  C   LIG    1       24.431 -26.782   6.172  0.00  0.00    -0.000 C 
ENDROOT
BRANCH   1   2
ATOM      2  C   LIG    1       25.809 -26.107   6.492  0.00  0.00    +0.000 C 
BRANCH   2   3
ATOM      3  C   LIG    1       25.732 -24.579   6.814  0.00  0.00    +0.002 C 
BRANCH   3   4
ATOM      4  C   LIG    1       24.584 -23.733   6.091  0.00  0.00    +0.021 C 
BRANCH   4   5
ATOM      5  C   LIG    1       23.698 -22.689   6.816  0.00  0.00    +0.122 C 
BRANCH   5   8
ATOM      6  C   LIG    1       25.967 -20.590   9.262  0.00  0.00    +0.063 C 
ATOM      7  C   LIG    1       25.679 -21.025   7.801  0.00  0.00    +0.018 C 
ATOM      8  N   LIG    1       24.348 -21.277   7.261  0.00  0.00    -0.344 NA
ATOM      9  C   LIG    1       24.102 -20.495   6.027  0.00  0.00    +0.051 C 
ATOM     10  C   LIG    1       25.163 -20.085   5.185  0.00  0.00    +0.023 C 
ATOM     11  C   LIG    1       24.873 -19.498   3.944  0.00  0.00    +0.012 C 
ATOM     12  C   LIG    1       23.539 -19.299   3.552  0.00  0.00    +0.001 C 
ATOM     13  C   LIG    1       22.492 -19.651   4.401  0.00  0.00    +0.002 C 
ATOM     14  C   LIG    1       26.566 -20.287   5.637  0.00  0.00    +0.066 C 
ATOM     15  N   LIG    1       27.610 -20.088   4.892  0.00  0.00    -0.299 NA
ATOM     16  H   LIG    1       28.467 -20.259   5.443  0.00  0.00    +0.187 HD
ATOM     17  C   LIG    1       22.774 -20.233   5.634  0.00  0.00    +0.026 C 
ATOM     18  C   LIG    1       26.730 -20.632   7.053  0.00  0.00    +0.048 C 
ENDBRANCH   5   8
ENDBRANCH   4   5
ENDBRANCH   3   4
ENDBRANCH   2   3
ENDBRANCH   1   2
BRANCH   1  19
ATOM     19  C   LIG    1       24.413 -28.301   6.459  0.00  0.00    -0.000 C 
BRANCH  19  20
ATOM     20  C   LIG    1       25.036 -28.831   7.781  0.00  0.00    +0.000 C 
BRANCH  20  21
ATOM     21  C   LIG    1       24.530 -30.153   8.435  0.00  0.00    +0.002 C 
BRANCH  21  22
ATOM     22  C   LIG    1       23.540 -30.074   9.616  0.00  0.00    +0.021 C 
BRANCH  22  23
ATOM     23  C   LIG    1       24.056 -30.409  11.039  0.00  0.00    +0.122 C 
BRANCH  23  24
ATOM     24  N   LIG    1       23.369 -29.696  12.152  0.00  0.00    -0.344 NA
ATOM     25  C   LIG    1       23.779 -28.404  12.620  0.00  0.00    +0.051 C 
ATOM     26  C   LIG    1       22.798 -27.475  13.138  0.00  0.00    +0.023 C 
ATOM     27  C   LIG    1       23.254 -26.320  13.827  0.00  0.00    +0.012 C 
ATOM     28  C   LIG    1       24.622 -25.960  13.800  0.00  0.00    +0.001 C 
ATOM     29  C   LIG    1       25.550 -26.779  13.173  0.00  0.00    +0.002 C 
ATOM     30  C   LIG    1       21.328 -27.773  12.771  0.00  0.00    +0.066 C 
ATOM     31  N   LIG    1       20.207 -27.134  12.767  0.00  0.00    -0.299 NA
ATOM     32  H   LIG    1       20.119 -26.198  13.142  0.00  0.00    +0.187 HD
ATOM     33  C   LIG    1       21.056 -29.199  12.510  0.00  0.00    +0.048 C 
ATOM     34  C   LIG    1       25.143 -28.015  12.656  0.00  0.00    +0.026 C 
ATOM     35  C   LIG    1       22.012 -30.028  12.399  0.00  0.00    +0.018 C 
ATOM     36  C   LIG    1       21.679 -31.404  12.910  0.00  0.00    +0.063 C 
ENDBRANCH  23  24
ENDBRANCH  22  23
ENDBRANCH  21  22
ENDBRANCH  20  21
ENDBRANCH  19  20
ENDBRANCH   1  19
TORSDOF 11
ENDMDL
MODEL 4
REMARK VINA RESULT:      -9.5      1.486      9.574
REMARK  Name = *****
REMARK                            x       y       z     vdW  Elec       q    Type
REMARK                         _______ _______ _______ _____ _____    ______ ____
ROOT
ATOM      1  C   LIG    1       25.178 -27.605   6.622  0.00  0.00    -0.000 C 
ENDROOT
BRANCH   1   2
ATOM      2  C   LIG    1       24.405 -26.497   5.828  0.00  0.00    +0.000 C 
BRANCH   2   3
ATOM      3  C   LIG    1       24.850 -25.032   6.145  0.00  0.00    +0.002 C 
BRANCH   3   4
ATOM      4  C   LIG    1       23.785 -24.079   6.862  0.00  0.00    +0.021 C 
BRANCH   4   5
ATOM      5  C   LIG    1       23.409 -22.667   6.346  0.00  0.00    +0.122 C 
BRANCH   5   8
ATOM      6  C   LIG    1       25.737 -21.067   9.096  0.00  0.00    +0.063 C 
ATOM      7  C   LIG    1       25.468 -21.292   7.584  0.00  0.00    +0.018 C 
ATOM      8  N   LIG    1       24.141 -21.374   6.984  0.00  0.00    -0.344 NA
ATOM      9  C   LIG    1       23.992 -20.426   5.856  0.00  0.00    +0.051 C 
ATOM     10  C   LIG    1       25.107 -19.993   5.100  0.00  0.00    +0.023 C 
ATOM     11  C   LIG    1       24.900 -19.234   3.938  0.00  0.00    +0.012 C 
ATOM     12  C   LIG    1       23.597 -18.889   3.543  0.00  0.00    +0.001 C 
ATOM     13  C   LIG    1       22.500 -19.268   4.313  0.00  0.00    +0.002 C 
ATOM     14  C   LIG    1       26.476 -20.353   5.555  0.00  0.00    +0.066 C 
ATOM     15  N   LIG    1       27.556 -20.139   4.867  0.00  0.00    -0.299 NA
ATOM     16  H   LIG    1       28.380 -20.441   5.412  0.00  0.00    +0.187 HD
ATOM     17  C   LIG    1       22.699 -20.020   5.468  0.00  0.00    +0.026 C 
ATOM     18  C   LIG    1       26.569 -20.886   6.919  0.00  0.00    +0.048 C 
ENDBRANCH   5   8
ENDBRANCH   4   5
ENDBRANCH   3   4
ENDBRANCH   2   3
ENDBRANCH   1   2
BRANCH   1  19
ATOM     19  C   LIG    1       24.352 -28.893   6.837  0.00  0.00    -0.000 C 
BRANCH  19  20
ATOM     20  C   LIG    1       24.807 -29.916   7.915  0.00  0.00    +0.000 C 
BRANCH  20  21
ATOM     21  C   LIG    1       23.998 -30.111   9.232  0.00  0.00    +0.002 C 
BRANCH  21  22
ATOM     22  C   LIG    1       24.535 -31.081  10.306  0.00  0.00    +0.021 C 
BRANCH  22  23
ATOM     23  C   LIG    1       24.767 -30.543  11.741  0.00  0.00    +0.122 C 
BRANCH  23  24
ATOM     24  N   LIG    1       24.692 -29.061  11.886  0.00  0.00    -0.344 NA
ATOM     25  C   LIG    1       23.566 -28.392  12.471  0.00  0.00    +0.051 C 
ATOM     26  C   LIG    1       23.757 -27.163  13.209  0.00  0.00    +0.023 C 
ATOM     27  C   LIG    1       22.614 -26.391  13.551  0.00  0.00    +0.012 C 
ATOM     28  C   LIG    1       21.313 -26.923  13.389  0.00  0.00    +0.001 C 
ATOM     29  C   LIG    1       21.134 -28.173  12.812  0.00  0.00    +0.002 C 
ATOM     30  C   LIG    1       25.201 -26.871  13.672  0.00  0.00    +0.066 C 
ATOM     31  N   LIG    1       25.781 -26.100  14.528  0.00  0.00    -0.299 NA
ATOM     32  H   LIG    1       25.272 -25.405  15.059  0.00  0.00    +0.187 HD
ATOM     33  C   LIG    1       26.236 -27.493  12.824  0.00  0.00    +0.048 C 
ATOM     34  C   LIG    1       22.239 -28.860  12.297  0.00  0.00    +0.026 C 
ATOM     35  C   LIG    1       25.917 -28.349  11.942  0.00  0.00    +0.018 C 
ATOM     36  C   LIG    1       26.795 -28.309  10.719  0.00  0.00    +0.063 C 
ENDBRANCH  23  24
ENDBRANCH  22  23
ENDBRANCH  21  22
ENDBRANCH  20  21
ENDBRANCH  19  20
ENDBRANCH   1  19
TORSDOF 11
ENDMDL
MODEL 5
REMARK VINA RESULT:      -9.5      2.574      9.660
REMARK  Name = *****
REMARK                            x       y       z     vdW  Elec       q    Type
REMARK                         _______ _______ _______ _____ _____    ______ ____
ROOT
ATOM      1  C   LIG    1       26.366 -26.341   6.073  0.00  0.00    -0.000 C 
ENDROOT
BRANCH   1   2
ATOM      2  C   LIG    1       25.392 -25.566   5.121  0.00  0.00    +0.000 C 
BRANCH   2   3
ATOM      3  C   LIG    1       25.144 -24.072   5.511  0.00  0.00    +0.002 C 
BRANCH   3   4
ATOM      4  C   LIG    1       24.026 -23.777   6.614  0.00  0.00    +0.021 C 
BRANCH   4   5
ATOM      5  C   LIG    1       23.263 -22.433   6.728  0.00  0.00    +0.122 C 
BRANCH   5   8
ATOM      6  C   LIG    1       25.777 -20.654   9.189  0.00  0.00    +0.063 C 
ATOM      7  C   LIG    1       25.422 -21.014   7.722  0.00  0.00    +0.018 C 
ATOM      8  N   LIG    1       24.064 -21.110   7.200  0.00  0.00    -0.344 NA
ATOM      9  C   LIG    1       23.881 -20.271   5.993  0.00  0.00    +0.051 C 
ATOM     10  C   LIG    1       24.967 -19.949   5.144  0.00  0.00    +0.023 C 
ATOM     11  C   LIG    1       24.720 -19.299   3.925  0.00  0.00    +0.012 C 
ATOM     12  C   LIG    1       23.408 -18.950   3.564  0.00  0.00    +0.001 C 
ATOM     13  C   LIG    1       22.343 -19.217   4.421  0.00  0.00    +0.002 C 
ATOM     14  C   LIG    1       26.347 -20.309   5.563  0.00  0.00    +0.066 C 
ATOM     15  N   LIG    1       27.395 -20.198   4.805  0.00  0.00    -0.299 NA
ATOM     16  H   LIG    1       28.237 -20.474   5.335  0.00  0.00    +0.187 HD
ATOM     17  C   LIG    1       22.582 -19.860   5.632  0.00  0.00    +0.026 C 
ATOM     18  C   LIG    1       26.497 -20.711   6.966  0.00  0.00    +0.048 C 
ENDBRANCH   5   8
ENDBRANCH   4   5
ENDBRANCH   3   4
ENDBRANCH   2   3
ENDBRANCH   1   2
BRANCH   1  19
ATOM     19  C   LIG    1       25.653 -27.387   6.959  0.00  0.00    -0.000 C 
BRANCH  19  20
ATOM     20  C   LIG    1       24.401 -28.123   6.404  0.00  0.00    +0.000 C 
BRANCH  20  21
ATOM     21  C   LIG    1       24.534 -29.484   5.655  0.00  0.00    +0.002 C 
BRANCH  21  22
ATOM     22  C   LIG    1       24.188 -30.789   6.403  0.00  0.00    +0.021 C 
BRANCH  22  23
ATOM     23  C   LIG    1       25.248 -31.400   7.355  0.00  0.00    +0.122 C 
BRANCH  23  24
ATOM     24  N   LIG    1       24.906 -31.353   8.805  0.00  0.00    -0.344 NA
ATOM     25  C   LIG    1       25.316 -30.284   9.668  0.00  0.00    +0.051 C 
ATOM     26  C   LIG    1       24.478 -29.885  10.777  0.00  0.00    +0.023 C 
ATOM     27  C   LIG    1       25.019 -29.012  11.758  0.00  0.00    +0.012 C 
ATOM     28  C   LIG    1       26.255 -28.359  11.536  0.00  0.00    +0.001 C 
ATOM     29  C   LIG    1       26.996 -28.631  10.395  0.00  0.00    +0.002 C 
ATOM     30  C   LIG    1       23.008 -30.355  10.714  0.00  0.00    +0.066 C 
ATOM     31  N   LIG    1       21.893 -30.047  11.284  0.00  0.00    -0.299 NA
ATOM     32  H   LIG    1       21.841 -29.376  12.041  0.00  0.00    +0.187 HD
ATOM     33  C   LIG    1       22.810 -31.591   9.934  0.00  0.00    +0.048 C 
ATOM     34  C   LIG    1       26.566 -29.631   9.514  0.00  0.00    +0.026 C 
ATOM     35  C   LIG    1       23.752 -32.063   9.225  0.00  0.00    +0.018 C 
ATOM     36  C   LIG    1       23.751 -33.567   9.146  0.00  0.00    +0.063 C 
ENDBRANCH  23  24
ENDBRANCH  22  23
ENDBRANCH  21  22
ENDBRANCH  20  21
ENDBRANCH  19  20
ENDBRANCH   1  19
TORSDOF 11
ENDMDL
MODEL 6
REMARK VINA RESULT:      -9.5      2.020      9.799
REMARK  Name = *****
REMARK                            x       y       z     vdW  Elec       q    Type
REMARK                         _______ _______ _______ _____ _____    ______ ____
ROOT
ATOM      1  C   LIG    1       24.538 -27.077   6.091  0.00  0.00    -0.000 C 
ENDROOT
BRANCH   1   2
ATOM      2  C   LIG    1       25.850 -26.245   6.294  0.00  0.00    +0.000 C 
BRANCH   2   3
ATOM      3  C   LIG    1       25.629 -24.709   6.481  0.00  0.00    +0.002 C 
BRANCH   3   4
ATOM      4  C   LIG    1       24.135 -24.208   6.752  0.00  0.00    +0.021 C 
BRANCH   4   5
ATOM      5  C   LIG    1       23.607 -22.812   6.337  0.00  0.00    +0.122 C 
BRANCH   5   8
ATOM      6  C   LIG    1       25.847 -21.129   9.109  0.00  0.00    +0.063 C 
ATOM      7  C   LIG    1       25.589 -21.346   7.595  0.00  0.00    +0.018 C 
ATOM      8  N   LIG    1       24.269 -21.491   6.994  0.00  0.00    -0.344 NA
ATOM      9  C   LIG    1       24.069 -20.537   5.878  0.00  0.00    +0.051 C 
ATOM     10  C   LIG    1       25.159 -20.034   5.129  0.00  0.00    +0.023 C 
ATOM     11  C   LIG    1       24.911 -19.271   3.977  0.00  0.00    +0.012 C 
ATOM     12  C   LIG    1       23.591 -18.991   3.586  0.00  0.00    +0.001 C 
ATOM     13  C   LIG    1       22.517 -19.438   4.351  0.00  0.00    +0.002 C 
ATOM     14  C   LIG    1       26.545 -20.328   5.579  0.00  0.00    +0.066 C 
ATOM     15  N   LIG    1       27.612 -20.047   4.895  0.00  0.00    -0.299 NA
ATOM     16  H   LIG    1       28.451 -20.312   5.436  0.00  0.00    +0.187 HD
ATOM     17  C   LIG    1       22.756 -20.194   5.495  0.00  0.00    +0.026 C 
ATOM     18  C   LIG    1       26.667 -20.873   6.935  0.00  0.00    +0.048 C 
ENDBRANCH   5   8
ENDBRANCH   4   5
ENDBRANCH   3   4
ENDBRANCH   2   3
ENDBRANCH   1   2
BRANCH   1  19
ATOM     19  C   LIG    1       24.731 -28.592   6.329  0.00  0.00    -0.000 C 
BRANCH  19  20
ATOM     20  C   LIG    1       24.751 -29.135   7.786  0.00  0.00    +0.000 C 
BRANCH  20  21
ATOM     21  C   LIG    1       25.909 -28.770   8.764  0.00  0.00    +0.002 C 
BRANCH  21  22
ATOM     22  C   LIG    1       26.636 -29.902   9.520  0.00  0.00    +0.021 C 
BRANCH  22  23
ATOM     23  C   LIG    1       26.481 -29.982  11.061  0.00  0.00    +0.122 C 
BRANCH  23  24
ATOM     24  N   LIG    1       25.108 -30.297  11.548  0.00  0.00    -0.344 NA
ATOM     25  C   LIG    1       24.201 -29.293  12.024  0.00  0.00    +0.051 C 
ATOM     26  C   LIG    1       22.776 -29.454  11.833  0.00  0.00    +0.023 C 
ATOM     27  C   LIG    1       21.895 -28.587  12.533  0.00  0.00    +0.012 C 
ATOM     28  C   LIG    1       22.393 -27.448  13.209  0.00  0.00    +0.001 C 
ATOM     29  C   LIG    1       23.759 -27.211  13.269  0.00  0.00    +0.002 C 
ATOM     30  C   LIG    1       22.351 -30.487  10.767  0.00  0.00    +0.066 C 
ATOM     31  N   LIG    1       21.286 -30.767  10.095  0.00  0.00    -0.299 NA
ATOM     32  H   LIG    1       20.404 -30.299  10.263  0.00  0.00    +0.187 HD
ATOM     33  C   LIG    1       23.338 -31.562  10.552  0.00  0.00    +0.048 C 
ATOM     34  C   LIG    1       24.648 -28.158  12.747  0.00  0.00    +0.026 C 
ATOM     35  C   LIG    1       24.499 -31.482  11.060  0.00  0.00    +0.018 C 
ATOM     36  C   LIG    1       25.079 -32.815  11.452  0.00  0.00    +0.063 C 
ENDBRANCH  23  24
ENDBRANCH  22  23
ENDBRANCH  21  22
ENDBRANCH  20  21
ENDBRANCH  19  20
ENDBRANCH   1  19
TORSDOF 11
ENDMDL
MODEL 7
REMARK VINA RESULT:      -9.4      1.928      3.165
REMARK  Name = *****
REMARK                            x       y       z     vdW  Elec       q    Type
REMARK                         _______ _______ _______ _____ _____    ______ ____
ROOT
ATOM      1  C   LIG    1       26.317 -26.728   6.069  0.00  0.00    -0.000 C 
ENDROOT
BRANCH   1   2
ATOM      2  C   LIG    1       25.164 -27.330   5.196  0.00  0.00    +0.000 C 
BRANCH   2   3
ATOM      3  C   LIG    1       24.371 -28.496   5.871  0.00  0.00    +0.002 C 
BRANCH   3   4
ATOM      4  C   LIG    1       24.674 -28.796   7.412  0.00  0.00    +0.021 C 
BRANCH   4   5
ATOM      5  C   LIG    1       24.039 -29.967   8.203  0.00  0.00    +0.122 C 
BRANCH   5   8
ATOM      6  C   LIG    1       26.973 -32.505   8.902  0.00  0.00    +0.063 C 
ATOM      7  C   LIG    1       26.378 -31.095   9.160  0.00  0.00    +0.018 C 
ATOM      8  N   LIG    1       24.952 -30.803   9.243  0.00  0.00    -0.344 NA
ATOM      9  C   LIG    1       24.612 -30.088  10.495  0.00  0.00    +0.051 C 
ATOM     10  C   LIG    1       25.561 -29.282  11.169  0.00  0.00    +0.023 C 
ATOM     11  C   LIG    1       25.149 -28.490  12.252  0.00  0.00    +0.012 C 
ATOM     12  C   LIG    1       23.810 -28.515  12.676  0.00  0.00    +0.001 C 
ATOM     13  C   LIG    1       22.885 -29.347  12.050  0.00  0.00    +0.002 C 
ATOM     14  C   LIG    1       26.976 -29.294  10.713  0.00  0.00    +0.066 C 
ATOM     15  N   LIG    1       27.895 -28.490  11.156  0.00  0.00    -0.299 NA
ATOM     16  H   LIG    1       28.799 -28.720  10.715  0.00  0.00    +0.187 HD
ATOM     17  C   LIG    1       23.288 -30.137  10.976  0.00  0.00    +0.026 C 
ATOM     18  C   LIG    1       27.331 -30.368   9.779  0.00  0.00    +0.048 C 
ENDBRANCH   5   8
ENDBRANCH   4   5
ENDBRANCH   3   4
ENDBRANCH   2   3
ENDBRANCH   1   2
BRANCH   1  19
ATOM     19  C   LIG    1       26.030 -25.289   6.554  0.00  0.00    -0.000 C 
BRANCH  19  20
ATOM     20  C   LIG    1       24.884 -24.478   5.886  0.00  0.00    +0.000 C 
BRANCH  20  21
ATOM     21  C   LIG    1       23.488 -24.349   6.566  0.00  0.00    +0.002 C 
BRANCH  21  22
ATOM     22  C   LIG    1       22.794 -22.970   6.600  0.00  0.00    +0.021 C 
BRANCH  22  23
ATOM     23  C   LIG    1       23.436 -21.840   7.445  0.00  0.00    +0.122 C 
BRANCH  23  24
ATOM     24  N   LIG    1       24.173 -20.803   6.668  0.00  0.00    -0.344 NA
ATOM     25  C   LIG    1       25.600 -20.666   6.710  0.00  0.00    +0.051 C 
ATOM     26  C   LIG    1       26.319 -20.207   5.541  0.00  0.00    +0.023 C 
ATOM     27  C   LIG    1       27.682 -19.835   5.685  0.00  0.00    +0.012 C 
ATOM     28  C   LIG    1       28.386 -20.131   6.877  0.00  0.00    +0.001 C 
ATOM     29  C   LIG    1       27.729 -20.710   7.953  0.00  0.00    +0.002 C 
ATOM     30  C   LIG    1       25.553 -20.290   4.203  0.00  0.00    +0.066 C 
ATOM     31  N   LIG    1       25.842 -20.258   2.946  0.00  0.00    -0.299 NA
ATOM     32  H   LIG    1       26.779 -20.069   2.612  0.00  0.00    +0.187 HD
ATOM     33  C   LIG    1       24.087 -20.220   4.349  0.00  0.00    +0.048 C 
ATOM     34  C   LIG    1       26.344 -20.906   7.893  0.00  0.00    +0.026 C 
ATOM     35  C   LIG    1       23.549 -20.301   5.497  0.00  0.00    +0.018 C 
ATOM     36  C   LIG    1       22.292 -19.483   5.632  0.00  0.00    +0.063 C 
ENDBRANCH  23  24
ENDBRANCH  22  23
ENDBRANCH  21  22
ENDBRANCH  20  21
ENDBRANCH  19  20
ENDBRANCH   1  19
TORSDOF 11
ENDMDL
MODEL 8
REMARK VINA RESULT:      -9.2      1.303      1.909
REMARK  Name = *****
REMARK                            x       y       z     vdW  Elec       q    Type
REMARK                         _______ _______ _______ _____ _____    ______ ____
ROOT
ATOM      1  C   LIG    1       25.585 -28.229   6.196  0.00  0.00    -0.000 C 
ENDROOT
BRANCH   1   2
ATOM      2  C   LIG    1       24.393 -28.755   7.066  0.00  0.00    +0.000 C 
BRANCH   2   3
ATOM      3  C   LIG    1       24.806 -29.365   8.445  0.00  0.00    +0.002 C 
BRANCH   3   4
ATOM      4  C   LIG    1       23.839 -30.469   9.080  0.00  0.00    +0.021 C 
BRANCH   4   5
ATOM      5  C   LIG    1       22.884 -30.195  10.269  0.00  0.00    +0.122 C 
BRANCH   5   8
ATOM      6  C   LIG    1       25.207 -32.090  12.829  0.00  0.00    +0.063 C 
ATOM      7  C   LIG    1       24.774 -30.730  12.218  0.00  0.00    +0.018 C 
ATOM      8  N   LIG    1       23.420 -30.415  11.778  0.00  0.00    -0.344 NA
ATOM      9  C   LIG    1       22.919 -29.168  12.400  0.00  0.00    +0.051 C 
ATOM     10  C   LIG    1       23.802 -28.147  12.828  0.00  0.00    +0.023 C 
ATOM     11  C   LIG    1       23.279 -26.916  13.251  0.00  0.00    +0.012 C 
ATOM     12  C   LIG    1       21.890 -26.708  13.272  0.00  0.00    +0.001 C 
ATOM     13  C   LIG    1       21.016 -27.728  12.903  0.00  0.00    +0.002 C 
ATOM     14  C   LIG    1       25.267 -28.404  12.817  0.00  0.00    +0.066 C 
ATOM     15  N   LIG    1       26.170 -27.499  13.045  0.00  0.00    -0.299 NA
ATOM     16  H   LIG    1       27.107 -27.931  13.019  0.00  0.00    +0.187 HD
ATOM     17  C   LIG    1       21.529 -28.952  12.483  0.00  0.00    +0.026 C 
ATOM     18  C   LIG    1       25.661 -29.805  12.638  0.00  0.00    +0.048 C 
ENDBRANCH   5   8
ENDBRANCH   4   5
ENDBRANCH   3   4
ENDBRANCH   2   3
ENDBRANCH   1   2
BRANCH   1  19
ATOM     19  C   LIG    1       25.280 -26.893   5.484  0.00  0.00    -0.000 C 
BRANCH  19  20
ATOM     20  C   LIG    1       24.052 -26.054   5.937  0.00  0.00    +0.000 C 
BRANCH  20  21
ATOM     21  C   LIG    1       24.226 -24.610   6.497  0.00  0.00    +0.002 C 
BRANCH  21  22
ATOM     22  C   LIG    1       25.649 -24.083   6.781  0.00  0.00    +0.021 C 
BRANCH  22  23
ATOM     23  C   LIG    1       25.824 -22.949   7.823  0.00  0.00    +0.122 C 
BRANCH  23  24
ATOM     24  N   LIG    1       25.937 -21.574   7.257  0.00  0.00    -0.344 NA
ATOM     25  C   LIG    1       27.193 -20.972   6.917  0.00  0.00    +0.051 C 
ATOM     26  C   LIG    1       27.275 -20.041   5.813  0.00  0.00    +0.023 C 
ATOM     27  C   LIG    1       28.458 -19.270   5.661  0.00  0.00    +0.012 C 
ATOM     28  C   LIG    1       29.615 -19.572   6.418  0.00  0.00    +0.001 C 
ATOM     29  C   LIG    1       29.581 -20.571   7.381  0.00  0.00    +0.002 C 
ATOM     30  C   LIG    1       26.096 -20.072   4.816  0.00  0.00    +0.066 C 
ATOM     31  N   LIG    1       25.862 -19.656   3.617  0.00  0.00    -0.299 NA
ATOM     32  H   LIG    1       26.525 -19.088   3.104  0.00  0.00    +0.187 HD
ATOM     33  C   LIG    1       24.828 -20.541   5.405  0.00  0.00    +0.048 C 
ATOM     34  C   LIG    1       28.369 -21.208   7.673  0.00  0.00    +0.026 C 
ATOM     35  C   LIG    1       24.810 -21.061   6.564  0.00  0.00    +0.018 C 
ATOM     36  C   LIG    1       23.548 -20.776   7.333  0.00  0.00    +0.063 C 
ENDBRANCH  23  24
ENDBRANCH  22  23
ENDBRANCH  21  22
ENDBRANCH  20  21
ENDBRANCH  19  20
ENDBRANCH   1  19
TORSDOF 11
ENDMDL
MODEL 9
REMARK VINA RESULT:      -8.7      3.557      5.520
REMARK  Name = *****
REMARK                            x       y       z     vdW  Elec       q    Type
REMARK                         _______ _______ _______ _____ _____    ______ ____
ROOT
ATOM      1  C   LIG    1       25.461 -27.606   6.453  0.00  0.00    -0.000 C 
ENDROOT
BRANCH   1   2
ATOM      2  C   LIG    1       24.495 -28.810   6.721  0.00  0.00    +0.000 C 
BRANCH   2   3
ATOM      3  C   LIG    1       24.498 -29.338   8.192  0.00  0.00    +0.002 C 
BRANCH   3   4
ATOM      4  C   LIG    1       25.847 -30.005   8.732  0.00  0.00    +0.021 C 
BRANCH   4   5
ATOM      5  C   LIG    1       25.883 -31.221   9.691  0.00  0.00    +0.122 C 
BRANCH   5   8
ATOM      6  C   LIG    1       22.945 -33.822  10.072  0.00  0.00    +0.063 C 
ATOM      7  C   LIG    1       23.736 -32.875   9.131  0.00  0.00    +0.018 C 
ATOM      8  N   LIG    1       25.163 -32.598   9.245  0.00  0.00    -0.344 NA
ATOM      9  C   LIG    1       25.872 -32.842   7.968  0.00  0.00    +0.051 C 
ATOM     10  C   LIG    1       25.208 -32.741   6.721  0.00  0.00    +0.023 C 
ATOM     11  C   LIG    1       25.954 -32.811   5.535  0.00  0.00    +0.012 C 
ATOM     12  C   LIG    1       27.345 -33.002   5.586  0.00  0.00    +0.001 C 
ATOM     13  C   LIG    1       27.994 -33.156   6.808  0.00  0.00    +0.002 C 
ATOM     14  C   LIG    1       23.732 -32.562   6.699  0.00  0.00    +0.066 C 
ATOM     15  N   LIG    1       23.042 -32.311   5.628  0.00  0.00    -0.299 NA
ATOM     16  H   LIG    1       22.038 -32.269   5.864  0.00  0.00    +0.187 HD
ATOM     17  C   LIG    1       27.259 -33.089   7.989  0.00  0.00    +0.026 C 
ATOM     18  C   LIG    1       23.047 -32.798   7.974  0.00  0.00    +0.048 C 
ENDBRANCH   5   8
ENDBRANCH   4   5
ENDBRANCH   3   4
ENDBRANCH   2   3
ENDBRANCH   1   2
BRANCH   1  19
ATOM     19  C   LIG    1       25.249 -26.947   5.071  0.00  0.00    -0.000 C 
BRANCH  19  20
ATOM     20  C   LIG    1       25.242 -25.396   4.963  0.00  0.00    +0.000 C 
BRANCH  20  21
ATOM     21  C   LIG    1       24.820 -24.507   6.172  0.00  0.00    +0.002 C 
BRANCH  21  22
ATOM     22  C   LIG    1       25.907 -23.996   7.143  0.00  0.00    +0.021 C 
BRANCH  22  23
ATOM     23  C   LIG    1       25.598 -22.748   8.009  0.00  0.00    +0.122 C 
BRANCH  23  24
ATOM     24  N   LIG    1       25.734 -21.438   7.312  0.00  0.00    -0.344 NA
ATOM     25  C   LIG    1       27.003 -20.873   6.956  0.00  0.00    +0.051 C 
ATOM     26  C   LIG    1       27.127 -20.058   5.767  0.00  0.00    +0.023 C 
ATOM     27  C   LIG    1       28.317 -19.305   5.580  0.00  0.00    +0.012 C 
ATOM     28  C   LIG    1       29.446 -19.529   6.404  0.00  0.00    +0.001 C 
ATOM     29  C   LIG    1       29.375 -20.425   7.461  0.00  0.00    +0.002 C 
ATOM     30  C   LIG    1       25.983 -20.190   4.738  0.00  0.00    +0.066 C 
ATOM     31  N   LIG    1       25.792 -19.898   3.496  0.00  0.00    -0.299 NA
ATOM     32  H   LIG    1       26.474 -19.383   2.952  0.00  0.00    +0.187 HD
ATOM     33  C   LIG    1       24.694 -20.598   5.327  0.00  0.00    +0.048 C 
ATOM     34  C   LIG    1       28.152 -21.030   7.773  0.00  0.00    +0.026 C 
ATOM     35  C   LIG    1       24.634 -20.998   6.531  0.00  0.00    +0.018 C 
ATOM     36  C   LIG    1       23.346 -20.637   7.223  0.00  0.00    +0.063 C 
ENDBRANCH  23  24
ENDBRANCH  22  23
ENDBRANCH  21  22
ENDBRANCH  20  21
ENDBRANCH  19  20
ENDBRANCH   1  19
TORSDOF 11
ENDMDL
