MODEL 1
REMARK VINA RESULT:      -4.9      0.000      0.000
REMARK  Name = *****
REMARK                            x       y       z     vdW  Elec       q    Type
REMARK                         _______ _______ _______ _____ _____    ______ ____
ROOT
ATOM      1  C   LIG    1       26.003 -19.716   4.465  0.00  0.00    +0.033 C 
ENDROOT
BRANCH   1   2
ATOM      2  C   LIG    1       25.028 -20.857   4.732  0.00  0.00    +0.193 C 
BRANCH   2   3
ATOM      3  O   LIG    1       23.788 -20.528   4.134  0.00  0.00    -0.239 OA
BRANCH   3   5
ATOM      4  C   LIG    1       23.318 -20.706   6.626  0.00  0.00    +0.228 C 
ATOM      5  S   LIG    1       22.517 -20.253   5.107  0.00  0.00    +0.079 S 
ATOM      6  O   LIG    1       22.260 -18.820   5.125  0.00  0.00    -0.147 OA
ATOM      7  O   LIG    1       21.484 -21.215   4.809  0.00  0.00    -0.147 OA
ENDBRANCH   3   5
ENDBRANCH   2   3
ENDBRANCH   1   2
BRANCH   1   8
ATOM      8  C   LIG    1       25.429 -18.632   3.538  0.00  0.00    +0.033 C 
BRANCH   8   9
ATOM      9  C   LIG    1       26.375 -17.452   3.320  0.00  0.00    +0.193 C 
BRANCH   9  10
ATOM     10  O   LIG    1       25.667 -16.219   3.247  0.00  0.00    -0.239 OA
BRANCH  10  11
ATOM     11  S   LIG    1       26.530 -14.826   3.256  0.00  0.00    +0.079 S 
ATOM     12  O   LIG    1       26.604 -14.318   1.914  0.00  0.00    -0.147 OA
ATOM     13  O   LIG    1       27.715 -15.010   4.081  0.00  0.00    -0.147 OA
ATOM     14  C   LIG    1       25.399 -13.856   4.201  0.00  0.00    +0.228 C 
ENDBRANCH  10  11
ENDBRANCH   9  10
ENDBRANCH   8   9
ENDBRANCH   1   8
TORSDOF 7
ENDMDL
MODEL 2
REMARK VINA RESULT:      -4.9      1.010      1.266
REMARK  Name = *****
REMARK                            x       y       z     vdW  Elec       q    Type
REMARK                         _______ _______ _______ _____ _____    ______ ____
ROOT
ATOM      1  C   LIG    1       26.038 -19.754   4.387  0.00  0.00    +0.033 C 
ENDROOT
BRANCH   1   2
ATOM      2  C   LIG    1       25.042 -20.871   4.676  0.00  0.00    +0.193 C 
BRANCH   2   3
ATOM      3  O   LIG    1       23.793 -20.505   4.117  0.00  0.00    -0.239 OA
BRANCH   3   5
ATOM      4  C   LIG    1       22.129 -18.639   4.578  0.00  0.00    +0.228 C 
ATOM      5  S   LIG    1       22.540 -20.278   5.125  0.00  0.00    +0.079 S 
ATOM      6  O   LIG    1       21.470 -21.183   4.732  0.00  0.00    -0.147 OA
ATOM      7  O   LIG    1       23.036 -20.217   6.478  0.00  0.00    -0.147 OA
ENDBRANCH   3   5
ENDBRANCH   2   3
ENDBRANCH   1   2
BRANCH   1   8
ATOM      8  C   LIG    1       25.456 -18.633   3.511  0.00  0.00    +0.033 C 
BRANCH   8   9
ATOM      9  C   LIG    1       26.398 -17.441   3.338  0.00  0.00    +0.193 C 
BRANCH   9  10
ATOM     10  O   LIG    1       25.681 -16.215   3.256  0.00  0.00    -0.239 OA
BRANCH  10  11
ATOM     11  S   LIG    1       26.533 -14.816   3.253  0.00  0.00    +0.079 S 
ATOM     12  O   LIG    1       26.601 -14.317   1.906  0.00  0.00    -0.147 OA
ATOM     13  O   LIG    1       27.722 -14.985   4.076  0.00  0.00    -0.147 OA
ATOM     14  C   LIG    1       25.398 -13.846   4.192  0.00  0.00    +0.228 C 
ENDBRANCH  10  11
ENDBRANCH   9  10
ENDBRANCH   8   9
ENDBRANCH   1   8
TORSDOF 7
ENDMDL
MODEL 3
REMARK VINA RESULT:      -4.9      0.107      6.276
REMARK  Name = *****
REMARK                            x       y       z     vdW  Elec       q    Type
REMARK                         _______ _______ _______ _____ _____    ______ ____
ROOT
ATOM      1  C   LIG    1       25.446 -18.553   3.579  0.00  0.00    +0.033 C 
ENDROOT
BRANCH   1   2
ATOM      2  C   LIG    1       26.402 -17.410   3.254  0.00  0.00    +0.193 C 
BRANCH   2   3
ATOM      3  O   LIG    1       25.665 -16.201   3.267  0.00  0.00    -0.239 OA
BRANCH   3   5
ATOM      4  C   LIG    1       25.288 -13.846   4.148  0.00  0.00    +0.228 C 
ATOM      5  S   LIG    1       26.490 -14.801   3.256  0.00  0.00    +0.079 S 
ATOM      6  O   LIG    1       27.670 -14.963   4.092  0.00  0.00    -0.147 OA
ATOM      7  O   LIG    1       26.570 -14.319   1.899  0.00  0.00    -0.147 OA
ENDBRANCH   3   5
ENDBRANCH   2   3
ENDBRANCH   1   2
BRANCH   1   8
ATOM      8  C   LIG    1       26.108 -19.692   4.371  0.00  0.00    +0.033 C 
BRANCH   8   9
ATOM      9  C   LIG    1       25.116 -20.735   4.885  0.00  0.00    +0.193 C 
BRANCH   9  10
ATOM     10  O   LIG    1       23.855 -20.625   4.233  0.00  0.00    -0.239 OA
BRANCH  10  11
ATOM     11  S   LIG    1       22.533 -20.318   5.149  0.00  0.00    +0.079 S 
ATOM     12  O   LIG    1       21.513 -21.280   4.829  0.00  0.00    -0.147 OA
ATOM     13  O   LIG    1       22.274 -18.886   5.142  0.00  0.00    -0.147 OA
ATOM     14  C   LIG    1       23.241 -20.699   6.719  0.00  0.00    +0.228 C 
ENDBRANCH  10  11
ENDBRANCH   9  10
ENDBRANCH   8   9
ENDBRANCH   1   8
TORSDOF 7
ENDMDL
MODEL 4
REMARK VINA RESULT:      -4.6      1.125      6.719
REMARK  Name = *****
REMARK                            x       y       z     vdW  Elec       q    Type
REMARK                         _______ _______ _______ _____ _____    ______ ____
ROOT
ATOM      1  C   LIG    1       26.302 -17.675   3.452  0.00  0.00    +0.033 C 
ENDROOT
BRANCH   1   2
ATOM      2  C   LIG    1       26.103 -16.167   3.339  0.00  0.00    +0.193 C 
BRANCH   2   3
ATOM      3  O   LIG    1       27.329 -15.535   3.658  0.00  0.00    -0.239 OA
BRANCH   3   5
ATOM      4  C   LIG    1       26.288 -13.509   2.529  0.00  0.00    +0.228 C 
ATOM      5  S   LIG    1       27.319 -13.930   3.912  0.00  0.00    +0.079 S 
ATOM      6  O   LIG    1       26.583 -13.668   5.139  0.00  0.00    -0.147 OA
ATOM      7  O   LIG    1       28.648 -13.415   3.688  0.00  0.00    -0.147 OA
ENDBRANCH   3   5
ENDBRANCH   2   3
ENDBRANCH   1   2
BRANCH   1   8
ATOM      8  C   LIG    1       24.988 -18.468   3.376  0.00  0.00    +0.033 C 
BRANCH   8   9
ATOM      9  C   LIG    1       25.037 -19.804   4.118  0.00  0.00    +0.193 C 
BRANCH   9  10
ATOM     10  O   LIG    1       23.821 -20.528   3.974  0.00  0.00    -0.239 OA
BRANCH  10  11
ATOM     11  S   LIG    1       22.660 -20.330   5.113  0.00  0.00    +0.079 S 
ATOM     12  O   LIG    1       21.652 -21.338   4.928  0.00  0.00    -0.147 OA
ATOM     13  O   LIG    1       22.330 -18.916   5.210  0.00  0.00    -0.147 OA
ATOM     14  C   LIG    1       23.644 -20.721   6.523  0.00  0.00    +0.228 C 
ENDBRANCH  10  11
ENDBRANCH   9  10
ENDBRANCH   8   9
ENDBRANCH   1   8
TORSDOF 7
ENDMDL
MODEL 5
REMARK VINA RESULT:      -4.5      1.412      6.215
REMARK  Name = *****
REMARK                            x       y       z     vdW  Elec       q    Type
REMARK                         _______ _______ _______ _____ _____    ______ ____
ROOT
ATOM      1  C   LIG    1       25.458 -18.267   3.418  0.00  0.00    +0.033 C 
ENDROOT
BRANCH   1   2
ATOM      2  C   LIG    1       26.341 -17.025   3.359  0.00  0.00    +0.193 C 
BRANCH   2   3
ATOM      3  O   LIG    1       25.505 -15.885   3.427  0.00  0.00    -0.239 OA
BRANCH   3   5
ATOM      4  C   LIG    1       27.666 -14.751   4.139  0.00  0.00    +0.228 C 
ATOM      5  S   LIG    1       26.184 -14.424   3.218  0.00  0.00    +0.079 S 
ATOM      6  O   LIG    1       26.530 -14.281   1.812  0.00  0.00    -0.147 OA
ATOM      7  O   LIG    1       25.396 -13.439   3.919  0.00  0.00    -0.147 OA
ENDBRANCH   3   5
ENDBRANCH   2   3
ENDBRANCH   1   2
BRANCH   1   8
ATOM      8  C   LIG    1       26.113 -19.443   4.160  0.00  0.00    +0.033 C 
BRANCH   8   9
ATOM      9  C   LIG    1       25.134 -20.564   4.512  0.00  0.00    +0.193 C 
BRANCH   9  10
ATOM     10  O   LIG    1       23.831 -20.298   4.006  0.00  0.00    -0.239 OA
BRANCH  10  11
ATOM     11  S   LIG    1       22.598 -20.150   5.075  0.00  0.00    +0.079 S 
ATOM     12  O   LIG    1       23.140 -20.125   6.406  0.00  0.00    -0.147 OA
ATOM     13  O   LIG    1       21.528 -21.059   4.692  0.00  0.00    -0.147 OA
ATOM     14  C   LIG    1       22.079 -18.529   4.611  0.00  0.00    +0.228 C 
ENDBRANCH  10  11
ENDBRANCH   9  10
ENDBRANCH   8   9
ENDBRANCH   1   8
TORSDOF 7
ENDMDL
MODEL 6
REMARK VINA RESULT:      -4.4      1.277      1.701
REMARK  Name = *****
REMARK                            x       y       z     vdW  Elec       q    Type
REMARK                         _______ _______ _______ _____ _____    ______ ____
ROOT
ATOM      1  C   LIG    1       24.943 -18.619   3.348  0.00  0.00    +0.033 C 
ENDROOT
BRANCH   1   2
ATOM      2  C   LIG    1       25.072 -19.816   4.284  0.00  0.00    +0.193 C 
BRANCH   2   3
ATOM      3  O   LIG    1       23.909 -20.613   4.143  0.00  0.00    -0.239 OA
BRANCH   3   5
ATOM      4  C   LIG    1       23.614 -20.789   6.662  0.00  0.00    +0.228 C 
ATOM      5  S   LIG    1       22.694 -20.387   5.198  0.00  0.00    +0.079 S 
ATOM      6  O   LIG    1       22.373 -18.968   5.224  0.00  0.00    -0.147 OA
ATOM      7  O   LIG    1       21.690 -21.397   4.974  0.00  0.00    -0.147 OA
ENDBRANCH   3   5
ENDBRANCH   2   3
ENDBRANCH   1   2
BRANCH   1   8
ATOM      8  C   LIG    1       26.170 -17.693   3.375  0.00  0.00    +0.033 C 
BRANCH   8   9
ATOM      9  C   LIG    1       25.814 -16.207   3.325  0.00  0.00    +0.193 C 
BRANCH   9  10
ATOM     10  O   LIG    1       26.971 -15.388   3.454  0.00  0.00    -0.239 OA
BRANCH  10  11
ATOM     11  S   LIG    1       26.761 -13.784   3.712  0.00  0.00    +0.079 S 
ATOM     12  O   LIG    1       26.160 -13.597   5.005  0.00  0.00    -0.147 OA
ATOM     13  O   LIG    1       26.210 -13.179   2.508  0.00  0.00    -0.147 OA
ATOM     14  C   LIG    1       28.464 -13.331   3.774  0.00  0.00    +0.228 C 
ENDBRANCH  10  11
ENDBRANCH   9  10
ENDBRANCH   8   9
ENDBRANCH   1   8
TORSDOF 7
ENDMDL
MODEL 7
REMARK VINA RESULT:      -4.3      1.960      2.858
REMARK  Name = *****
REMARK                            x       y       z     vdW  Elec       q    Type
REMARK                         _______ _______ _______ _____ _____    ______ ____
ROOT
ATOM      1  C   LIG    1       25.715 -16.966   3.203  0.00  0.00    +0.033 C 
ENDROOT
BRANCH   1   2
ATOM      2  C   LIG    1       25.794 -18.464   3.477  0.00  0.00    +0.193 C 
BRANCH   2   3
ATOM      3  O   LIG    1       24.475 -18.955   3.626  0.00  0.00    -0.239 OA
BRANCH   3   5
ATOM      4  C   LIG    1       22.739 -19.774   5.294  0.00  0.00    +0.228 C 
ATOM      5  S   LIG    1       24.252 -20.292   4.522  0.00  0.00    +0.079 S 
ATOM      6  O   LIG    1       23.962 -21.399   3.623  0.00  0.00    -0.147 OA
ATOM      7  O   LIG    1       25.294 -20.364   5.518  0.00  0.00    -0.147 OA
ENDBRANCH   3   5
ENDBRANCH   2   3
ENDBRANCH   1   2
BRANCH   1   8
ATOM      8  C   LIG    1       26.982 -16.204   3.623  0.00  0.00    +0.033 C 
BRANCH   8   9
ATOM      9  C   LIG    1       26.964 -14.726   3.234  0.00  0.00    +0.193 C 
BRANCH   9  10
ATOM     10  O   LIG    1       25.647 -14.283   2.924  0.00  0.00    -0.239 OA
BRANCH  10  11
ATOM     11  S   LIG    1       24.771 -13.564   4.108  0.00  0.00    +0.079 S 
ATOM     12  O   LIG    1       25.673 -13.003   5.076  0.00  0.00    -0.147 OA
ATOM     13  O   LIG    1       23.678 -14.446   4.489  0.00  0.00    -0.147 OA
ATOM     14  C   LIG    1       24.068 -12.275   3.130  0.00  0.00    +0.228 C 
ENDBRANCH  10  11
ENDBRANCH   9  10
ENDBRANCH   8   9
ENDBRANCH   1   8
TORSDOF 7
ENDMDL
MODEL 8
REMARK VINA RESULT:      -4.2      1.854      6.599
REMARK  Name = *****
REMARK                            x       y       z     vdW  Elec       q    Type
REMARK                         _______ _______ _______ _____ _____    ______ ____
ROOT
ATOM      1  C   LIG    1       23.045 -15.616   4.642  0.00  0.00    +0.033 C 
ENDROOT
BRANCH   1   2
ATOM      2  C   LIG    1       23.757 -14.546   3.823  0.00  0.00    +0.193 C 
BRANCH   2   3
ATOM      3  O   LIG    1       25.102 -14.477   4.260  0.00  0.00    -0.239 OA
BRANCH   3   5
ATOM      4  C   LIG    1       27.628 -14.213   4.143  0.00  0.00    +0.228 C 
ATOM      5  S   LIG    1       26.272 -14.872   3.204  0.00  0.00    +0.079 S 
ATOM      6  O   LIG    1       26.386 -16.322   3.175  0.00  0.00    -0.147 OA
ATOM      7  O   LIG    1       26.100 -14.090   2.005  0.00  0.00    -0.147 OA
ENDBRANCH   3   5
ENDBRANCH   2   3
ENDBRANCH   1   2
BRANCH   1   8
ATOM      8  C   LIG    1       23.213 -17.032   4.068  0.00  0.00    +0.033 C 
BRANCH   8   9
ATOM      9  C   LIG    1       22.078 -17.983   4.446  0.00  0.00    +0.193 C 
BRANCH   9  10
ATOM     10  O   LIG    1       22.453 -18.850   5.511  0.00  0.00    -0.239 OA
BRANCH  10  11
ATOM     11  S   LIG    1       22.852 -20.397   5.149  0.00  0.00    +0.079 S 
ATOM     12  O   LIG    1       23.987 -20.389   4.267  0.00  0.00    -0.147 OA
ATOM     13  O   LIG    1       21.638 -21.138   4.840  0.00  0.00    -0.147 OA
ATOM     14  C   LIG    1       23.354 -20.894   6.765  0.00  0.00    +0.228 C 
ENDBRANCH  10  11
ENDBRANCH   9  10
ENDBRANCH   8   9
ENDBRANCH   1   8
TORSDOF 7
ENDMDL
MODEL 9
REMARK VINA RESULT:      -4.2      2.147      6.257
REMARK  Name = *****
REMARK                            x       y       z     vdW  Elec       q    Type
REMARK                         _______ _______ _______ _____ _____    ______ ____
ROOT
ATOM      1  C   LIG    1       26.874 -16.033   3.623  0.00  0.00    +0.033 C 
ENDROOT
BRANCH   1   2
ATOM      2  C   LIG    1       26.679 -14.551   3.319  0.00  0.00    +0.193 C 
BRANCH   2   3
ATOM      3  O   LIG    1       25.922 -13.981   4.371  0.00  0.00    -0.239 OA
BRANCH   3   5
ATOM      4  C   LIG    1       24.767 -13.000   2.329  0.00  0.00    +0.228 C 
ATOM      5  S   LIG    1       24.440 -13.411   4.025  0.00  0.00    +0.079 S 
ATOM      6  O   LIG    1       23.504 -14.525   4.063  0.00  0.00    -0.147 OA
ATOM      7  O   LIG    1       24.221 -12.198   4.775  0.00  0.00    -0.147 OA
ENDBRANCH   3   5
ENDBRANCH   2   3
ENDBRANCH   1   2
BRANCH   1   8
ATOM      8  C   LIG    1       25.707 -16.910   3.143  0.00  0.00    +0.033 C 
BRANCH   8   9
ATOM      9  C   LIG    1       25.843 -18.379   3.542  0.00  0.00    +0.193 C 
BRANCH   9  10
ATOM     10  O   LIG    1       24.574 -19.017   3.633  0.00  0.00    -0.239 OA
BRANCH  10  11
ATOM     11  S   LIG    1       24.435 -20.336   4.594  0.00  0.00    +0.079 S 
ATOM     12  O   LIG    1       25.496 -20.319   5.563  0.00  0.00    -0.147 OA
ATOM     13  O   LIG    1       24.166 -21.500   3.762  0.00  0.00    -0.147 OA
ATOM     14  C   LIG    1       22.911 -19.903   5.370  0.00  0.00    +0.228 C 
ENDBRANCH  10  11
ENDBRANCH   9  10
ENDBRANCH   8   9
ENDBRANCH   1   8
TORSDOF 7
ENDMDL
