MODEL 1
REMARK VINA RESULT:      -7.5      0.000      0.000
REMARK  Name = *****
REMARK                            x       y       z     vdW  Elec       q    Type
REMARK                         _______ _______ _______ _____ _____    ______ ____
ROOT
ATOM      1  N   LIG    1       25.445 -29.281   7.826  0.00  0.00    -0.220 NA
ENDROOT
BRANCH   1   2
ATOM      2  N   LIG    1       25.243 -30.611   7.208  0.00  0.00    -0.246 N 
ATOM      3  H   LIG    1       24.499 -30.710   6.525  0.00  0.00    +0.169 HD
ATOM      4  C   LIG    1       26.056 -31.686   7.529  0.00  0.00    +0.248 C 
ATOM      5  O   LIG    1       27.030 -31.588   8.270  0.00  0.00    -0.272 OA
BRANCH   4   6
ATOM      6  C   LIG    1       25.754 -33.078   7.039  0.00  0.00    +0.169 C 
BRANCH   6   7
ATOM      7  C   LIG    1       25.684 -33.079   5.467  0.00  0.00    -0.011 C 
ATOM      8  C   LIG    1       26.972 -33.762   4.957  0.00  0.00    +0.013 C 
ATOM      9  C   LIG    1       25.671 -31.693   4.769  0.00  0.00    +0.013 C 
ATOM     10  C   LIG    1       24.381 -33.788   5.011  0.00  0.00    +0.013 C 
ENDBRANCH   6   7
BRANCH   6  11
ATOM     11  N   LIG    1       24.434 -33.608   7.621  0.00  0.00    -0.269 N 
ATOM     12  H   LIG    1       24.428 -34.566   7.930  0.00  0.00    +0.153 HD
ATOM     13  C   LIG    1       23.266 -32.957   8.039  0.00  0.00    +0.401 C 
ATOM     14  O   LIG    1       22.893 -31.819   7.886  0.00  0.00    -0.227 OA
BRANCH  13  15
ATOM     15  O   LIG    1       22.534 -33.823   8.799  0.00  0.00    -0.454 OA
ATOM     16  C   LIG    1       21.591 -33.157   9.662  0.00  0.00    +0.282 C 
ENDBRANCH  13  15
ENDBRANCH   6  11
ENDBRANCH   4   6
ENDBRANCH   1   2
BRANCH   1  17
ATOM     17  C   LIG    1       24.687 -29.259   9.141  0.00  0.00    +0.139 C 
BRANCH  17  18
ATOM     18  C   LIG    1       25.439 -29.368  10.586  0.00  0.00    +0.150 C 
BRANCH  18  19
ATOM     19  O   LIG    1       26.452 -30.371  10.610  0.00  0.00    -0.389 OA
ATOM     20  H   LIG    1       26.062 -31.181  10.967  0.00  0.00    +0.210 HD
ENDBRANCH  18  19
BRANCH  18  21
ATOM     21  C   LIG    1       24.557 -29.495  11.900  0.00  0.00    +0.107 C 
BRANCH  21  23
ATOM     22  C   LIG    1       26.058 -29.499  14.195  0.00  0.00    +0.234 C 
ATOM     23  N   LIG    1       25.203 -29.896  13.225  0.00  0.00    -0.308 N 
ATOM     24  H   LIG    1       24.612 -30.549  13.729  0.00  0.00    +0.149 HD
ATOM     25  O   LIG    1       25.871 -30.075  15.279  0.00  0.00    -0.274 OA
BRANCH  22  26
ATOM     26  C   LIG    1       27.238 -28.561  14.081  0.00  0.00    +0.167 C 
BRANCH  26  27
ATOM     27  C   LIG    1       26.930 -27.091  14.186  0.00  0.00    -0.011 C 
ATOM     28  C   LIG    1       26.657 -26.387  12.734  0.00  0.00    +0.013 C 
ATOM     29  C   LIG    1       28.436 -26.864  15.291  0.00  0.00    +0.013 C 
ATOM     30  C   LIG    1       25.420 -26.891  14.561  0.00  0.00    +0.013 C 
ENDBRANCH  26  27
BRANCH  26  32
ATOM     31  C   LIG    1       28.889 -29.487  12.457  0.00  0.00    +0.401 C 
ATOM     32  N   LIG    1       27.938 -28.604  12.776  0.00  0.00    -0.269 N 
ATOM     33  H   LIG    1       28.289 -27.705  12.452  0.00  0.00    +0.153 HD
ATOM     34  O   LIG    1       29.196 -29.708  11.297  0.00  0.00    -0.227 OA
BRANCH  31  36
ATOM     35  C   LIG    1       30.897 -29.743  13.613  0.00  0.00    +0.282 C 
ATOM     36  O   LIG    1       29.500 -29.952  13.563  0.00  0.00    -0.454 OA
ENDBRANCH  31  36
ENDBRANCH  26  32
ENDBRANCH  22  26
ENDBRANCH  21  23
BRANCH  21  37
ATOM     37  C   LIG    1       23.569 -28.282  12.242  0.00  0.00    +0.060 C 
BRANCH  37  38
ATOM     38  C   LIG    1       22.193 -28.336  12.952  0.00  0.00    -0.045 A 
ATOM     39  C   LIG    1       21.764 -29.340  13.765  0.00  0.00    +0.003 A 
ATOM     40  C   LIG    1       20.628 -29.225  14.601  0.00  0.00    +0.000 A 
ATOM     41  C   LIG    1       19.943 -28.032  14.649  0.00  0.00    +0.000 A 
ATOM     42  C   LIG    1       20.366 -26.964  13.850  0.00  0.00    +0.000 A 
ATOM     43  C   LIG    1       21.484 -27.110  13.008  0.00  0.00    +0.003 A 
ENDBRANCH  37  38
ENDBRANCH  21  37
ENDBRANCH  18  21
ENDBRANCH  17  18
ENDBRANCH   1  17
BRANCH   1  44
ATOM     44  C   LIG    1       25.237 -28.218   6.754  0.00  0.00    +0.140 C 
BRANCH  44  45
ATOM     45  C   LIG    1       25.335 -26.718   6.726  0.00  0.00    -0.032 A 
ATOM     46  C   LIG    1       26.262 -25.706   7.194  0.00  0.00    +0.005 A 
ATOM     47  C   LIG    1       26.043 -24.256   6.949  0.00  0.00    +0.010 A 
ATOM     48  C   LIG    1       24.933 -23.716   6.302  0.00  0.00    +0.000 A 
ATOM     49  C   LIG    1       24.292 -24.761   5.753  0.00  0.00    +0.010 A 
ATOM     50  C   LIG    1       24.549 -26.127   5.863  0.00  0.00    +0.005 A 
BRANCH  48  51
ATOM     51  C   LIG    1       24.303 -22.370   5.982  0.00  0.00    +0.071 A 
ATOM     52  N   LIG    1       24.343 -22.091   4.704  0.00  0.00    -0.255 NA
ATOM     53  C   LIG    1       23.630 -21.039   4.287  0.00  0.00    +0.111 A 
ATOM     54  C   LIG    1       22.897 -20.157   5.067  0.00  0.00    +0.020 A 
ATOM     55  C   LIG    1       22.883 -20.353   6.445  0.00  0.00    +0.004 A 
ATOM     56  C   LIG    1       23.545 -21.504   6.881  0.00  0.00    +0.028 A 
ENDBRANCH  48  51
ENDBRANCH  44  45
ENDBRANCH   1  44
TORSDOF 19
ENDMDL
MODEL 2
REMARK VINA RESULT:      -7.1      1.801      7.002
REMARK  Name = *****
REMARK                            x       y       z     vdW  Elec       q    Type
REMARK                         _______ _______ _______ _____ _____    ______ ____
ROOT
ATOM      1  N   LIG    1       25.903 -28.548   8.501  0.00  0.00    -0.220 NA
ENDROOT
BRANCH   1   2
ATOM      2  N   LIG    1       26.549 -28.422   9.827  0.00  0.00    -0.246 N 
ATOM      3  H   LIG    1       27.477 -28.014   9.867  0.00  0.00    +0.169 HD
ATOM      4  C   LIG    1       25.902 -28.823  10.984  0.00  0.00    +0.248 C 
ATOM      5  O   LIG    1       24.742 -29.224  10.995  0.00  0.00    -0.272 OA
BRANCH   4   6
ATOM      6  C   LIG    1       26.610 -28.859  12.313  0.00  0.00    +0.169 C 
BRANCH   6   7
ATOM      7  C   LIG    1       26.353 -27.512  13.084  0.00  0.00    -0.011 C 
ATOM      8  C   LIG    1       24.824 -27.298  13.123  0.00  0.00    +0.013 C 
ATOM      9  C   LIG    1       26.914 -26.219  12.435  0.00  0.00    +0.013 C 
ATOM     10  C   LIG    1       27.008 -27.590  14.489  0.00  0.00    +0.013 C 
ENDBRANCH   6   7
BRANCH   6  11
ATOM     11  N   LIG    1       28.122 -29.082  12.142  0.00  0.00    -0.269 N 
ATOM     12  H   LIG    1       28.583 -28.534  11.435  0.00  0.00    +0.153 HD
ATOM     13  C   LIG    1       29.067 -29.740  12.939  0.00  0.00    +0.401 C 
ATOM     14  O   LIG    1       28.932 -30.477  13.885  0.00  0.00    -0.227 OA
BRANCH  13  15
ATOM     15  O   LIG    1       30.315 -29.357  12.538  0.00  0.00    -0.454 OA
ATOM     16  C   LIG    1       31.333 -29.639  13.520  0.00  0.00    +0.282 C 
ENDBRANCH  13  15
ENDBRANCH   6  11
ENDBRANCH   4   6
ENDBRANCH   1   2
BRANCH   1  17
ATOM     17  C   LIG    1       25.857 -30.023   8.144  0.00  0.00    +0.139 C 
BRANCH  17  18
ATOM     18  C   LIG    1       24.455 -30.851   8.029  0.00  0.00    +0.150 C 
BRANCH  18  19
ATOM     19  O   LIG    1       23.332 -30.107   8.496  0.00  0.00    -0.389 OA
ATOM     20  H   LIG    1       22.559 -30.687   8.472  0.00  0.00    +0.210 HD
ENDBRANCH  18  19
BRANCH  18  21
ATOM     21  C   LIG    1       24.384 -32.321   8.625  0.00  0.00    +0.107 C 
BRANCH  21  23
ATOM     22  C   LIG    1       22.047 -32.902   9.937  0.00  0.00    +0.234 C 
ATOM     23  N   LIG    1       23.038 -32.928   9.017  0.00  0.00    -0.308 N 
ATOM     24  H   LIG    1       22.545 -33.268   8.197  0.00  0.00    +0.149 HD
ATOM     25  O   LIG    1       20.964 -33.327   9.504  0.00  0.00    -0.274 OA
BRANCH  22  26
ATOM     26  C   LIG    1       22.136 -32.540  11.402  0.00  0.00    +0.167 C 
BRANCH  26  27
ATOM     27  C   LIG    1       21.184 -31.475  11.882  0.00  0.00    -0.011 C 
ATOM     28  C   LIG    1       21.946 -30.134  12.427  0.00  0.00    +0.013 C 
ATOM     29  C   LIG    1       20.277 -32.762  12.911  0.00  0.00    +0.013 C 
ATOM     30  C   LIG    1       20.639 -30.661  10.657  0.00  0.00    +0.013 C 
ENDBRANCH  26  27
BRANCH  26  32
ATOM     31  C   LIG    1       24.450 -32.664  12.325  0.00  0.00    +0.401 C 
ATOM     32  N   LIG    1       23.433 -31.959  11.818  0.00  0.00    -0.269 N 
ATOM     33  H   LIG    1       23.360 -31.134  12.411  0.00  0.00    +0.153 HD
ATOM     34  O   LIG    1       25.588 -32.227  12.340  0.00  0.00    -0.227 OA
BRANCH  31  36
ATOM     35  C   LIG    1       24.011 -33.799  14.313  0.00  0.00    +0.282 C 
ATOM     36  O   LIG    1       24.005 -33.798  12.900  0.00  0.00    -0.454 OA
ENDBRANCH  31  36
ENDBRANCH  26  32
ENDBRANCH  22  26
ENDBRANCH  21  23
BRANCH  21  37
ATOM     37  C   LIG    1       25.174 -33.471   7.841  0.00  0.00    +0.060 C 
BRANCH  37  38
ATOM     38  C   LIG    1       25.540 -33.530   6.336  0.00  0.00    -0.045 A 
ATOM     39  C   LIG    1       24.678 -33.313   5.306  0.00  0.00    +0.003 A 
ATOM     40  C   LIG    1       25.104 -33.107   3.973  0.00  0.00    +0.000 A 
ATOM     41  C   LIG    1       26.451 -33.067   3.692  0.00  0.00    +0.000 A 
ATOM     42  C   LIG    1       27.374 -33.256   4.727  0.00  0.00    +0.000 A 
ATOM     43  C   LIG    1       26.926 -33.484   6.041  0.00  0.00    +0.003 A 
ENDBRANCH  37  38
ENDBRANCH  21  37
ENDBRANCH  18  21
ENDBRANCH  17  18
ENDBRANCH   1  17
BRANCH   1  44
ATOM     44  C   LIG    1       26.516 -27.509   7.569  0.00  0.00    +0.140 C 
BRANCH  44  45
ATOM     45  C   LIG    1       25.960 -26.400   6.720  0.00  0.00    -0.032 A 
ATOM     46  C   LIG    1       25.642 -26.191   5.320  0.00  0.00    +0.005 A 
ATOM     47  C   LIG    1       25.050 -24.922   4.823  0.00  0.00    +0.010 A 
ATOM     48  C   LIG    1       24.782 -23.804   5.611  0.00  0.00    +0.000 A 
ATOM     49  C   LIG    1       24.924 -24.217   6.881  0.00  0.00    +0.010 A 
ATOM     50  C   LIG    1       25.359 -25.444   7.381  0.00  0.00    +0.005 A 
BRANCH  48  51
ATOM     51  C   LIG    1       24.330 -22.359   5.480  0.00  0.00    +0.071 A 
ATOM     52  N   LIG    1       24.577 -21.863   4.293  0.00  0.00    -0.255 NA
ATOM     53  C   LIG    1       24.030 -20.679   4.002  0.00  0.00    +0.111 A 
ATOM     54  C   LIG    1       23.277 -19.869   4.840  0.00  0.00    +0.020 A 
ATOM     55  C   LIG    1       23.050 -20.304   6.143  0.00  0.00    +0.004 A 
ATOM     56  C   LIG    1       23.534 -21.584   6.429  0.00  0.00    +0.028 A 
ENDBRANCH  48  51
ENDBRANCH  44  45
ENDBRANCH   1  44
TORSDOF 19
ENDMDL
MODEL 3
REMARK VINA RESULT:      -7.0      1.949      3.611
REMARK  Name = *****
REMARK                            x       y       z     vdW  Elec       q    Type
REMARK                         _______ _______ _______ _____ _____    ______ ____
ROOT
ATOM      1  N   LIG    1       25.536 -31.796   9.349  0.00  0.00    -0.220 NA
ENDROOT
BRANCH   1   2
ATOM      2  N   LIG    1       24.157 -32.080   9.808  0.00  0.00    -0.246 N 
ATOM      3  H   LIG    1       23.395 -31.576   9.366  0.00  0.00    +0.169 HD
ATOM      4  C   LIG    1       23.905 -33.022  10.792  0.00  0.00    +0.248 C 
ATOM      5  O   LIG    1       24.783 -33.728  11.280  0.00  0.00    -0.272 OA
BRANCH   4   6
ATOM      6  C   LIG    1       22.532 -33.196  11.386  0.00  0.00    +0.169 C 
BRANCH   6   7
ATOM      7  C   LIG    1       21.444 -32.957  10.275  0.00  0.00    -0.011 C 
ATOM      8  C   LIG    1       21.143 -31.442  10.254  0.00  0.00    +0.013 C 
ATOM      9  C   LIG    1       20.063 -33.629  10.496  0.00  0.00    +0.013 C 
ATOM     10  C   LIG    1       21.963 -33.508   8.919  0.00  0.00    +0.013 C 
ENDBRANCH   6   7
BRANCH   6  11
ATOM     11  N   LIG    1       22.299 -32.234  12.562  0.00  0.00    -0.269 N 
ATOM     12  H   LIG    1       21.433 -31.721  12.562  0.00  0.00    +0.153 HD
ATOM     13  C   LIG    1       22.953 -32.082  13.791  0.00  0.00    +0.401 C 
ATOM     14  O   LIG    1       23.997 -32.533  14.196  0.00  0.00    -0.227 OA
BRANCH  13  15
ATOM     15  O   LIG    1       22.156 -31.345  14.619  0.00  0.00    -0.454 OA
ATOM     16  C   LIG    1       20.754 -31.644  14.466  0.00  0.00    +0.282 C 
ENDBRANCH  13  15
ENDBRANCH   6  11
ENDBRANCH   4   6
ENDBRANCH   1   2
BRANCH   1  17
ATOM     17  C   LIG    1       26.192 -30.892  10.376  0.00  0.00    +0.139 C 
BRANCH  17  18
ATOM     18  C   LIG    1       25.565 -29.444  10.794  0.00  0.00    +0.150 C 
BRANCH  18  19
ATOM     19  O   LIG    1       26.518 -28.386  10.719  0.00  0.00    -0.389 OA
ATOM     20  H   LIG    1       26.999 -28.357  11.558  0.00  0.00    +0.210 HD
ENDBRANCH  18  19
BRANCH  18  21
ATOM     21  C   LIG    1       24.764 -29.321  12.159  0.00  0.00    +0.107 C 
BRANCH  21  23
ATOM     22  C   LIG    1       26.270 -29.561  14.438  0.00  0.00    +0.234 C 
ATOM     23  N   LIG    1       25.377 -29.837  13.460  0.00  0.00    -0.308 N 
ATOM     24  H   LIG    1       24.731 -30.454  13.941  0.00  0.00    +0.149 HD
ATOM     25  O   LIG    1       26.037 -30.163  15.499  0.00  0.00    -0.274 OA
BRANCH  22  26
ATOM     26  C   LIG    1       27.531 -28.732  14.352  0.00  0.00    +0.167 C 
BRANCH  26  27
ATOM     27  C   LIG    1       27.379 -27.261  14.642  0.00  0.00    -0.011 C 
ATOM     28  C   LIG    1       26.945 -26.390  13.326  0.00  0.00    +0.013 C 
ATOM     29  C   LIG    1       29.055 -27.266  15.498  0.00  0.00    +0.013 C 
ATOM     30  C   LIG    1       25.972 -26.989  15.279  0.00  0.00    +0.013 C 
ENDBRANCH  26  27
BRANCH  26  32
ATOM     31  C   LIG    1       29.075 -29.548  12.572  0.00  0.00    +0.401 C 
ATOM     32  N   LIG    1       28.151 -28.686  13.008  0.00  0.00    -0.269 N 
ATOM     33  H   LIG    1       28.490 -27.767  12.727  0.00  0.00    +0.153 HD
ATOM     34  O   LIG    1       29.310 -29.688  11.383  0.00  0.00    -0.227 OA
BRANCH  31  36
ATOM     35  C   LIG    1       31.105 -29.714  13.705  0.00  0.00    +0.282 C 
ATOM     36  O   LIG    1       29.746 -30.092  13.604  0.00  0.00    -0.454 OA
ENDBRANCH  31  36
ENDBRANCH  26  32
ENDBRANCH  22  26
ENDBRANCH  21  23
BRANCH  21  37
ATOM     37  C   LIG    1       24.122 -27.897  12.509  0.00  0.00    +0.060 C 
BRANCH  37  38
ATOM     38  C   LIG    1       22.698 -27.591  13.040  0.00  0.00    -0.045 A 
ATOM     39  C   LIG    1       21.564 -28.254  12.685  0.00  0.00    +0.003 A 
ATOM     40  C   LIG    1       20.343 -28.128  13.388  0.00  0.00    +0.000 A 
ATOM     41  C   LIG    1       20.293 -27.345  14.519  0.00  0.00    +0.000 A 
ATOM     42  C   LIG    1       21.443 -26.667  14.937  0.00  0.00    +0.000 A 
ATOM     43  C   LIG    1       22.640 -26.789  14.207  0.00  0.00    +0.003 A 
ENDBRANCH  37  38
ENDBRANCH  21  37
ENDBRANCH  18  21
ENDBRANCH  17  18
ENDBRANCH   1  17
BRANCH   1  44
ATOM     44  C   LIG    1       25.482 -31.435   7.869  0.00  0.00    +0.140 C 
BRANCH  44  45
ATOM     45  C   LIG    1       25.356 -30.146   7.105  0.00  0.00    -0.032 A 
ATOM     46  C   LIG    1       25.441 -29.719   5.721  0.00  0.00    +0.005 A 
ATOM     47  C   LIG    1       25.218 -28.307   5.313  0.00  0.00    +0.010 A 
ATOM     48  C   LIG    1       24.954 -27.256   6.189  0.00  0.00    +0.000 A 
ATOM     49  C   LIG    1       24.698 -27.831   7.375  0.00  0.00    +0.010 A 
ATOM     50  C   LIG    1       24.778 -29.170   7.757  0.00  0.00    +0.005 A 
BRANCH  48  51
ATOM     51  C   LIG    1       24.802 -25.743   6.192  0.00  0.00    +0.071 A 
ATOM     52  N   LIG    1       23.552 -25.367   6.287  0.00  0.00    -0.255 NA
ATOM     53  C   LIG    1       23.322 -24.069   6.515  0.00  0.00    +0.111 A 
ATOM     54  C   LIG    1       24.259 -23.050   6.598  0.00  0.00    +0.020 A 
ATOM     55  C   LIG    1       25.601 -23.375   6.423  0.00  0.00    +0.004 A 
ATOM     56  C   LIG    1       25.862 -24.741   6.280  0.00  0.00    +0.028 A 
ENDBRANCH  48  51
ENDBRANCH  44  45
ENDBRANCH   1  44
TORSDOF 19
ENDMDL
MODEL 4
REMARK VINA RESULT:      -7.0      2.254      6.680
REMARK  Name = *****
REMARK                            x       y       z     vdW  Elec       q    Type
REMARK                         _______ _______ _______ _____ _____    ______ ____
ROOT
ATOM      1  N   LIG    1       25.590 -29.446   8.941  0.00  0.00    -0.220 NA
ENDROOT
BRANCH   1   2
ATOM      2  N   LIG    1       25.802 -28.842  10.276  0.00  0.00    -0.246 N 
ATOM      3  H   LIG    1       24.996 -28.454  10.757  0.00  0.00    +0.169 HD
ATOM      4  C   LIG    1       27.054 -28.825  10.869  0.00  0.00    +0.248 C 
ATOM      5  O   LIG    1       28.035 -29.371  10.373  0.00  0.00    -0.272 OA
BRANCH   4   6
ATOM      6  C   LIG    1       27.314 -28.065  12.143  0.00  0.00    +0.169 C 
BRANCH   6   7
ATOM      7  C   LIG    1       27.616 -29.079  13.308  0.00  0.00    -0.011 C 
ATOM      8  C   LIG    1       27.413 -28.316  14.636  0.00  0.00    +0.013 C 
ATOM      9  C   LIG    1       29.062 -29.635  13.391  0.00  0.00    +0.013 C 
ATOM     10  C   LIG    1       26.699 -30.323  13.158  0.00  0.00    +0.013 C 
ENDBRANCH   6   7
BRANCH   6  11
ATOM     11  N   LIG    1       26.121 -27.172  12.523  0.00  0.00    -0.269 N 
ATOM     12  H   LIG    1       25.232 -27.629  12.636  0.00  0.00    +0.153 HD
ATOM     13  C   LIG    1       26.050 -25.851  12.983  0.00  0.00    +0.401 C 
ATOM     14  O   LIG    1       26.886 -24.981  13.033  0.00  0.00    -0.227 OA
BRANCH  13  15
ATOM     15  O   LIG    1       24.808 -25.641  13.509  0.00  0.00    -0.454 OA
ATOM     16  C   LIG    1       24.838 -25.306  14.910  0.00  0.00    +0.282 C 
ENDBRANCH  13  15
ENDBRANCH   6  11
ENDBRANCH   4   6
ENDBRANCH   1   2
BRANCH   1  17
ATOM     17  C   LIG    1       26.045 -30.892   9.008  0.00  0.00    +0.139 C 
BRANCH  17  18
ATOM     18  C   LIG    1       25.376 -31.974  10.031  0.00  0.00    +0.150 C 
BRANCH  18  19
ATOM     19  O   LIG    1       26.303 -32.959  10.481  0.00  0.00    -0.389 OA
ATOM     20  H   LIG    1       25.842 -33.544  11.097  0.00  0.00    +0.210 HD
ENDBRANCH  18  19
BRANCH  18  21
ATOM     21  C   LIG    1       24.025 -32.692   9.608  0.00  0.00    +0.107 C 
BRANCH  21  23
ATOM     22  C   LIG    1       22.023 -31.106  10.607  0.00  0.00    +0.234 C 
ATOM     23  N   LIG    1       22.681 -32.001   9.835  0.00  0.00    -0.308 N 
ATOM     24  H   LIG    1       22.152 -31.954   8.971  0.00  0.00    +0.149 HD
ATOM     25  O   LIG    1       21.032 -30.611  10.047  0.00  0.00    -0.274 OA
BRANCH  22  26
ATOM     26  C   LIG    1       22.279 -30.745  12.052  0.00  0.00    +0.167 C 
BRANCH  26  27
ATOM     27  C   LIG    1       21.714 -31.687  13.083  0.00  0.00    -0.011 C 
ATOM     28  C   LIG    1       20.670 -30.959  14.112  0.00  0.00    +0.013 C 
ATOM     29  C   LIG    1       23.452 -32.293  13.470  0.00  0.00    +0.013 C 
ATOM     30  C   LIG    1       20.526 -32.500  12.461  0.00  0.00    +0.013 C 
ENDBRANCH  26  27
BRANCH  26  32
ATOM     31  C   LIG    1       22.370 -28.387  12.862  0.00  0.00    +0.401 C 
ATOM     32  N   LIG    1       21.674 -29.465  12.486  0.00  0.00    -0.269 N 
ATOM     33  H   LIG    1       20.932 -29.557  13.179  0.00  0.00    +0.153 HD
ATOM     34  O   LIG    1       21.868 -27.276  12.886  0.00  0.00    -0.227 OA
BRANCH  31  36
ATOM     35  C   LIG    1       23.722 -28.803  14.715  0.00  0.00    +0.282 C 
ATOM     36  O   LIG    1       23.591 -28.740  13.309  0.00  0.00    -0.454 OA
ENDBRANCH  31  36
ENDBRANCH  26  32
ENDBRANCH  22  26
ENDBRANCH  21  23
BRANCH  21  37
ATOM     37  C   LIG    1       23.954 -33.318   8.136  0.00  0.00    +0.060 C 
BRANCH  37  38
ATOM     38  C   LIG    1       24.450 -32.697   6.805  0.00  0.00    -0.045 A 
ATOM     39  C   LIG    1       24.098 -31.472   6.327  0.00  0.00    +0.003 A 
ATOM     40  C   LIG    1       24.775 -30.836   5.260  0.00  0.00    +0.000 A 
ATOM     41  C   LIG    1       25.876 -31.443   4.701  0.00  0.00    +0.000 A 
ATOM     42  C   LIG    1       26.290 -32.691   5.181  0.00  0.00    +0.000 A 
ATOM     43  C   LIG    1       25.586 -33.315   6.227  0.00  0.00    +0.003 A 
ENDBRANCH  37  38
ENDBRANCH  21  37
ENDBRANCH  18  21
ENDBRANCH  17  18
ENDBRANCH   1  17
BRANCH   1  44
ATOM     44  C   LIG    1       26.119 -28.478   7.889  0.00  0.00    +0.140 C 
BRANCH  44  45
ATOM     45  C   LIG    1       25.549 -27.281   7.179  0.00  0.00    -0.032 A 
ATOM     46  C   LIG    1       24.480 -27.016   6.236  0.00  0.00    +0.005 A 
ATOM     47  C   LIG    1       24.170 -25.643   5.755  0.00  0.00    +0.010 A 
ATOM     48  C   LIG    1       24.877 -24.496   6.110  0.00  0.00    +0.000 A 
ATOM     49  C   LIG    1       25.674 -24.863   7.127  0.00  0.00    +0.010 A 
ATOM     50  C   LIG    1       25.893 -26.123   7.683  0.00  0.00    +0.005 A 
BRANCH  48  51
ATOM     51  C   LIG    1       24.961 -23.018   5.765  0.00  0.00    +0.071 A 
ATOM     52  N   LIG    1       25.775 -22.365   6.556  0.00  0.00    -0.255 NA
ATOM     53  C   LIG    1       26.087 -21.112   6.210  0.00  0.00    +0.111 A 
ATOM     54  C   LIG    1       25.595 -20.388   5.134  0.00  0.00    +0.020 A 
ATOM     55  C   LIG    1       24.662 -21.000   4.302  0.00  0.00    +0.004 A 
ATOM     56  C   LIG    1       24.401 -22.341   4.598  0.00  0.00    +0.028 A 
ENDBRANCH  48  51
ENDBRANCH  44  45
ENDBRANCH   1  44
TORSDOF 19
ENDMDL
MODEL 5
REMARK VINA RESULT:      -6.8      2.093      4.177
REMARK  Name = *****
REMARK                            x       y       z     vdW  Elec       q    Type
REMARK                         _______ _______ _______ _____ _____    ______ ____
ROOT
ATOM      1  N   LIG    1       26.337 -29.684   8.214  0.00  0.00    -0.220 NA
ENDROOT
BRANCH   1   2
ATOM      2  N   LIG    1       25.888 -31.071   7.960  0.00  0.00    -0.246 N 
ATOM      3  H   LIG    1       26.595 -31.796   7.896  0.00  0.00    +0.169 HD
ATOM      4  C   LIG    1       24.543 -31.383   7.838  0.00  0.00    +0.248 C 
ATOM      5  O   LIG    1       23.650 -30.559   8.011  0.00  0.00    -0.272 OA
BRANCH   4   6
ATOM      6  C   LIG    1       24.086 -32.753   7.412  0.00  0.00    +0.169 C 
BRANCH   6   7
ATOM      7  C   LIG    1       24.187 -32.878   5.847  0.00  0.00    -0.011 C 
ATOM      8  C   LIG    1       24.303 -31.445   5.284  0.00  0.00    +0.013 C 
ATOM      9  C   LIG    1       22.961 -33.489   5.117  0.00  0.00    +0.013 C 
ATOM     10  C   LIG    1       25.387 -33.792   5.481  0.00  0.00    +0.013 C 
ENDBRANCH   6   7
BRANCH   6  11
ATOM     11  N   LIG    1       22.644 -33.034   7.867  0.00  0.00    -0.269 N 
ATOM     12  H   LIG    1       21.978 -33.259   7.148  0.00  0.00    +0.153 HD
ATOM     13  C   LIG    1       22.093 -33.277   9.131  0.00  0.00    +0.401 C 
ATOM     14  O   LIG    1       22.556 -33.148  10.239  0.00  0.00    -0.227 OA
BRANCH  13  15
ATOM     15  O   LIG    1       20.849 -33.816   8.966  0.00  0.00    -0.454 OA
ATOM     16  C   LIG    1       19.951 -33.505  10.051  0.00  0.00    +0.282 C 
ENDBRANCH  13  15
ENDBRANCH   6  11
ENDBRANCH   4   6
ENDBRANCH   1   2
BRANCH   1  17
ATOM     17  C   LIG    1       26.626 -29.552   9.698  0.00  0.00    +0.139 C 
BRANCH  17  18
ATOM     18  C   LIG    1       25.598 -30.103  10.841  0.00  0.00    +0.150 C 
BRANCH  18  19
ATOM     19  O   LIG    1       25.270 -31.481  10.674  0.00  0.00    -0.389 OA
ATOM     20  H   LIG    1       24.380 -31.620  11.024  0.00  0.00    +0.210 HD
ENDBRANCH  18  19
BRANCH  18  21
ATOM     21  C   LIG    1       24.267 -29.287  11.131  0.00  0.00    +0.107 C 
BRANCH  21  23
ATOM     22  C   LIG    1       21.689 -30.203  11.312  0.00  0.00    +0.234 C 
ATOM     23  N   LIG    1       22.905 -29.897  10.805  0.00  0.00    -0.308 N 
ATOM     24  H   LIG    1       22.695 -29.799   9.817  0.00  0.00    +0.149 HD
ATOM     25  O   LIG    1       20.807 -30.305  10.444  0.00  0.00    -0.274 OA
BRANCH  22  26
ATOM     26  C   LIG    1       21.324 -30.535  12.741  0.00  0.00    +0.167 C 
BRANCH  26  27
ATOM     27  C   LIG    1       20.603 -29.458  13.509  0.00  0.00    -0.011 C 
ATOM     28  C   LIG    1       21.442 -28.928  14.810  0.00  0.00    +0.013 C 
ATOM     29  C   LIG    1       19.048 -30.518  13.518  0.00  0.00    +0.013 C 
ATOM     30  C   LIG    1       20.821 -28.071  12.810  0.00  0.00    +0.013 C 
ENDBRANCH  26  27
BRANCH  26  32
ATOM     31  C   LIG    1       23.055 -31.977  13.811  0.00  0.00    +0.401 C 
ATOM     32  N   LIG    1       22.480 -30.783  13.633  0.00  0.00    -0.269 N 
ATOM     33  H   LIG    1       22.389 -30.389  14.568  0.00  0.00    +0.153 HD
ATOM     34  O   LIG    1       24.179 -32.085  14.271  0.00  0.00    -0.227 OA
BRANCH  31  36
ATOM     35  C   LIG    1       21.643 -33.617  14.677  0.00  0.00    +0.282 C 
ATOM     36  O   LIG    1       22.186 -32.970  13.543  0.00  0.00    -0.454 OA
ENDBRANCH  31  36
ENDBRANCH  26  32
ENDBRANCH  22  26
ENDBRANCH  21  23
BRANCH  21  37
ATOM     37  C   LIG    1       24.116 -28.618  12.577  0.00  0.00    +0.060 C 
BRANCH  37  38
ATOM     38  C   LIG    1       24.860 -27.383  13.146  0.00  0.00    -0.045 A 
ATOM     39  C   LIG    1       26.156 -27.056  12.889  0.00  0.00    +0.003 A 
ATOM     40  C   LIG    1       26.709 -25.792  13.201  0.00  0.00    +0.000 A 
ATOM     41  C   LIG    1       25.903 -24.816  13.742  0.00  0.00    +0.000 A 
ATOM     42  C   LIG    1       24.557 -25.100  13.997  0.00  0.00    +0.000 A 
ATOM     43  C   LIG    1       24.035 -26.373  13.700  0.00  0.00    +0.003 A 
ENDBRANCH  37  38
ENDBRANCH  21  37
ENDBRANCH  18  21
ENDBRANCH  17  18
ENDBRANCH   1  17
BRANCH   1  44
ATOM     44  C   LIG    1       25.393 -28.734   7.485  0.00  0.00    +0.140 C 
BRANCH  44  45
ATOM     45  C   LIG    1       25.480 -27.301   7.040  0.00  0.00    -0.032 A 
ATOM     46  C   LIG    1       26.524 -26.368   6.660  0.00  0.00    +0.005 A 
ATOM     47  C   LIG    1       26.225 -24.978   6.227  0.00  0.00    +0.010 A 
ATOM     48  C   LIG    1       24.951 -24.413   6.181  0.00  0.00    +0.000 A 
ATOM     49  C   LIG    1       24.097 -25.437   6.348  0.00  0.00    +0.010 A 
ATOM     50  C   LIG    1       24.352 -26.778   6.632  0.00  0.00    +0.005 A 
BRANCH  48  51
ATOM     51  C   LIG    1       24.270 -23.077   5.937  0.00  0.00    +0.071 A 
ATOM     52  N   LIG    1       23.609 -22.654   6.985  0.00  0.00    -0.255 NA
ATOM     53  C   LIG    1       23.155 -21.397   6.953  0.00  0.00    +0.111 A 
ATOM     54  C   LIG    1       23.243 -20.496   5.902  0.00  0.00    +0.020 A 
ATOM     55  C   LIG    1       23.863 -20.915   4.728  0.00  0.00    +0.004 A 
ATOM     56  C   LIG    1       24.426 -22.193   4.784  0.00  0.00    +0.028 A 
ENDBRANCH  48  51
ENDBRANCH  44  45
ENDBRANCH   1  44
TORSDOF 19
ENDMDL
MODEL 6
REMARK VINA RESULT:      -6.8      5.104      9.400
REMARK  Name = *****
REMARK                            x       y       z     vdW  Elec       q    Type
REMARK                         _______ _______ _______ _____ _____    ______ ____
ROOT
ATOM      1  N   LIG    1       26.396 -23.186   6.731  0.00  0.00    -0.220 NA
ENDROOT
BRANCH   1   2
ATOM      2  N   LIG    1       25.561 -22.278   5.912  0.00  0.00    -0.246 N 
ATOM      3  H   LIG    1       25.572 -22.400   4.905  0.00  0.00    +0.169 HD
ATOM      4  C   LIG    1       24.766 -21.306   6.498  0.00  0.00    +0.248 C 
ATOM      5  O   LIG    1       24.641 -21.190   7.713  0.00  0.00    -0.272 OA
BRANCH   4   6
ATOM      6  C   LIG    1       24.049 -20.270   5.673  0.00  0.00    +0.169 C 
BRANCH   6   7
ATOM      7  C   LIG    1       22.863 -20.948   4.891  0.00  0.00    -0.011 C 
ATOM      8  C   LIG    1       23.433 -21.442   3.544  0.00  0.00    +0.013 C 
ATOM      9  C   LIG    1       21.672 -20.032   4.502  0.00  0.00    +0.013 C 
ATOM     10  C   LIG    1       22.252 -22.078   5.763  0.00  0.00    +0.013 C 
ENDBRANCH   6   7
BRANCH   6  11
ATOM     11  N   LIG    1       25.000 -19.578   4.683  0.00  0.00    -0.269 N 
ATOM     12  H   LIG    1       24.579 -18.967   4.003  0.00  0.00    +0.153 HD
ATOM     13  C   LIG    1       26.393 -19.433   4.669  0.00  0.00    +0.401 C 
ATOM     14  O   LIG    1       27.254 -19.969   5.324  0.00  0.00    -0.227 OA
BRANCH  13  15
ATOM     15  O   LIG    1       26.718 -18.446   3.783  0.00  0.00    -0.454 OA
ATOM     16  C   LIG    1       25.565 -17.757   3.259  0.00  0.00    +0.282 C 
ENDBRANCH  13  15
ENDBRANCH   6  11
ENDBRANCH   4   6
ENDBRANCH   1   2
BRANCH   1  17
ATOM     17  C   LIG    1       25.615 -24.470   6.944  0.00  0.00    +0.139 C 
BRANCH  17  18
ATOM     18  C   LIG    1       26.196 -25.931   6.503  0.00  0.00    +0.150 C 
BRANCH  18  19
ATOM     19  O   LIG    1       26.112 -26.159   5.098  0.00  0.00    -0.389 OA
ATOM     20  H   LIG    1       26.747 -25.574   4.662  0.00  0.00    +0.210 HD
ENDBRANCH  18  19
BRANCH  18  21
ATOM     21  C   LIG    1       25.678 -27.223   7.267  0.00  0.00    +0.107 C 
BRANCH  21  23
ATOM     22  C   LIG    1       24.277 -29.489   6.624  0.00  0.00    +0.234 C 
ATOM     23  N   LIG    1       24.812 -28.251   6.541  0.00  0.00    -0.308 N 
ATOM     24  H   LIG    1       24.168 -27.792   5.906  0.00  0.00    +0.149 HD
ATOM     25  O   LIG    1       23.281 -29.643   5.899  0.00  0.00    -0.274 OA
BRANCH  22  26
ATOM     26  C   LIG    1       24.801 -30.691   7.377  0.00  0.00    +0.167 C 
BRANCH  26  27
ATOM     27  C   LIG    1       25.498 -31.741   6.551  0.00  0.00    -0.011 C 
ATOM     28  C   LIG    1       24.472 -32.862   5.943  0.00  0.00    +0.013 C 
ATOM     29  C   LIG    1       26.754 -31.981   7.931  0.00  0.00    +0.013 C 
ATOM     30  C   LIG    1       25.749 -31.194   5.103  0.00  0.00    +0.013 C 
ENDBRANCH  26  27
BRANCH  26  32
ATOM     31  C   LIG    1       23.158 -31.181   9.189  0.00  0.00    +0.401 C 
ATOM     32  N   LIG    1       23.759 -31.508   8.040  0.00  0.00    -0.269 N 
ATOM     33  H   LIG    1       23.987 -32.497   8.131  0.00  0.00    +0.153 HD
ATOM     34  O   LIG    1       22.099 -31.683   9.524  0.00  0.00    -0.227 OA
BRANCH  31  36
ATOM     35  C   LIG    1       23.503 -30.139  11.246  0.00  0.00    +0.282 C 
ATOM     36  O   LIG    1       23.940 -30.364   9.921  0.00  0.00    -0.454 OA
ENDBRANCH  31  36
ENDBRANCH  26  32
ENDBRANCH  22  26
ENDBRANCH  21  23
BRANCH  21  37
ATOM     37  C   LIG    1       26.756 -28.064   8.100  0.00  0.00    +0.060 C 
BRANCH  37  38
ATOM     38  C   LIG    1       26.723 -28.444   9.603  0.00  0.00    -0.045 A 
ATOM     39  C   LIG    1       27.257 -29.574  10.142  0.00  0.00    +0.003 A 
ATOM     40  C   LIG    1       27.446 -29.750  11.533  0.00  0.00    +0.000 A 
ATOM     41  C   LIG    1       27.131 -28.723  12.394  0.00  0.00    +0.000 A 
ATOM     42  C   LIG    1       26.606 -27.532  11.879  0.00  0.00    +0.000 A 
ATOM     43  C   LIG    1       26.404 -27.389  10.494  0.00  0.00    +0.003 A 
ENDBRANCH  37  38
ENDBRANCH  21  37
ENDBRANCH  18  21
ENDBRANCH  17  18
ENDBRANCH   1  17
BRANCH   1  44
ATOM     44  C   LIG    1       26.974 -22.387   7.893  0.00  0.00    +0.140 C 
BRANCH  44  45
ATOM     45  C   LIG    1       28.186 -21.517   8.072  0.00  0.00    -0.032 A 
ATOM     46  C   LIG    1       29.595 -21.575   7.731  0.00  0.00    +0.005 A 
ATOM     47  C   LIG    1       30.534 -20.468   8.051  0.00  0.00    +0.010 A 
ATOM     48  C   LIG    1       30.190 -19.303   8.733  0.00  0.00    +0.000 A 
ATOM     49  C   LIG    1       28.847 -19.300   8.787  0.00  0.00    +0.010 A 
ATOM     50  C   LIG    1       27.933 -20.271   8.381  0.00  0.00    +0.005 A 
BRANCH  48  51
ATOM     51  C   LIG    1       30.833 -18.064   9.336  0.00  0.00    +0.071 A 
ATOM     52  N   LIG    1       30.378 -17.798  10.534  0.00  0.00    -0.255 NA
ATOM     53  C   LIG    1       31.026 -16.863  11.238  0.00  0.00    +0.111 A 
ATOM     54  C   LIG    1       32.095 -16.085  10.820  0.00  0.00    +0.020 A 
ATOM     55  C   LIG    1       32.572 -16.264   9.525  0.00  0.00    +0.004 A 
ATOM     56  C   LIG    1       31.966 -17.304   8.814  0.00  0.00    +0.028 A 
ENDBRANCH  48  51
ENDBRANCH  44  45
ENDBRANCH   1  44
TORSDOF 19
ENDMDL
MODEL 7
REMARK VINA RESULT:      -6.7      1.800      2.698
REMARK  Name = *****
REMARK                            x       y       z     vdW  Elec       q    Type
REMARK                         _______ _______ _______ _____ _____    ______ ____
ROOT
ATOM      1  N   LIG    1       25.899 -28.231   7.361  0.00  0.00    -0.220 NA
ENDROOT
BRANCH   1   2
ATOM      2  N   LIG    1       24.952 -29.347   7.137  0.00  0.00    -0.246 N 
ATOM      3  H   LIG    1       24.183 -29.456   7.791  0.00  0.00    +0.169 HD
ATOM      4  C   LIG    1       25.089 -30.204   6.057  0.00  0.00    +0.248 C 
ATOM      5  O   LIG    1       25.940 -30.048   5.186  0.00  0.00    -0.272 OA
BRANCH   4   6
ATOM      6  C   LIG    1       24.238 -31.438   5.916  0.00  0.00    +0.169 C 
BRANCH   6   7
ATOM      7  C   LIG    1       24.492 -32.396   7.138  0.00  0.00    -0.011 C 
ATOM      8  C   LIG    1       24.133 -33.825   6.677  0.00  0.00    +0.013 C 
ATOM      9  C   LIG    1       23.621 -32.160   8.401  0.00  0.00    +0.013 C 
ATOM     10  C   LIG    1       25.963 -32.244   7.613  0.00  0.00    +0.013 C 
ENDBRANCH   6   7
BRANCH   6  11
ATOM     11  N   LIG    1       24.531 -32.180   4.601  0.00  0.00    -0.269 N 
ATOM     12  H   LIG    1       23.830 -32.119   3.882  0.00  0.00    +0.153 HD
ATOM     13  C   LIG    1       25.703 -32.749   4.089  0.00  0.00    +0.401 C 
ATOM     14  O   LIG    1       26.765 -32.986   4.612  0.00  0.00    -0.227 OA
BRANCH  13  15
ATOM     15  O   LIG    1       25.532 -32.967   2.752  0.00  0.00    -0.454 OA
ATOM     16  C   LIG    1       26.769 -32.926   2.012  0.00  0.00    +0.282 C 
ENDBRANCH  13  15
ENDBRANCH   6  11
ENDBRANCH   4   6
ENDBRANCH   1   2
BRANCH   1  17
ATOM     17  C   LIG    1       25.968 -27.972   8.854  0.00  0.00    +0.139 C 
BRANCH  17  18
ATOM     18  C   LIG    1       26.438 -29.116   9.920  0.00  0.00    +0.150 C 
BRANCH  18  19
ATOM     19  O   LIG    1       27.403 -30.015   9.378  0.00  0.00    -0.389 OA
ATOM     20  H   LIG    1       28.278 -29.730   9.677  0.00  0.00    +0.210 HD
ENDBRANCH  18  19
BRANCH  18  21
ATOM     21  C   LIG    1       25.326 -29.953  10.684  0.00  0.00    +0.107 C 
BRANCH  21  23
ATOM     22  C   LIG    1       25.939 -29.903  13.356  0.00  0.00    +0.234 C 
ATOM     23  N   LIG    1       25.528 -30.346  12.146  0.00  0.00    -0.308 N 
ATOM     24  H   LIG    1       24.893 -31.093  12.408  0.00  0.00    +0.149 HD
ATOM     25  O   LIG    1       25.472 -30.556  14.303  0.00  0.00    -0.274 OA
BRANCH  22  26
ATOM     26  C   LIG    1       26.952 -28.825  13.667  0.00  0.00    +0.167 C 
BRANCH  26  27
ATOM     27  C   LIG    1       26.417 -27.420  13.768  0.00  0.00    -0.011 C 
ATOM     28  C   LIG    1       26.753 -26.510  12.450  0.00  0.00    +0.013 C 
ATOM     29  C   LIG    1       27.180 -27.262  15.480  0.00  0.00    +0.013 C 
ATOM     30  C   LIG    1       24.896 -27.404  13.385  0.00  0.00    +0.013 C 
ENDBRANCH  26  27
BRANCH  26  32
ATOM     31  C   LIG    1       29.039 -29.472  12.463  0.00  0.00    +0.401 C 
ATOM     32  N   LIG    1       28.001 -28.647  12.637  0.00  0.00    -0.269 N 
ATOM     33  H   LIG    1       28.397 -27.709  12.589  0.00  0.00    +0.153 HD
ATOM     34  O   LIG    1       29.677 -29.490  11.424  0.00  0.00    -0.227 OA
BRANCH  31  36
ATOM     35  C   LIG    1       30.389 -29.600  14.359  0.00  0.00    +0.282 C 
ATOM     36  O   LIG    1       29.320 -30.132  13.603  0.00  0.00    -0.454 OA
ENDBRANCH  31  36
ENDBRANCH  26  32
ENDBRANCH  22  26
ENDBRANCH  21  23
BRANCH  21  37
ATOM     37  C   LIG    1       23.814 -29.440  10.571  0.00  0.00    +0.060 C 
BRANCH  37  38
ATOM     38  C   LIG    1       22.571 -29.936  11.354  0.00  0.00    -0.045 A 
ATOM     39  C   LIG    1       22.233 -29.561  12.618  0.00  0.00    +0.003 A 
ATOM     40  C   LIG    1       20.964 -29.819  13.187  0.00  0.00    +0.000 A 
ATOM     41  C   LIG    1       19.994 -30.430  12.425  0.00  0.00    +0.000 A 
ATOM     42  C   LIG    1       20.288 -30.807  11.110  0.00  0.00    +0.000 A 
ATOM     43  C   LIG    1       21.566 -30.561  10.574  0.00  0.00    +0.003 A 
ENDBRANCH  37  38
ENDBRANCH  21  37
ENDBRANCH  18  21
ENDBRANCH  17  18
ENDBRANCH   1  17
BRANCH   1  44
ATOM     44  C   LIG    1       25.581 -27.126   6.361  0.00  0.00    +0.140 C 
BRANCH  44  45
ATOM     45  C   LIG    1       25.465 -25.629   6.449  0.00  0.00    -0.032 A 
ATOM     46  C   LIG    1       25.889 -24.583   7.359  0.00  0.00    +0.005 A 
ATOM     47  C   LIG    1       25.613 -23.145   7.097  0.00  0.00    +0.010 A 
ATOM     48  C   LIG    1       24.898 -22.657   6.006  0.00  0.00    +0.000 A 
ATOM     49  C   LIG    1       24.765 -23.697   5.167  0.00  0.00    +0.010 A 
ATOM     50  C   LIG    1       25.126 -25.034   5.333  0.00  0.00    +0.005 A 
BRANCH  48  51
ATOM     51  C   LIG    1       24.320 -21.356   5.471  0.00  0.00    +0.071 A 
ATOM     52  N   LIG    1       25.090 -20.801   4.569  0.00  0.00    -0.255 NA
ATOM     53  C   LIG    1       24.580 -19.774   3.882  0.00  0.00    +0.111 A 
ATOM     54  C   LIG    1       23.341 -19.176   4.056  0.00  0.00    +0.020 A 
ATOM     55  C   LIG    1       22.508 -19.670   5.056  0.00  0.00    +0.004 A 
ATOM     56  C   LIG    1       22.991 -20.803   5.717  0.00  0.00    +0.028 A 
ENDBRANCH  48  51
ENDBRANCH  44  45
ENDBRANCH   1  44
TORSDOF 19
ENDMDL
MODEL 8
REMARK VINA RESULT:      -6.3      2.180      4.528
REMARK  Name = *****
REMARK                            x       y       z     vdW  Elec       q    Type
REMARK                         _______ _______ _______ _____ _____    ______ ____
ROOT
ATOM      1  N   LIG    1       26.307 -29.520   8.439  0.00  0.00    -0.220 NA
ENDROOT
BRANCH   1   2
ATOM      2  N   LIG    1       25.890 -30.923   8.223  0.00  0.00    -0.246 N 
ATOM      3  H   LIG    1       26.608 -31.640   8.229  0.00  0.00    +0.169 HD
ATOM      4  C   LIG    1       24.557 -31.260   8.045  0.00  0.00    +0.248 C 
ATOM      5  O   LIG    1       23.646 -30.442   8.133  0.00  0.00    -0.272 OA
BRANCH   4   6
ATOM      6  C   LIG    1       24.140 -32.653   7.655  0.00  0.00    +0.169 C 
BRANCH   6   7
ATOM      7  C   LIG    1       24.222 -32.810   6.092  0.00  0.00    -0.011 C 
ATOM      8  C   LIG    1       25.442 -33.707   5.790  0.00  0.00    +0.013 C 
ATOM      9  C   LIG    1       24.475 -31.515   5.274  0.00  0.00    +0.013 C 
ATOM     10  C   LIG    1       22.880 -33.382   5.562  0.00  0.00    +0.013 C 
ENDBRANCH   6   7
BRANCH   6  11
ATOM     11  N   LIG    1       22.716 -32.973   8.139  0.00  0.00    -0.269 N 
ATOM     12  H   LIG    1       22.032 -33.176   7.430  0.00  0.00    +0.153 HD
ATOM     13  C   LIG    1       22.205 -33.277   9.407  0.00  0.00    +0.401 C 
ATOM     14  O   LIG    1       22.699 -33.189  10.505  0.00  0.00    -0.227 OA
BRANCH  13  15
ATOM     15  O   LIG    1       20.963 -33.824   9.254  0.00  0.00    -0.454 OA
ATOM     16  C   LIG    1       19.912 -32.998   9.795  0.00  0.00    +0.282 C 
ENDBRANCH  13  15
ENDBRANCH   6  11
ENDBRANCH   4   6
ENDBRANCH   1   2
BRANCH   1  17
ATOM     17  C   LIG    1       26.569 -29.335   9.923  0.00  0.00    +0.139 C 
BRANCH  17  18
ATOM     18  C   LIG    1       25.560 -29.915  11.068  0.00  0.00    +0.150 C 
BRANCH  18  19
ATOM     19  O   LIG    1       25.117 -31.242  10.796  0.00  0.00    -0.389 OA
ATOM     20  H   LIG    1       25.465 -31.502   9.932  0.00  0.00    +0.210 HD
ENDBRANCH  18  19
BRANCH  18  21
ATOM     21  C   LIG    1       24.314 -29.034  11.506  0.00  0.00    +0.107 C 
BRANCH  21  23
ATOM     22  C   LIG    1       21.714 -29.641  12.130  0.00  0.00    +0.234 C 
ATOM     23  N   LIG    1       22.908 -29.632  11.496  0.00  0.00    -0.308 N 
ATOM     24  H   LIG    1       22.641 -29.907  10.556  0.00  0.00    +0.149 HD
ATOM     25  O   LIG    1       20.776 -30.011  11.406  0.00  0.00    -0.274 OA
BRANCH  22  26
ATOM     26  C   LIG    1       21.424 -29.375  13.590  0.00  0.00    +0.167 C 
BRANCH  26  27
ATOM     27  C   LIG    1       21.295 -30.589  14.473  0.00  0.00    -0.011 C 
ATOM     28  C   LIG    1       19.774 -30.814  15.035  0.00  0.00    +0.013 C 
ATOM     29  C   LIG    1       22.795 -30.022  15.457  0.00  0.00    +0.013 C 
ATOM     30  C   LIG    1       21.152 -31.875  13.588  0.00  0.00    +0.013 C 
ENDBRANCH  26  27
BRANCH  26  32
ATOM     31  C   LIG    1       19.955 -27.379  13.872  0.00  0.00    +0.401 C 
ATOM     32  N   LIG    1       20.129 -28.705  13.852  0.00  0.00    -0.269 N 
ATOM     33  H   LIG    1       19.626 -29.052  14.667  0.00  0.00    +0.153 HD
ATOM     34  O   LIG    1       18.850 -26.876  13.755  0.00  0.00    -0.227 OA
BRANCH  31  36
ATOM     35  C   LIG    1       21.213 -26.262  15.485  0.00  0.00    +0.282 C 
ATOM     36  O   LIG    1       21.109 -26.750  14.163  0.00  0.00    -0.454 OA
ENDBRANCH  31  36
ENDBRANCH  26  32
ENDBRANCH  22  26
ENDBRANCH  21  23
BRANCH  21  37
ATOM     37  C   LIG    1       24.436 -28.219  12.878  0.00  0.00    +0.060 C 
BRANCH  37  38
ATOM     38  C   LIG    1       25.071 -26.825  13.113  0.00  0.00    -0.045 A 
ATOM     39  C   LIG    1       24.450 -25.764  13.698  0.00  0.00    +0.003 A 
ATOM     40  C   LIG    1       25.142 -24.611  14.137  0.00  0.00    +0.000 A 
ATOM     41  C   LIG    1       26.513 -24.561  14.025  0.00  0.00    +0.000 A 
ATOM     42  C   LIG    1       27.195 -25.642  13.455  0.00  0.00    +0.000 A 
ATOM     43  C   LIG    1       26.482 -26.769  13.003  0.00  0.00    +0.003 A 
ENDBRANCH  37  38
ENDBRANCH  21  37
ENDBRANCH  18  21
ENDBRANCH  17  18
ENDBRANCH   1  17
BRANCH   1  44
ATOM     44  C   LIG    1       25.357 -28.613   7.666  0.00  0.00    +0.140 C 
BRANCH  44  45
ATOM     45  C   LIG    1       25.456 -27.224   7.100  0.00  0.00    -0.032 A 
ATOM     46  C   LIG    1       26.488 -26.383   6.523  0.00  0.00    +0.005 A 
ATOM     47  C   LIG    1       26.203 -25.014   6.017  0.00  0.00    +0.010 A 
ATOM     48  C   LIG    1       24.962 -24.383   6.080  0.00  0.00    +0.000 A 
ATOM     49  C   LIG    1       24.088 -25.341   6.430  0.00  0.00    +0.010 A 
ATOM     50  C   LIG    1       24.312 -26.669   6.789  0.00  0.00    +0.005 A 
BRANCH  48  51
ATOM     51  C   LIG    1       24.321 -23.031   5.812  0.00  0.00    +0.071 A 
ATOM     52  N   LIG    1       25.109 -22.226   5.147  0.00  0.00    -0.255 NA
ATOM     53  C   LIG    1       24.570 -21.098   4.674  0.00  0.00    +0.111 A 
ATOM     54  C   LIG    1       23.274 -20.640   4.863  0.00  0.00    +0.020 A 
ATOM     55  C   LIG    1       22.410 -21.413   5.633  0.00  0.00    +0.004 A 
ATOM     56  C   LIG    1       22.934 -22.640   6.052  0.00  0.00    +0.028 A 
ENDBRANCH  48  51
ENDBRANCH  44  45
ENDBRANCH   1  44
TORSDOF 19
ENDMDL
MODEL 9
REMARK VINA RESULT:      -6.3      2.036      4.496
REMARK  Name = *****
REMARK                            x       y       z     vdW  Elec       q    Type
REMARK                         _______ _______ _______ _____ _____    ______ ____
ROOT
ATOM      1  N   LIG    1       26.544 -28.900   8.508  0.00  0.00    -0.220 NA
ENDROOT
BRANCH   1   2
ATOM      2  N   LIG    1       26.438 -30.328   8.132  0.00  0.00    -0.246 N 
ATOM      3  H   LIG    1       27.213 -30.941   8.365  0.00  0.00    +0.169 HD
ATOM      4  C   LIG    1       25.307 -30.826   7.504  0.00  0.00    +0.248 C 
ATOM      5  O   LIG    1       24.306 -30.146   7.296  0.00  0.00    -0.272 OA
BRANCH   4   6
ATOM      6  C   LIG    1       25.257 -32.231   6.965  0.00  0.00    +0.169 C 
BRANCH   6   7
ATOM      7  C   LIG    1       25.558 -32.214   5.421  0.00  0.00    -0.011 C 
ATOM      8  C   LIG    1       26.895 -32.956   5.211  0.00  0.00    +0.013 C 
ATOM      9  C   LIG    1       25.774 -30.823   4.768  0.00  0.00    +0.013 C 
ATOM     10  C   LIG    1       24.365 -32.851   4.658  0.00  0.00    +0.013 C 
ENDBRANCH   6   7
BRANCH   6  11
ATOM     11  N   LIG    1       23.892 -32.888   7.225  0.00  0.00    -0.269 N 
ATOM     12  H   LIG    1       23.641 -33.660   6.631  0.00  0.00    +0.153 HD
ATOM     13  C   LIG    1       22.993 -32.787   8.294  0.00  0.00    +0.401 C 
ATOM     14  O   LIG    1       22.945 -32.015   9.221  0.00  0.00    -0.227 OA
BRANCH  13  15
ATOM     15  O   LIG    1       22.109 -33.825   8.218  0.00  0.00    -0.454 OA
ATOM     16  C   LIG    1       21.141 -33.821   9.287  0.00  0.00    +0.282 C 
ENDBRANCH  13  15
ENDBRANCH   6  11
ENDBRANCH   4   6
ENDBRANCH   1   2
BRANCH   1  17
ATOM     17  C   LIG    1       25.621 -28.660   9.688  0.00  0.00    +0.139 C 
BRANCH  17  18
ATOM     18  C   LIG    1       25.745 -29.502  11.081  0.00  0.00    +0.150 C 
BRANCH  18  19
ATOM     19  O   LIG    1       26.432 -30.741  10.920  0.00  0.00    -0.389 OA
ATOM     20  H   LIG    1       27.321 -30.640  11.286  0.00  0.00    +0.210 HD
ENDBRANCH  18  19
BRANCH  18  21
ATOM     21  C   LIG    1       24.437 -29.746  11.947  0.00  0.00    +0.107 C 
BRANCH  21  23
ATOM     22  C   LIG    1       22.881 -31.915  12.573  0.00  0.00    +0.234 C 
ATOM     23  N   LIG    1       23.954 -31.168  12.226  0.00  0.00    -0.308 N 
ATOM     24  H   LIG    1       24.519 -31.845  11.724  0.00  0.00    +0.149 HD
ATOM     25  O   LIG    1       22.978 -33.104  12.228  0.00  0.00    -0.274 OA
BRANCH  22  26
ATOM     26  C   LIG    1       21.682 -31.510  13.400  0.00  0.00    +0.167 C 
BRANCH  26  27
ATOM     27  C   LIG    1       21.834 -31.631  14.894  0.00  0.00    -0.011 C 
ATOM     28  C   LIG    1       21.146 -32.986  15.500  0.00  0.00    +0.013 C 
ATOM     29  C   LIG    1       21.221 -29.863  15.090  0.00  0.00    +0.013 C 
ATOM     30  C   LIG    1       23.253 -32.203  15.237  0.00  0.00    +0.013 C 
ENDBRANCH  26  27
BRANCH  26  32
ATOM     31  C   LIG    1       19.620 -32.168  12.160  0.00  0.00    +0.401 C 
ATOM     32  N   LIG    1       20.471 -32.333  13.178  0.00  0.00    -0.269 N 
ATOM     33  H   LIG    1       19.882 -32.455  14.000  0.00  0.00    +0.153 HD
ATOM     34  O   LIG    1       18.845 -33.048  11.822  0.00  0.00    -0.227 OA
BRANCH  31  36
ATOM     35  C   LIG    1       19.536 -30.769  10.297  0.00  0.00    +0.282 C 
ATOM     36  O   LIG    1       19.668 -30.904  11.698  0.00  0.00    -0.454 OA
ENDBRANCH  31  36
ENDBRANCH  26  32
ENDBRANCH  22  26
ENDBRANCH  21  23
BRANCH  21  37
ATOM     37  C   LIG    1       24.318 -28.960  13.337  0.00  0.00    +0.060 C 
BRANCH  37  38
ATOM     38  C   LIG    1       24.768 -27.513  13.662  0.00  0.00    -0.045 A 
ATOM     39  C   LIG    1       26.041 -27.041  13.561  0.00  0.00    +0.003 A 
ATOM     40  C   LIG    1       26.359 -25.664  13.602  0.00  0.00    +0.000 A 
ATOM     41  C   LIG    1       25.345 -24.738  13.695  0.00  0.00    +0.000 A 
ATOM     42  C   LIG    1       24.019 -25.178  13.773  0.00  0.00    +0.000 A 
ATOM     43  C   LIG    1       23.728 -26.555  13.754  0.00  0.00    +0.003 A 
ENDBRANCH  37  38
ENDBRANCH  21  37
ENDBRANCH  18  21
ENDBRANCH  17  18
ENDBRANCH   1  17
BRANCH   1  44
ATOM     44  C   LIG    1       26.467 -28.063   7.236  0.00  0.00    +0.140 C 
BRANCH  44  45
ATOM     45  C   LIG    1       25.607 -26.917   6.782  0.00  0.00    -0.032 A 
ATOM     46  C   LIG    1       24.328 -26.745   6.121  0.00  0.00    +0.005 A 
ATOM     47  C   LIG    1       23.749 -25.403   5.850  0.00  0.00    +0.010 A 
ATOM     48  C   LIG    1       24.370 -24.192   6.150  0.00  0.00    +0.000 A 
ATOM     49  C   LIG    1       25.416 -24.507   6.931  0.00  0.00    +0.010 A 
ATOM     50  C   LIG    1       25.910 -25.756   7.306  0.00  0.00    +0.005 A 
BRANCH  48  51
ATOM     51  C   LIG    1       24.190 -22.698   5.935  0.00  0.00    +0.071 A 
ATOM     52  N   LIG    1       24.404 -22.342   4.693  0.00  0.00    -0.255 NA
ATOM     53  C   LIG    1       24.066 -21.095   4.350  0.00  0.00    +0.111 A 
ATOM     54  C   LIG    1       23.570 -20.098   5.178  0.00  0.00    +0.020 A 
ATOM     55  C   LIG    1       23.398 -20.391   6.528  0.00  0.00    +0.004 A 
ATOM     56  C   LIG    1       23.658 -21.719   6.880  0.00  0.00    +0.028 A 
ENDBRANCH  48  51
ENDBRANCH  44  45
ENDBRANCH   1  44
TORSDOF 19
ENDMDL
