MODEL 1
REMARK VINA RESULT:      -8.6      0.000      0.000
REMARK  Name = *****
REMARK                            x       y       z     vdW  Elec       q    Type
REMARK                         _______ _______ _______ _____ _____    ______ ____
ROOT
ATOM      1  C   LIG    1       25.310 -21.730   7.122  0.00  0.00    +0.148 C 
ATOM      2  C   LIG    1       24.035 -20.901   6.890  0.00  0.00    +0.242 C 
ATOM      3  O   LIG    1       23.172 -20.787   7.769  0.00  0.00    -0.274 OA
ATOM      4  N   LIG    1       23.864 -20.355   5.623  0.00  0.00    -0.228 N 
ATOM      5  C   LIG    1       22.606 -19.699   5.306  0.00  0.00    +0.143 C 
ATOM      6  C   LIG    1       24.846 -20.303   4.654  0.00  0.00    +0.315 C 
ATOM      7  O   LIG    1       24.701 -19.757   3.563  0.00  0.00    -0.252 OA
ATOM      8  N   LIG    1       26.063 -20.816   4.981  0.00  0.00    -0.239 N 
ATOM      9  H   LIG    1       26.809 -20.560   4.350  0.00  0.00    +0.159 HD
ATOM     10  C   LIG    1       26.435 -21.193   6.237  0.00  0.00    +0.240 C 
ATOM     11  O   LIG    1       27.623 -21.161   6.559  0.00  0.00    -0.274 OA
ENDROOT
BRANCH   1  12
ATOM     12  C   LIG    1       25.060 -23.232   6.801  0.00  0.00    -0.024 A 
ATOM     13  C   LIG    1       23.768 -23.730   6.549  0.00  0.00    +0.005 A 
ATOM     14  C   LIG    1       23.553 -25.086   6.288  0.00  0.00    +0.000 A 
ATOM     15  C   LIG    1       24.619 -25.978   6.288  0.00  0.00    +0.000 A 
ATOM     16  C   LIG    1       25.902 -25.517   6.563  0.00  0.00    +0.000 A 
ATOM     17  C   LIG    1       26.119 -24.162   6.825  0.00  0.00    +0.005 A 
ENDBRANCH   1  12
BRANCH   1  19
ATOM     18  C   LIG    1       26.120 -20.267   9.117  0.00  0.00    +0.005 C 
ATOM     19  C   LIG    1       25.724 -21.658   8.622  0.00  0.00    +0.027 C 
ENDBRANCH   1  19
TORSDOF 2
ENDMDL
MODEL 2
REMARK VINA RESULT:      -8.4      1.368      3.280
REMARK  Name = *****
REMARK                            x       y       z     vdW  Elec       q    Type
REMARK                         _______ _______ _______ _____ _____    ______ ____
ROOT
ATOM      1  C   LIG    1       24.406 -21.494   6.264  0.00  0.00    +0.148 C 
ATOM      2  C   LIG    1       25.624 -20.817   5.610  0.00  0.00    +0.242 C 
ATOM      3  O   LIG    1       25.705 -20.684   4.383  0.00  0.00    -0.274 OA
ATOM      4  N   LIG    1       26.660 -20.440   6.456  0.00  0.00    -0.228 N 
ATOM      5  C   LIG    1       27.896 -19.943   5.873  0.00  0.00    +0.143 C 
ATOM      6  C   LIG    1       26.574 -20.408   7.834  0.00  0.00    +0.315 C 
ATOM      7  O   LIG    1       27.475 -20.008   8.566  0.00  0.00    -0.252 OA
ATOM      8  N   LIG    1       25.383 -20.766   8.385  0.00  0.00    -0.239 N 
ATOM      9  H   LIG    1       25.280 -20.517   9.359  0.00  0.00    +0.159 HD
ATOM     10  C   LIG    1       24.230 -20.961   7.685  0.00  0.00    +0.240 C 
ATOM     11  O   LIG    1       23.142 -20.782   8.235  0.00  0.00    -0.274 OA
ENDROOT
BRANCH   1  12
ATOM     12  C   LIG    1       24.584 -23.039   6.300  0.00  0.00    -0.024 A 
ATOM     13  C   LIG    1       23.480 -23.912   6.295  0.00  0.00    +0.005 A 
ATOM     14  C   LIG    1       23.652 -25.298   6.355  0.00  0.00    +0.000 A 
ATOM     15  C   LIG    1       24.928 -25.843   6.437  0.00  0.00    +0.000 A 
ATOM     16  C   LIG    1       26.035 -25.002   6.472  0.00  0.00    +0.000 A 
ATOM     17  C   LIG    1       25.865 -23.617   6.414  0.00  0.00    +0.005 A 
ENDBRANCH   1  12
BRANCH   1  19
ATOM     18  C   LIG    1       22.732 -19.738   5.319  0.00  0.00    +0.005 C 
ATOM     19  C   LIG    1       23.128 -21.212   5.419  0.00  0.00    +0.027 C 
ENDBRANCH   1  19
TORSDOF 2
ENDMDL
MODEL 3
REMARK VINA RESULT:      -7.9      1.568      2.507
REMARK  Name = *****
REMARK                            x       y       z     vdW  Elec       q    Type
REMARK                         _______ _______ _______ _____ _____    ______ ____
ROOT
ATOM      1  C   LIG    1       24.665 -22.086   6.717  0.00  0.00    +0.148 C 
ATOM      2  C   LIG    1       24.564 -21.140   5.508  0.00  0.00    +0.242 C 
ATOM      3  O   LIG    1       23.529 -21.061   4.836  0.00  0.00    -0.274 OA
ATOM      4  N   LIG    1       25.715 -20.442   5.161  0.00  0.00    -0.228 N 
ATOM      5  C   LIG    1       25.718 -19.659   3.936  0.00  0.00    +0.143 C 
ATOM      6  C   LIG    1       26.846 -20.355   5.948  0.00  0.00    +0.315 C 
ATOM      7  O   LIG    1       27.830 -19.679   5.660  0.00  0.00    -0.252 OA
ATOM      8  N   LIG    1       26.811 -20.994   7.149  0.00  0.00    -0.239 N 
ATOM      9  H   LIG    1       27.546 -20.727   7.788  0.00  0.00    +0.159 HD
ATOM     10  C   LIG    1       25.694 -21.540   7.707  0.00  0.00    +0.240 C 
ATOM     11  O   LIG    1       25.605 -21.637   8.931  0.00  0.00    -0.274 OA
ENDROOT
BRANCH   1  12
ATOM     12  C   LIG    1       25.077 -23.518   6.267  0.00  0.00    -0.024 A 
ATOM     13  C   LIG    1       24.800 -23.995   4.972  0.00  0.00    +0.005 A 
ATOM     14  C   LIG    1       25.152 -25.293   4.588  0.00  0.00    +0.000 A 
ATOM     15  C   LIG    1       25.772 -26.148   5.492  0.00  0.00    +0.000 A 
ATOM     16  C   LIG    1       26.030 -25.711   6.787  0.00  0.00    +0.000 A 
ATOM     17  C   LIG    1       25.678 -24.415   7.173  0.00  0.00    +0.005 A 
ENDBRANCH   1  12
BRANCH   1  19
ATOM     18  C   LIG    1       22.380 -23.327   6.846  0.00  0.00    +0.005 C 
ATOM     19  C   LIG    1       23.273 -22.218   7.404  0.00  0.00    +0.027 C 
ENDBRANCH   1  19
TORSDOF 2
ENDMDL
MODEL 4
REMARK VINA RESULT:      -7.6      1.993      4.700
REMARK  Name = *****
REMARK                            x       y       z     vdW  Elec       q    Type
REMARK                         _______ _______ _______ _____ _____    ______ ____
ROOT
ATOM      1  C   LIG    1       24.631 -21.739   7.095  0.00  0.00    +0.148 C 
ATOM      2  C   LIG    1       25.668 -22.849   6.846  0.00  0.00    +0.242 C 
ATOM      3  O   LIG    1       26.879 -22.641   6.980  0.00  0.00    -0.274 OA
ATOM      4  N   LIG    1       25.182 -24.068   6.387  0.00  0.00    -0.228 N 
ATOM      5  C   LIG    1       26.131 -25.095   5.987  0.00  0.00    +0.143 C 
ATOM      6  C   LIG    1       23.848 -24.424   6.369  0.00  0.00    +0.315 C 
ATOM      7  O   LIG    1       23.440 -25.529   6.025  0.00  0.00    -0.252 OA
ATOM      8  N   LIG    1       22.961 -23.509   6.846  0.00  0.00    -0.239 N 
ATOM      9  H   LIG    1       22.038 -23.878   7.032  0.00  0.00    +0.159 HD
ATOM     10  C   LIG    1       23.301 -22.368   7.510  0.00  0.00    +0.240 C 
ATOM     11  O   LIG    1       22.517 -21.874   8.320  0.00  0.00    -0.274 OA
ENDROOT
BRANCH   1  12
ATOM     12  C   LIG    1       24.428 -20.875   5.817  0.00  0.00    -0.024 A 
ATOM     13  C   LIG    1       25.458 -20.693   4.875  0.00  0.00    +0.005 A 
ATOM     14  C   LIG    1       25.272 -19.892   3.744  0.00  0.00    +0.000 A 
ATOM     15  C   LIG    1       24.060 -19.242   3.537  0.00  0.00    +0.000 A 
ATOM     16  C   LIG    1       23.036 -19.382   4.467  0.00  0.00    +0.000 A 
ATOM     17  C   LIG    1       23.221 -20.180   5.598  0.00  0.00    +0.005 A 
ENDBRANCH   1  12
BRANCH   1  19
ATOM     18  C   LIG    1       26.597 -20.329   8.056  0.00  0.00    +0.005 C 
ATOM     19  C   LIG    1       25.143 -20.777   8.207  0.00  0.00    +0.027 C 
ENDBRANCH   1  19
TORSDOF 2
ENDMDL
MODEL 5
REMARK VINA RESULT:      -7.2      1.971      4.332
REMARK  Name = *****
REMARK                            x       y       z     vdW  Elec       q    Type
REMARK                         _______ _______ _______ _____ _____    ______ ____
ROOT
ATOM      1  C   LIG    1       24.196 -21.183   5.826  0.00  0.00    +0.148 C 
ATOM      2  C   LIG    1       23.605 -22.419   6.526  0.00  0.00    +0.242 C 
ATOM      3  O   LIG    1       22.881 -22.310   7.523  0.00  0.00    -0.274 OA
ATOM      4  N   LIG    1       23.989 -23.661   6.035  0.00  0.00    -0.228 N 
ATOM      5  C   LIG    1       23.587 -24.857   6.758  0.00  0.00    +0.143 C 
ATOM      6  C   LIG    1       24.656 -23.860   4.841  0.00  0.00    +0.315 C 
ATOM      7  O   LIG    1       24.929 -24.967   4.387  0.00  0.00    -0.252 OA
ATOM      8  N   LIG    1       24.939 -22.753   4.103  0.00  0.00    -0.239 N 
ATOM      9  H   LIG    1       25.213 -22.944   3.149  0.00  0.00    +0.159 HD
ATOM     10  C   LIG    1       24.451 -21.505   4.353  0.00  0.00    +0.240 C 
ATOM     11  O   LIG    1       24.320 -20.702   3.430  0.00  0.00    -0.274 OA
ENDROOT
BRANCH   1  12
ATOM     12  C   LIG    1       25.525 -20.743   6.506  0.00  0.00    -0.024 A 
ATOM     13  C   LIG    1       26.649 -20.358   5.752  0.00  0.00    +0.005 A 
ATOM     14  C   LIG    1       27.846 -19.991   6.375  0.00  0.00    +0.000 A 
ATOM     15  C   LIG    1       27.952 -20.015   7.761  0.00  0.00    +0.000 A 
ATOM     16  C   LIG    1       26.865 -20.420   8.527  0.00  0.00    +0.000 A 
ATOM     17  C   LIG    1       25.669 -20.789   7.907  0.00  0.00    +0.005 A 
ENDBRANCH   1  12
BRANCH   1  19
ATOM     18  C   LIG    1       22.085 -19.958   4.919  0.00  0.00    +0.005 C 
ATOM     19  C   LIG    1       23.212 -19.982   5.952  0.00  0.00    +0.027 C 
ENDBRANCH   1  19
TORSDOF 2
ENDMDL
MODEL 6
REMARK VINA RESULT:      -7.0      1.880      4.683
REMARK  Name = *****
REMARK                            x       y       z     vdW  Elec       q    Type
REMARK                         _______ _______ _______ _____ _____    ______ ____
ROOT
ATOM      1  C   LIG    1       23.903 -21.696   6.147  0.00  0.00    +0.148 C 
ATOM      2  C   LIG    1       24.260 -21.231   7.570  0.00  0.00    +0.242 C 
ATOM      3  O   LIG    1       23.382 -20.950   8.395  0.00  0.00    -0.274 OA
ATOM      4  N   LIG    1       25.610 -21.067   7.855  0.00  0.00    -0.228 N 
ATOM      5  C   LIG    1       25.991 -20.480   9.130  0.00  0.00    +0.143 C 
ATOM      6  C   LIG    1       26.641 -21.510   7.050  0.00  0.00    +0.315 C 
ATOM      7  O   LIG    1       27.828 -21.418   7.347  0.00  0.00    -0.252 OA
ATOM      8  N   LIG    1       26.293 -22.160   5.907  0.00  0.00    -0.239 N 
ATOM      9  H   LIG    1       27.049 -22.665   5.465  0.00  0.00    +0.159 HD
ATOM     10  C   LIG    1       25.030 -22.571   5.599  0.00  0.00    +0.240 C 
ATOM     11  O   LIG    1       24.865 -23.541   4.859  0.00  0.00    -0.274 OA
ENDROOT
BRANCH   1  12
ATOM     12  C   LIG    1       23.680 -20.476   5.206  0.00  0.00    -0.024 A 
ATOM     13  C   LIG    1       24.670 -20.048   4.302  0.00  0.00    +0.005 A 
ATOM     14  C   LIG    1       24.467 -18.935   3.481  0.00  0.00    +0.000 A 
ATOM     15  C   LIG    1       23.280 -18.215   3.555  0.00  0.00    +0.000 A 
ATOM     16  C   LIG    1       22.298 -18.600   4.461  0.00  0.00    +0.000 A 
ATOM     17  C   LIG    1       22.498 -19.711   5.284  0.00  0.00    +0.005 A 
ENDBRANCH   1  12
BRANCH   1  19
ATOM     18  C   LIG    1       22.641 -23.866   6.836  0.00  0.00    +0.005 C 
ATOM     19  C   LIG    1       22.564 -22.492   6.170  0.00  0.00    +0.027 C 
ENDBRANCH   1  19
TORSDOF 2
ENDMDL
MODEL 7
REMARK VINA RESULT:      -7.0      1.736      4.019
REMARK  Name = *****
REMARK                            x       y       z     vdW  Elec       q    Type
REMARK                         _______ _______ _______ _____ _____    ______ ____
ROOT
ATOM      1  C   LIG    1       24.629 -21.867   6.444  0.00  0.00    +0.148 C 
ATOM      2  C   LIG    1       24.387 -21.905   4.925  0.00  0.00    +0.242 C 
ATOM      3  O   LIG    1       24.853 -22.807   4.220  0.00  0.00    -0.274 OA
ATOM      4  N   LIG    1       23.689 -20.836   4.375  0.00  0.00    -0.228 N 
ATOM      5  C   LIG    1       23.571 -20.744   2.929  0.00  0.00    +0.143 C 
ATOM      6  C   LIG    1       23.005 -19.886   5.109  0.00  0.00    +0.315 C 
ATOM      7  O   LIG    1       22.336 -18.987   4.608  0.00  0.00    -0.252 OA
ATOM      8  N   LIG    1       23.016 -20.028   6.462  0.00  0.00    -0.239 N 
ATOM      9  H   LIG    1       22.332 -19.466   6.948  0.00  0.00    +0.159 HD
ATOM     10  C   LIG    1       23.479 -21.125   7.125  0.00  0.00    +0.240 C 
ATOM     11  O   LIG    1       23.024 -21.408   8.234  0.00  0.00    -0.274 OA
ENDROOT
BRANCH   1  12
ATOM     12  C   LIG    1       25.978 -21.163   6.772  0.00  0.00    -0.024 A 
ATOM     13  C   LIG    1       26.732 -20.510   5.780  0.00  0.00    +0.005 A 
ATOM     14  C   LIG    1       27.955 -19.904   6.082  0.00  0.00    +0.000 A 
ATOM     15  C   LIG    1       28.460 -19.951   7.377  0.00  0.00    +0.000 A 
ATOM     16  C   LIG    1       27.748 -20.615   8.370  0.00  0.00    +0.000 A 
ATOM     17  C   LIG    1       26.526 -21.222   8.070  0.00  0.00    +0.005 A 
ENDBRANCH   1  12
BRANCH   1  19
ATOM     18  C   LIG    1       23.545 -24.222   6.682  0.00  0.00    +0.005 C 
ATOM     19  C   LIG    1       24.737 -23.319   6.999  0.00  0.00    +0.027 C 
ENDBRANCH   1  19
TORSDOF 2
ENDMDL
MODEL 8
REMARK VINA RESULT:      -6.6      2.384      4.484
REMARK  Name = *****
REMARK                            x       y       z     vdW  Elec       q    Type
REMARK                         _______ _______ _______ _____ _____    ______ ____
ROOT
ATOM      1  C   LIG    1       25.365 -21.789   6.854  0.00  0.00    +0.148 C 
ATOM      2  C   LIG    1       25.582 -23.226   7.359  0.00  0.00    +0.242 C 
ATOM      3  O   LIG    1       25.843 -23.459   8.545  0.00  0.00    -0.274 OA
ATOM      4  N   LIG    1       25.550 -24.237   6.406  0.00  0.00    -0.228 N 
ATOM      5  C   LIG    1       25.906 -25.589   6.805  0.00  0.00    +0.143 C 
ATOM      6  C   LIG    1       25.110 -24.076   5.107  0.00  0.00    +0.315 C 
ATOM      7  O   LIG    1       25.024 -24.993   4.295  0.00  0.00    -0.252 OA
ATOM      8  N   LIG    1       24.670 -22.837   4.755  0.00  0.00    -0.239 N 
ATOM      9  H   LIG    1       24.150 -22.807   3.890  0.00  0.00    +0.159 HD
ATOM     10  C   LIG    1       24.453 -21.813   5.628  0.00  0.00    +0.240 C 
ATOM     11  O   LIG    1       23.621 -20.945   5.359  0.00  0.00    -0.274 OA
ENDROOT
BRANCH   1  12
ATOM     12  C   LIG    1       26.722 -21.120   6.487  0.00  0.00    -0.024 A 
ATOM     13  C   LIG    1       27.926 -21.500   7.108  0.00  0.00    +0.005 A 
ATOM     14  C   LIG    1       29.135 -20.873   6.789  0.00  0.00    +0.000 A 
ATOM     15  C   LIG    1       29.165 -19.844   5.855  0.00  0.00    +0.000 A 
ATOM     16  C   LIG    1       27.985 -19.430   5.248  0.00  0.00    +0.000 A 
ATOM     17  C   LIG    1       26.776 -20.054   5.567  0.00  0.00    +0.005 A 
ENDBRANCH   1  12
BRANCH   1  19
ATOM     18  C   LIG    1       25.720 -20.385   9.017  0.00  0.00    +0.005 C 
ATOM     19  C   LIG    1       24.731 -20.921   7.981  0.00  0.00    +0.027 C 
ENDBRANCH   1  19
TORSDOF 2
ENDMDL
MODEL 9
REMARK VINA RESULT:      -5.7      7.013      9.308
REMARK  Name = *****
REMARK                            x       y       z     vdW  Elec       q    Type
REMARK                         _______ _______ _______ _____ _____    ______ ____
ROOT
ATOM      1  C   LIG    1       24.873 -30.513   7.190  0.00  0.00    +0.148 C 
ATOM      2  C   LIG    1       24.305 -30.457   8.619  0.00  0.00    +0.242 C 
ATOM      3  O   LIG    1       23.100 -30.275   8.827  0.00  0.00    -0.274 OA
ATOM      4  N   LIG    1       25.222 -30.540   9.661  0.00  0.00    -0.228 N 
ATOM      5  C   LIG    1       24.757 -30.333  11.023  0.00  0.00    +0.143 C 
ATOM      6  C   LIG    1       26.546 -30.902   9.512  0.00  0.00    +0.315 C 
ATOM      7  O   LIG    1       27.327 -31.037  10.450  0.00  0.00    -0.252 OA
ATOM      8  N   LIG    1       26.964 -31.206   8.254  0.00  0.00    -0.239 N 
ATOM      9  H   LIG    1       27.855 -31.680   8.211  0.00  0.00    +0.159 HD
ATOM     10  C   LIG    1       26.141 -31.365   7.179  0.00  0.00    +0.240 C 
ATOM     11  O   LIG    1       26.483 -32.097   6.249  0.00  0.00    -0.274 OA
ENDROOT
BRANCH   1  12
ATOM     12  C   LIG    1       25.195 -29.083   6.666  0.00  0.00    -0.024 A 
ATOM     13  C   LIG    1       25.157 -28.772   5.294  0.00  0.00    +0.005 A 
ATOM     14  C   LIG    1       25.475 -27.491   4.833  0.00  0.00    +0.000 A 
ATOM     15  C   LIG    1       25.852 -26.497   5.729  0.00  0.00    +0.000 A 
ATOM     16  C   LIG    1       25.926 -26.787   7.087  0.00  0.00    +0.000 A 
ATOM     17  C   LIG    1       25.611 -28.066   7.549  0.00  0.00    +0.005 A 
ENDBRANCH   1  12
BRANCH   1  19
ATOM     18  C   LIG    1       23.440 -32.572   6.494  0.00  0.00    +0.005 C 
ATOM     19  C   LIG    1       23.810 -31.114   6.222  0.00  0.00    +0.027 C 
ENDBRANCH   1  19
TORSDOF 2
ENDMDL
