MODEL 1
REMARK VINA RESULT:       3.5      0.000      0.000
REMARK  Name = *****
REMARK                            x       y       z     vdW  Elec       q    Type
REMARK                         _______ _______ _______ _____ _____    ______ ____
ROOT
ATOM      1  C   LIG    1       25.927 -15.520   3.659  0.00  0.00    +0.066 A 
ATOM      2  C   LIG    1       24.581 -15.123   3.871  0.00  0.00    +0.042 A 
ATOM      3  I   LIG    1       23.957 -13.115   3.460  0.00  0.00    -0.042 I 
ATOM      4  C   LIG    1       23.591 -16.093   4.224  0.00  0.00    +0.087 A 
ATOM      5  C   LIG    1       23.893 -17.469   4.109  0.00  0.00    +0.051 A 
ATOM      6  I   LIG    1       22.328 -18.945   4.092  0.00  0.00    -0.041 I 
ATOM      7  C   LIG    1       25.205 -17.887   3.846  0.00  0.00    +0.061 A 
ATOM      8  C   LIG    1       26.220 -16.903   3.774  0.00  0.00    +0.049 A 
ATOM      9  I   LIG    1       28.225 -17.538   4.367  0.00  0.00    -0.041 I 
ENDROOT
BRANCH   1  13
ATOM     10  C   LIG    1       28.978 -13.130   3.617  0.00  0.00    +0.128 C 
ATOM     11  N   LIG    1       27.888 -13.999   4.040  0.00  0.00    -0.314 N 
ATOM     12  H   LIG    1       27.717 -14.064   5.033  0.00  0.00    +0.149 HD
ATOM     13  C   LIG    1       27.045 -14.635   3.150  0.00  0.00    +0.246 C 
ATOM     14  O   LIG    1       27.175 -14.493   1.937  0.00  0.00    -0.270 OA
ENDBRANCH   1  13
BRANCH   7  15
ATOM     15  N   LIG    1       25.503 -19.269   3.659  0.00  0.00    -0.284 N 
ATOM     16  H   LIG    1       26.199 -19.503   2.957  0.00  0.00    +0.155 HD
ATOM     17  C   LIG    1       25.455 -20.145   4.741  0.00  0.00    +0.214 C 
ATOM     18  O   LIG    1       25.225 -19.810   5.900  0.00  0.00    -0.276 OA
ATOM     19  C   LIG    1       25.777 -21.572   4.378  0.00  0.00    +0.109 C 
ENDBRANCH   7  15
BRANCH   4  20
ATOM     20  C   LIG    1       22.320 -15.739   4.917  0.00  0.00    +0.339 C 
ATOM     21  O   LIG    1       22.323 -14.985   5.895  0.00  0.00    -0.245 OA
BRANCH  20  22
ATOM     22  O   LIG    1       21.198 -16.308   4.464  0.00  0.00    -0.477 OA
ATOM     23  H   LIG    1       21.130 -17.271   4.620  0.00  0.00    +0.295 HD
ENDBRANCH  20  22
ENDBRANCH   4  20
TORSDOF 4
ENDMDL
MODEL 2
REMARK VINA RESULT:       3.5      2.475      4.950
REMARK  Name = *****
REMARK                            x       y       z     vdW  Elec       q    Type
REMARK                         _______ _______ _______ _____ _____    ______ ____
ROOT
ATOM      1  C   LIG    1       23.930 -18.147   4.021  0.00  0.00    +0.066 A 
ATOM      2  C   LIG    1       24.471 -16.838   3.922  0.00  0.00    +0.042 A 
ATOM      3  I   LIG    1       23.198 -15.119   4.030  0.00  0.00    -0.042 I 
ATOM      4  C   LIG    1       25.888 -16.645   3.892  0.00  0.00    +0.087 A 
ATOM      5  C   LIG    1       26.744 -17.722   4.221  0.00  0.00    +0.051 A 
ATOM      6  I   LIG    1       28.808 -17.377   4.724  0.00  0.00    -0.041 I 
ATOM      7  C   LIG    1       26.227 -19.016   4.379  0.00  0.00    +0.061 A 
ATOM      8  C   LIG    1       24.850 -19.222   4.129  0.00  0.00    +0.049 A 
ATOM      9  I   LIG    1       24.285 -21.204   3.402  0.00  0.00    -0.041 I 
ENDROOT
BRANCH   1  13
ATOM     10  C   LIG    1       20.128 -18.462   3.335  0.00  0.00    +0.128 C 
ATOM     11  N   LIG    1       21.550 -18.165   3.222  0.00  0.00    -0.314 N 
ATOM     12  H   LIG    1       21.841 -17.631   2.416  0.00  0.00    +0.149 HD
ATOM     13  C   LIG    1       22.467 -18.492   4.202  0.00  0.00    +0.246 C 
ATOM     14  O   LIG    1       22.120 -19.058   5.235  0.00  0.00    -0.270 OA
ENDBRANCH   1  13
BRANCH   7  15
ATOM     15  N   LIG    1       27.074 -20.092   4.780  0.00  0.00    -0.284 N 
ATOM     16  H   LIG    1       27.900 -20.265   4.216  0.00  0.00    +0.155 HD
ATOM     17  C   LIG    1       27.218 -20.399   6.130  0.00  0.00    +0.214 C 
ATOM     18  O   LIG    1       26.705 -19.766   7.049  0.00  0.00    -0.276 OA
ATOM     19  C   LIG    1       28.129 -21.571   6.389  0.00  0.00    +0.109 C 
ENDBRANCH   7  15
BRANCH   4  20
ATOM     20  C   LIG    1       26.528 -15.427   3.323  0.00  0.00    +0.339 C 
ATOM     21  O   LIG    1       26.487 -15.200   2.110  0.00  0.00    -0.245 OA
BRANCH  20  22
ATOM     22  O   LIG    1       27.183 -14.627   4.171  0.00  0.00    -0.477 OA
ATOM     23  H   LIG    1       27.742 -13.944   3.749  0.00  0.00    +0.295 HD
ENDBRANCH  20  22
ENDBRANCH   4  20
TORSDOF 4
ENDMDL
MODEL 3
REMARK VINA RESULT:       4.5      2.832      6.473
REMARK  Name = *****
REMARK                            x       y       z     vdW  Elec       q    Type
REMARK                         _______ _______ _______ _____ _____    ______ ____
ROOT
ATOM      1  C   LIG    1       23.205 -17.466   4.201  0.00  0.00    +0.066 A 
ATOM      2  C   LIG    1       24.465 -17.977   3.792  0.00  0.00    +0.042 A 
ATOM      3  I   LIG    1       24.637 -19.966   3.014  0.00  0.00    -0.042 I 
ATOM      4  C   LIG    1       25.612 -17.124   3.760  0.00  0.00    +0.087 A 
ATOM      5  C   LIG    1       25.442 -15.725   3.883  0.00  0.00    +0.051 A 
ATOM      6  I   LIG    1       27.011 -14.369   3.308  0.00  0.00    -0.041 I 
ATOM      7  C   LIG    1       24.194 -15.191   4.232  0.00  0.00    +0.061 A 
ATOM      8  C   LIG    1       23.141 -16.088   4.527  0.00  0.00    +0.049 A 
ATOM      9  I   LIG    1       21.646 -15.385   5.958  0.00  0.00    -0.041 I 
ENDROOT
BRANCH   1  13
ATOM     10  C   LIG    1       19.634 -18.527   3.131  0.00  0.00    +0.128 C 
ATOM     11  N   LIG    1       20.924 -17.858   3.227  0.00  0.00    -0.314 N 
ATOM     12  H   LIG    1       21.068 -17.058   2.628  0.00  0.00    +0.149 HD
ATOM     13  C   LIG    1       21.887 -18.210   4.153  0.00  0.00    +0.246 C 
ATOM     14  O   LIG    1       21.696 -19.119   4.956  0.00  0.00    -0.270 OA
ENDBRANCH   1  13
BRANCH   7  15
ATOM     15  N   LIG    1       23.999 -13.779   4.288  0.00  0.00    -0.284 N 
ATOM     16  H   LIG    1       24.434 -13.282   5.059  0.00  0.00    +0.155 HD
ATOM     17  C   LIG    1       23.892 -13.043   3.110  0.00  0.00    +0.214 C 
ATOM     18  O   LIG    1       24.012 -13.511   1.981  0.00  0.00    -0.276 OA
ATOM     19  C   LIG    1       23.671 -11.570   3.337  0.00  0.00    +0.109 C 
ENDBRANCH   7  15
BRANCH   4  20
ATOM     20  C   LIG    1       27.009 -17.640   3.821  0.00  0.00    +0.339 C 
ATOM     21  O   LIG    1       27.270 -18.684   4.425  0.00  0.00    -0.245 OA
BRANCH  20  22
ATOM     22  O   LIG    1       27.959 -16.901   3.239  0.00  0.00    -0.477 OA
ATOM     23  H   LIG    1       27.642 -16.081   2.810  0.00  0.00    +0.295 HD
ENDBRANCH  20  22
ENDBRANCH   4  20
TORSDOF 4
ENDMDL
MODEL 4
REMARK VINA RESULT:       4.8      2.490      6.125
REMARK  Name = *****
REMARK                            x       y       z     vdW  Elec       q    Type
REMARK                         _______ _______ _______ _____ _____    ______ ____
ROOT
ATOM      1  C   LIG    1       24.538 -18.533   3.949  0.00  0.00    +0.066 A 
ATOM      2  C   LIG    1       25.304 -19.577   4.532  0.00  0.00    +0.042 A 
ATOM      3  I   LIG    1       24.530 -21.572   4.635  0.00  0.00    -0.042 I 
ATOM      4  C   LIG    1       26.657 -19.341   4.930  0.00  0.00    +0.087 A 
ATOM      5  C   LIG    1       27.310 -18.160   4.508  0.00  0.00    +0.051 A 
ATOM      6  I   LIG    1       29.454 -17.993   4.596  0.00  0.00    -0.041 I 
ATOM      7  C   LIG    1       26.588 -17.136   3.879  0.00  0.00    +0.061 A 
ATOM      8  C   LIG    1       25.187 -17.288   3.748  0.00  0.00    +0.049 A 
ATOM      9  I   LIG    1       24.012 -15.445   3.740  0.00  0.00    -0.041 I 
ENDROOT
BRANCH   1  13
ATOM     10  C   LIG    1       20.678 -18.460   3.603  0.00  0.00    +0.128 C 
ATOM     11  N   LIG    1       22.039 -18.343   4.108  0.00  0.00    -0.314 N 
ATOM     12  H   LIG    1       22.145 -18.078   5.076  0.00  0.00    +0.149 HD
ATOM     13  C   LIG    1       23.151 -18.672   3.357  0.00  0.00    +0.246 C 
ATOM     14  O   LIG    1       23.043 -19.089   2.207  0.00  0.00    -0.270 OA
ENDBRANCH   1  13
BRANCH   7  15
ATOM     15  N   LIG    1       27.253 -15.973   3.389  0.00  0.00    -0.284 N 
ATOM     16  H   LIG    1       27.151 -15.763   2.401  0.00  0.00    +0.155 HD
ATOM     17  C   LIG    1       27.397 -14.856   4.208  0.00  0.00    +0.214 C 
ATOM     18  O   LIG    1       26.934 -14.757   5.341  0.00  0.00    -0.276 OA
ATOM     19  C   LIG    1       28.137 -13.719   3.553  0.00  0.00    +0.109 C 
ENDBRANCH   7  15
BRANCH   4  20
ATOM     20  C   LIG    1       27.359 -20.171   5.949  0.00  0.00    +0.339 C 
ATOM     21  O   LIG    1       26.856 -20.366   7.059  0.00  0.00    -0.245 OA
BRANCH  20  22
ATOM     22  O   LIG    1       28.565 -20.648   5.623  0.00  0.00    -0.477 OA
ATOM     23  H   LIG    1       29.143 -20.865   6.382  0.00  0.00    +0.295 HD
ENDBRANCH  20  22
ENDBRANCH   4  20
TORSDOF 4
ENDMDL
MODEL 5
REMARK VINA RESULT:       5.9      2.557      4.678
REMARK  Name = *****
REMARK                            x       y       z     vdW  Elec       q    Type
REMARK                         _______ _______ _______ _____ _____    ______ ____
ROOT
ATOM      1  C   LIG    1       23.761 -17.534   4.075  0.00  0.00    +0.066 A 
ATOM      2  C   LIG    1       23.480 -16.154   4.255  0.00  0.00    +0.042 A 
ATOM      3  I   LIG    1       21.601 -15.518   5.064  0.00  0.00    -0.042 I 
ATOM      4  C   LIG    1       24.500 -15.177   4.032  0.00  0.00    +0.087 A 
ATOM      5  C   LIG    1       25.844 -15.594   3.888  0.00  0.00    +0.051 A 
ATOM      6  I   LIG    1       27.463 -14.192   4.097  0.00  0.00    -0.041 I 
ATOM      7  C   LIG    1       26.154 -16.956   3.764  0.00  0.00    +0.061 A 
ATOM      8  C   LIG    1       25.087 -17.883   3.713  0.00  0.00    +0.049 A 
ATOM      9  I   LIG    1       25.449 -19.710   2.568  0.00  0.00    -0.041 I 
ENDROOT
BRANCH   1  13
ATOM     10  C   LIG    1       22.471 -20.948   5.382  0.00  0.00    +0.128 C 
ATOM     11  N   LIG    1       23.311 -19.808   5.041  0.00  0.00    -0.314 N 
ATOM     12  H   LIG    1       24.300 -19.901   5.222  0.00  0.00    +0.149 HD
ATOM     13  C   LIG    1       22.828 -18.681   4.405  0.00  0.00    +0.246 C 
ATOM     14  O   LIG    1       21.646 -18.585   4.088  0.00  0.00    -0.270 OA
ENDBRANCH   1  13
BRANCH   7  15
ATOM     15  N   LIG    1       27.512 -17.387   3.691  0.00  0.00    -0.284 N 
ATOM     16  H   LIG    1       28.180 -16.744   3.278  0.00  0.00    +0.155 HD
ATOM     17  C   LIG    1       28.036 -18.210   4.684  0.00  0.00    +0.214 C 
ATOM     18  O   LIG    1       27.426 -18.566   5.689  0.00  0.00    -0.276 OA
ATOM     19  C   LIG    1       29.475 -18.593   4.454  0.00  0.00    +0.109 C 
ENDBRANCH   7  15
BRANCH   4  20
ATOM     20  C   LIG    1       24.203 -13.750   3.725  0.00  0.00    +0.339 C 
ATOM     21  O   LIG    1       24.232 -12.893   4.614  0.00  0.00    -0.245 OA
BRANCH  20  22
ATOM     22  O   LIG    1       23.860 -13.454   2.467  0.00  0.00    -0.477 OA
ATOM     23  H   LIG    1       23.507 -12.552   2.334  0.00  0.00    +0.295 HD
ENDBRANCH  20  22
ENDBRANCH   4  20
TORSDOF 4
ENDMDL
