MODEL 1
REMARK VINA RESULT:      -7.7      0.000      0.000
REMARK  Name = *****
REMARK                            x       y       z     vdW  Elec       q    Type
REMARK                         _______ _______ _______ _____ _____    ______ ____
ROOT
ATOM      1  C   LIG    1       27.272 -21.235   7.572  0.00  0.00    +0.234 C 
ATOM      2  N   LIG    1       26.485 -21.703   6.522  0.00  0.00    -0.284 N 
ATOM      3  H   LIG    1       26.769 -21.390   5.603  0.00  0.00    +0.155 HD
ATOM      4  O   LIG    1       27.144 -21.525   8.761  0.00  0.00    -0.274 OA
ENDROOT
BRANCH   2   5
ATOM      5  C   LIG    1       25.416 -22.634   6.586  0.00  0.00    +0.036 A 
ATOM      6  C   LIG    1       24.102 -22.168   6.798  0.00  0.00    -0.029 A 
ATOM      7  C   LIG    1       23.770 -20.709   6.962  0.00  0.00    +0.045 C 
ATOM      8  C   LIG    1       23.027 -23.088   6.803  0.00  0.00    +0.005 A 
ATOM      9  C   LIG    1       23.253 -24.450   6.626  0.00  0.00    +0.000 A 
ATOM     10  C   LIG    1       24.552 -24.912   6.457  0.00  0.00    +0.002 A 
ATOM     11  C   LIG    1       25.621 -24.013   6.440  0.00  0.00    +0.023 A 
ENDBRANCH   2   5
BRANCH   1  12
ATOM     12  C   LIG    1       28.431 -20.326   7.083  0.00  0.00    +0.138 C 
ATOM     13  C   LIG    1       28.176 -19.739   5.689  0.00  0.00    +0.034 C 
BRANCH  12  14
ATOM     14  N   LIG    1       29.749 -21.004   7.222  0.00  0.00    -0.306 NA
ATOM     15  H   LIG    1       29.580 -21.977   7.479  0.00  0.00    +0.123 HD
BRANCH  14  16
ATOM     16  C   LIG    1       30.603 -20.400   8.255  0.00  0.00    +0.081 C 
BRANCH  16  18
ATOM     17  C   LIG    1       30.679 -17.907   8.621  0.00  0.00    +0.005 C 
ATOM     18  C   LIG    1       31.196 -19.068   7.778  0.00  0.00    +0.012 C 
ENDBRANCH  16  18
ENDBRANCH  14  16
ENDBRANCH  12  14
ENDBRANCH   1  12
TORSDOF 5
ENDMDL
MODEL 2
REMARK VINA RESULT:      -7.4      1.513      6.071
REMARK  Name = *****
REMARK                            x       y       z     vdW  Elec       q    Type
REMARK                         _______ _______ _______ _____ _____    ______ ____
ROOT
ATOM      1  C   LIG    1       26.464 -21.413   8.335  0.00  0.00    +0.234 C 
ATOM      2  N   LIG    1       27.561 -21.676   7.517  0.00  0.00    -0.284 N 
ATOM      3  H   LIG    1       27.436 -22.441   6.867  0.00  0.00    +0.155 HD
ATOM      4  O   LIG    1       26.374 -20.504   9.159  0.00  0.00    -0.274 OA
ENDROOT
BRANCH   2   5
ATOM      5  C   LIG    1       28.770 -20.939   7.423  0.00  0.00    +0.036 A 
ATOM      6  C   LIG    1       28.900 -19.941   6.434  0.00  0.00    -0.029 A 
ATOM      7  C   LIG    1       27.803 -19.614   5.456  0.00  0.00    +0.045 C 
ATOM      8  C   LIG    1       30.081 -19.164   6.377  0.00  0.00    +0.005 A 
ATOM      9  C   LIG    1       31.126 -19.388   7.269  0.00  0.00    +0.000 A 
ATOM     10  C   LIG    1       31.013 -20.397   8.217  0.00  0.00    +0.002 A 
ATOM     11  C   LIG    1       29.849 -21.164   8.290  0.00  0.00    +0.023 A 
ENDBRANCH   2   5
BRANCH   1  12
ATOM     12  C   LIG    1       25.275 -22.371   8.055  0.00  0.00    +0.138 C 
ATOM     13  C   LIG    1       25.616 -23.451   7.021  0.00  0.00    +0.034 C 
BRANCH  12  14
ATOM     14  N   LIG    1       24.029 -21.615   7.752  0.00  0.00    -0.306 NA
ATOM     15  H   LIG    1       23.273 -22.288   7.620  0.00  0.00    +0.123 HD
BRANCH  14  16
ATOM     16  C   LIG    1       24.131 -20.798   6.533  0.00  0.00    +0.081 C 
BRANCH  16  18
ATOM     17  C   LIG    1       22.554 -19.451   5.102  0.00  0.00    +0.005 C 
ATOM     18  C   LIG    1       22.815 -20.809   5.744  0.00  0.00    +0.012 C 
ENDBRANCH  16  18
ENDBRANCH  14  16
ENDBRANCH  12  14
ENDBRANCH   1  12
TORSDOF 5
ENDMDL
MODEL 3
REMARK VINA RESULT:      -7.2      2.248      3.067
REMARK  Name = *****
REMARK                            x       y       z     vdW  Elec       q    Type
REMARK                         _______ _______ _______ _____ _____    ______ ____
ROOT
ATOM      1  C   LIG    1       27.892 -19.945   5.748  0.00  0.00    +0.234 C 
ATOM      2  N   LIG    1       26.728 -20.709   5.804  0.00  0.00    -0.284 N 
ATOM      3  H   LIG    1       26.818 -21.588   6.297  0.00  0.00    +0.155 HD
ATOM      4  O   LIG    1       28.003 -18.826   5.247  0.00  0.00    -0.274 OA
ENDROOT
BRANCH   2   5
ATOM      5  C   LIG    1       25.433 -20.352   5.349  0.00  0.00    +0.036 A 
ATOM      6  C   LIG    1       24.318 -20.569   6.185  0.00  0.00    -0.029 A 
ATOM      7  C   LIG    1       24.435 -21.171   7.561  0.00  0.00    +0.045 C 
ATOM      8  C   LIG    1       23.033 -20.159   5.758  0.00  0.00    +0.005 A 
ATOM      9  C   LIG    1       22.852 -19.566   4.511  0.00  0.00    +0.000 A 
ATOM     10  C   LIG    1       23.944 -19.389   3.672  0.00  0.00    +0.002 A 
ATOM     11  C   LIG    1       25.219 -19.780   4.086  0.00  0.00    +0.023 A 
ENDBRANCH   2   5
BRANCH   1  12
ATOM     12  C   LIG    1       29.083 -20.627   6.471  0.00  0.00    +0.138 C 
ATOM     13  C   LIG    1       28.672 -21.296   7.788  0.00  0.00    +0.034 C 
BRANCH  12  14
ATOM     14  N   LIG    1       30.243 -19.703   6.597  0.00  0.00    -0.306 NA
ATOM     15  H   LIG    1       30.889 -19.896   5.831  0.00  0.00    +0.123 HD
BRANCH  14  16
ATOM     16  C   LIG    1       30.975 -19.865   7.862  0.00  0.00    +0.081 C 
BRANCH  16  18
ATOM     17  C   LIG    1       30.278 -17.781   9.097  0.00  0.00    +0.005 C 
ATOM     18  C   LIG    1       31.433 -18.510   8.418  0.00  0.00    +0.012 C 
ENDBRANCH  16  18
ENDBRANCH  14  16
ENDBRANCH  12  14
ENDBRANCH   1  12
TORSDOF 5
ENDMDL
MODEL 4
REMARK VINA RESULT:      -7.1      1.479      6.260
REMARK  Name = *****
REMARK                            x       y       z     vdW  Elec       q    Type
REMARK                         _______ _______ _______ _____ _____    ______ ____
ROOT
ATOM      1  C   LIG    1       26.150 -20.623   6.826  0.00  0.00    +0.234 C 
ATOM      2  N   LIG    1       27.399 -20.745   6.220  0.00  0.00    -0.284 N 
ATOM      3  H   LIG    1       27.375 -20.977   5.236  0.00  0.00    +0.155 HD
ATOM      4  O   LIG    1       25.937 -20.300   7.994  0.00  0.00    -0.274 OA
ENDROOT
BRANCH   2   5
ATOM      5  C   LIG    1       28.670 -20.481   6.793  0.00  0.00    +0.036 A 
ATOM      6  C   LIG    1       29.411 -19.364   6.355  0.00  0.00    -0.029 A 
ATOM      7  C   LIG    1       28.914 -18.421   5.291  0.00  0.00    +0.045 C 
ATOM      8  C   LIG    1       30.652 -19.065   6.966  0.00  0.00    +0.005 A 
ATOM      9  C   LIG    1       31.161 -19.874   7.978  0.00  0.00    +0.000 A 
ATOM     10  C   LIG    1       30.449 -20.995   8.382  0.00  0.00    +0.002 A 
ATOM     11  C   LIG    1       29.219 -21.296   7.793  0.00  0.00    +0.023 A 
ENDBRANCH   2   5
BRANCH   1  12
ATOM     12  C   LIG    1       24.984 -20.873   5.832  0.00  0.00    +0.138 C 
ATOM     13  C   LIG    1       23.606 -20.654   6.468  0.00  0.00    +0.034 C 
BRANCH  12  14
ATOM     14  N   LIG    1       25.131 -22.185   5.143  0.00  0.00    -0.306 NA
ATOM     15  H   LIG    1       24.525 -22.182   4.321  0.00  0.00    +0.123 HD
BRANCH  14  16
ATOM     16  C   LIG    1       24.750 -23.327   5.987  0.00  0.00    +0.081 C 
BRANCH  16  18
ATOM     17  C   LIG    1       24.261 -25.799   5.967  0.00  0.00    +0.005 C 
ATOM     18  C   LIG    1       24.988 -24.658   5.263  0.00  0.00    +0.012 C 
ENDBRANCH  16  18
ENDBRANCH  14  16
ENDBRANCH  12  14
ENDBRANCH   1  12
TORSDOF 5
ENDMDL
MODEL 5
REMARK VINA RESULT:      -7.0      2.463      3.157
REMARK  Name = *****
REMARK                            x       y       z     vdW  Elec       q    Type
REMARK                         _______ _______ _______ _____ _____    ______ ____
ROOT
ATOM      1  C   LIG    1       28.873 -19.485   6.262  0.00  0.00    +0.234 C 
ATOM      2  N   LIG    1       27.907 -20.380   6.718  0.00  0.00    -0.284 N 
ATOM      3  H   LIG    1       28.217 -21.008   7.448  0.00  0.00    +0.155 HD
ATOM      4  O   LIG    1       28.707 -18.603   5.421  0.00  0.00    -0.274 OA
ENDROOT
BRANCH   2   5
ATOM      5  C   LIG    1       26.537 -20.436   6.355  0.00  0.00    +0.036 A 
ATOM      6  C   LIG    1       25.564 -20.683   7.347  0.00  0.00    -0.029 A 
ATOM      7  C   LIG    1       25.913 -20.894   8.796  0.00  0.00    +0.045 C 
ATOM      8  C   LIG    1       24.193 -20.680   6.998  0.00  0.00    +0.005 A 
ATOM      9  C   LIG    1       23.793 -20.461   5.682  0.00  0.00    +0.000 A 
ATOM     10  C   LIG    1       24.752 -20.258   4.700  0.00  0.00    +0.002 A 
ATOM     11  C   LIG    1       26.109 -20.248   5.033  0.00  0.00    +0.023 A 
ENDBRANCH   2   5
BRANCH   1  12
ATOM     12  C   LIG    1       30.230 -19.657   6.994  0.00  0.00    +0.138 C 
ATOM     13  C   LIG    1       30.183 -20.736   8.084  0.00  0.00    +0.034 C 
BRANCH  12  14
ATOM     14  N   LIG    1       30.765 -18.349   7.461  0.00  0.00    -0.306 NA
ATOM     15  H   LIG    1       31.779 -18.433   7.549  0.00  0.00    +0.123 HD
BRANCH  14  16
ATOM     16  C   LIG    1       30.226 -17.937   8.766  0.00  0.00    +0.081 C 
BRANCH  16  18
ATOM     17  C   LIG    1       30.783 -16.881  10.985  0.00  0.00    +0.005 C 
ATOM     18  C   LIG    1       31.350 -17.541   9.732  0.00  0.00    +0.012 C 
ENDBRANCH  16  18
ENDBRANCH  14  16
ENDBRANCH  12  14
ENDBRANCH   1  12
TORSDOF 5
ENDMDL
MODEL 6
REMARK VINA RESULT:      -6.9      1.917      5.982
REMARK  Name = *****
REMARK                            x       y       z     vdW  Elec       q    Type
REMARK                         _______ _______ _______ _____ _____    ______ ____
ROOT
ATOM      1  C   LIG    1       24.582 -21.513   7.191  0.00  0.00    +0.234 C 
ATOM      2  N   LIG    1       25.746 -21.755   6.463  0.00  0.00    -0.284 N 
ATOM      3  H   LIG    1       25.628 -22.349   5.654  0.00  0.00    +0.155 HD
ATOM      4  O   LIG    1       24.479 -20.784   8.176  0.00  0.00    -0.274 OA
ENDROOT
BRANCH   2   5
ATOM      5  C   LIG    1       27.030 -21.186   6.667  0.00  0.00    +0.036 A 
ATOM      6  C   LIG    1       27.468 -20.140   5.829  0.00  0.00    -0.029 A 
ATOM      7  C   LIG    1       26.627 -19.586   4.709  0.00  0.00    +0.045 C 
ATOM      8  C   LIG    1       28.722 -19.531   6.068  0.00  0.00    +0.005 A 
ATOM      9  C   LIG    1       29.541 -19.969   7.105  0.00  0.00    +0.000 A 
ATOM     10  C   LIG    1       29.127 -21.025   7.905  0.00  0.00    +0.002 A 
ATOM     11  C   LIG    1       27.886 -21.628   7.686  0.00  0.00    +0.023 A 
ENDBRANCH   2   5
BRANCH   1  12
ATOM     12  C   LIG    1       23.345 -22.223   6.579  0.00  0.00    +0.138 C 
ATOM     13  C   LIG    1       23.355 -23.738   6.813  0.00  0.00    +0.034 C 
BRANCH  12  14
ATOM     14  N   LIG    1       23.143 -21.832   5.156  0.00  0.00    -0.306 NA
ATOM     15  H   LIG    1       24.003 -21.394   4.822  0.00  0.00    +0.123 HD
BRANCH  14  16
ATOM     16  C   LIG    1       22.041 -20.877   4.970  0.00  0.00    +0.081 C 
BRANCH  16  18
ATOM     17  C   LIG    1       23.151 -18.866   3.934  0.00  0.00    +0.005 C 
ATOM     18  C   LIG    1       22.511 -19.434   5.196  0.00  0.00    +0.012 C 
ENDBRANCH  16  18
ENDBRANCH  14  16
ENDBRANCH  12  14
ENDBRANCH   1  12
TORSDOF 5
ENDMDL
MODEL 7
REMARK VINA RESULT:      -6.9      1.017      2.130
REMARK  Name = *****
REMARK                            x       y       z     vdW  Elec       q    Type
REMARK                         _______ _______ _______ _____ _____    ______ ____
ROOT
ATOM      1  C   LIG    1       27.476 -21.318   7.628  0.00  0.00    +0.234 C 
ATOM      2  N   LIG    1       26.681 -21.678   6.542  0.00  0.00    -0.284 N 
ATOM      3  H   LIG    1       27.165 -21.724   5.655  0.00  0.00    +0.155 HD
ATOM      4  O   LIG    1       27.113 -21.248   8.802  0.00  0.00    -0.274 OA
ENDROOT
BRANCH   2   5
ATOM      5  C   LIG    1       25.320 -22.079   6.559  0.00  0.00    +0.036 A 
ATOM      6  C   LIG    1       25.001 -23.448   6.677  0.00  0.00    -0.029 A 
ATOM      7  C   LIG    1       26.049 -24.523   6.788  0.00  0.00    +0.045 C 
ATOM      8  C   LIG    1       23.645 -23.846   6.754  0.00  0.00    +0.005 A 
ATOM      9  C   LIG    1       22.621 -22.905   6.689  0.00  0.00    +0.000 A 
ATOM     10  C   LIG    1       22.935 -21.562   6.533  0.00  0.00    +0.002 A 
ATOM     11  C   LIG    1       24.269 -21.155   6.466  0.00  0.00    +0.023 A 
ENDBRANCH   2   5
BRANCH   1  12
ATOM     12  C   LIG    1       28.953 -21.069   7.223  0.00  0.00    +0.138 C 
ATOM     13  C   LIG    1       29.947 -21.528   8.296  0.00  0.00    +0.034 C 
BRANCH  12  14
ATOM     14  N   LIG    1       29.161 -19.669   6.764  0.00  0.00    -0.306 NA
ATOM     15  H   LIG    1       29.072 -19.650   5.747  0.00  0.00    +0.123 HD
BRANCH  14  16
ATOM     16  C   LIG    1       30.486 -19.137   7.115  0.00  0.00    +0.081 C 
BRANCH  16  18
ATOM     17  C   LIG    1       31.754 -17.812   8.844  0.00  0.00    +0.005 C 
ATOM     18  C   LIG    1       30.386 -18.084   8.227  0.00  0.00    +0.012 C 
ENDBRANCH  16  18
ENDBRANCH  14  16
ENDBRANCH  12  14
ENDBRANCH   1  12
TORSDOF 5
ENDMDL
MODEL 8
REMARK VINA RESULT:      -6.9      3.702      6.357
REMARK  Name = *****
REMARK                            x       y       z     vdW  Elec       q    Type
REMARK                         _______ _______ _______ _____ _____    ______ ____
ROOT
ATOM      1  C   LIG    1       23.803 -22.560   6.804  0.00  0.00    +0.234 C 
ATOM      2  N   LIG    1       23.992 -22.062   5.516  0.00  0.00    -0.284 N 
ATOM      3  H   LIG    1       24.437 -22.702   4.872  0.00  0.00    +0.155 HD
ATOM      4  O   LIG    1       23.242 -21.979   7.732  0.00  0.00    -0.274 OA
ENDROOT
BRANCH   2   5
ATOM      5  C   LIG    1       23.544 -20.822   4.992  0.00  0.00    +0.036 A 
ATOM      6  C   LIG    1       24.487 -19.891   4.509  0.00  0.00    -0.029 A 
ATOM      7  C   LIG    1       25.971 -20.150   4.523  0.00  0.00    +0.045 C 
ATOM      8  C   LIG    1       24.040 -18.680   3.930  0.00  0.00    +0.005 A 
ATOM      9  C   LIG    1       22.682 -18.385   3.853  0.00  0.00    +0.000 A 
ATOM     10  C   LIG    1       21.756 -19.284   4.365  0.00  0.00    +0.002 A 
ATOM     11  C   LIG    1       22.184 -20.488   4.929  0.00  0.00    +0.023 A 
ENDBRANCH   2   5
BRANCH   1  12
ATOM     12  C   LIG    1       24.325 -24.013   6.958  0.00  0.00    +0.138 C 
ATOM     13  C   LIG    1       25.847 -24.116   6.798  0.00  0.00    +0.034 C 
BRANCH  12  14
ATOM     14  N   LIG    1       23.561 -24.958   6.099  0.00  0.00    -0.306 NA
ATOM     15  H   LIG    1       22.912 -25.475   6.694  0.00  0.00    +0.123 HD
BRANCH  14  16
ATOM     16  C   LIG    1       24.418 -25.931   5.405  0.00  0.00    +0.081 C 
BRANCH  16  18
ATOM     17  C   LIG    1       25.504 -27.695   6.841  0.00  0.00    +0.005 C 
ATOM     18  C   LIG    1       24.275 -27.332   6.013  0.00  0.00    +0.012 C 
ENDBRANCH  16  18
ENDBRANCH  14  16
ENDBRANCH  12  14
ENDBRANCH   1  12
TORSDOF 5
ENDMDL
MODEL 9
REMARK VINA RESULT:      -6.9      1.860      2.515
REMARK  Name = *****
REMARK                            x       y       z     vdW  Elec       q    Type
REMARK                         _______ _______ _______ _____ _____    ______ ____
ROOT
ATOM      1  C   LIG    1       27.641 -20.399   7.344  0.00  0.00    +0.234 C 
ATOM      2  N   LIG    1       26.869 -20.655   6.213  0.00  0.00    -0.284 N 
ATOM      3  H   LIG    1       27.392 -20.925   5.390  0.00  0.00    +0.155 HD
ATOM      4  O   LIG    1       27.218 -20.107   8.461  0.00  0.00    -0.274 OA
ENDROOT
BRANCH   2   5
ATOM      5  C   LIG    1       25.453 -20.681   6.117  0.00  0.00    +0.036 A 
ATOM      6  C   LIG    1       24.824 -20.145   4.974  0.00  0.00    -0.029 A 
ATOM      7  C   LIG    1       25.592 -19.536   3.830  0.00  0.00    +0.045 C 
ATOM      8  C   LIG    1       23.417 -20.224   4.848  0.00  0.00    +0.005 A 
ATOM      9  C   LIG    1       22.643 -20.802   5.851  0.00  0.00    +0.000 A 
ATOM     10  C   LIG    1       23.260 -21.293   6.994  0.00  0.00    +0.002 A 
ATOM     11  C   LIG    1       24.649 -21.231   7.125  0.00  0.00    +0.023 A 
ENDBRANCH   2   5
BRANCH   1  12
ATOM     12  C   LIG    1       29.158 -20.594   7.080  0.00  0.00    +0.138 C 
ATOM     13  C   LIG    1       29.832 -21.486   8.129  0.00  0.00    +0.034 C 
BRANCH  12  14
ATOM     14  N   LIG    1       29.843 -19.290   6.864  0.00  0.00    -0.306 NA
ATOM     15  H   LIG    1       29.878 -19.111   5.859  0.00  0.00    +0.123 HD
BRANCH  14  16
ATOM     16  C   LIG    1       31.220 -19.268   7.380  0.00  0.00    +0.081 C 
BRANCH  16  18
ATOM     17  C   LIG    1       30.203 -17.883   9.223  0.00  0.00    +0.005 C 
ATOM     18  C   LIG    1       31.433 -18.096   8.347  0.00  0.00    +0.012 C 
ENDBRANCH  16  18
ENDBRANCH  14  16
ENDBRANCH  12  14
ENDBRANCH   1  12
TORSDOF 5
ENDMDL
