MODEL 1
REMARK VINA RESULT:      -9.7      0.000      0.000
REMARK  Name = *****
REMARK                            x       y       z     vdW  Elec       q    Type
REMARK                         _______ _______ _______ _____ _____    ______ ____
ROOT
ATOM      1  C   LIG    1       28.022 -20.308   6.790  0.00  0.00    -0.015 A 
ATOM      2  C   LIG    1       28.086 -19.472   5.670  0.00  0.00    -0.043 A 
ATOM      3  C   LIG    1       29.308 -18.657   5.348  0.00  0.00    +0.044 C 
ATOM      4  C   LIG    1       26.962 -19.380   4.834  0.00  0.00    +0.008 A 
ATOM      5  C   LIG    1       25.776 -20.116   5.062  0.00  0.00    -0.038 A 
ATOM      6  C   LIG    1       24.607 -19.967   4.077  0.00  0.00    -0.009 C 
ATOM      7  C   LIG    1       23.542 -21.068   4.279  0.00  0.00    +0.012 C 
ATOM      8  C   LIG    1       23.224 -21.291   5.748  0.00  0.00    +0.012 C 
ATOM      9  C   LIG    1       24.459 -21.773   6.541  0.00  0.00    -0.009 C 
ATOM     10  C   LIG    1       24.758 -23.251   6.201  0.00  0.00    +0.016 C 
ATOM     11  C   LIG    1       24.077 -21.688   8.037  0.00  0.00    +0.016 C 
ATOM     12  C   LIG    1       23.963 -18.578   4.278  0.00  0.00    +0.016 C 
ATOM     13  C   LIG    1       25.076 -20.080   2.607  0.00  0.00    +0.016 C 
ATOM     14  C   LIG    1       25.702 -20.936   6.210  0.00  0.00    -0.037 A 
ATOM     15  C   LIG    1       26.837 -21.018   7.049  0.00  0.00    +0.013 A 
ENDROOT
BRANCH   1  17
ATOM     16  C   LIG    1       29.508 -21.746   7.988  0.00  0.00    +0.018 C 
ATOM     17  C   LIG    1       29.166 -20.468   7.726  0.00  0.00    -0.018 C 
BRANCH  17  18
ATOM     18  C   LIG    1       29.944 -19.336   8.309  0.00  0.00    -0.018 A 
ATOM     19  C   LIG    1       31.313 -19.196   8.026  0.00  0.00    +0.009 A 
ATOM     20  C   LIG    1       32.064 -18.146   8.570  0.00  0.00    +0.015 A 
ATOM     21  C   LIG    1       31.452 -17.201   9.398  0.00  0.00    +0.059 A 
ATOM     22  C   LIG    1       30.090 -17.320   9.686  0.00  0.00    +0.015 A 
ATOM     23  C   LIG    1       29.345 -18.367   9.132  0.00  0.00    +0.009 A 
BRANCH  21  24
ATOM     24  C   LIG    1       32.283 -16.114   9.976  0.00  0.00    +0.337 C 
ATOM     25  O   LIG    1       32.316 -15.866  11.171  0.00  0.00    -0.245 OA
BRANCH  24  26
ATOM     26  O   LIG    1       33.024 -15.448   9.066  0.00  0.00    -0.477 OA
ATOM     27  H   LIG    1       33.984 -15.445   9.235  0.00  0.00    +0.295 HD
ENDBRANCH  24  26
ENDBRANCH  21  24
ENDBRANCH  17  18
ENDBRANCH   1  17
TORSDOF 4
ENDMDL
MODEL 2
REMARK VINA RESULT:      -9.6      6.737     10.056
REMARK  Name = *****
REMARK                            x       y       z     vdW  Elec       q    Type
REMARK                         _______ _______ _______ _____ _____    ______ ____
ROOT
ATOM      1  C   LIG    1       25.555 -27.827   7.261  0.00  0.00    -0.015 A 
ATOM      2  C   LIG    1       24.665 -28.776   6.748  0.00  0.00    -0.043 A 
ATOM      3  C   LIG    1       24.033 -28.628   5.392  0.00  0.00    +0.044 C 
ATOM      4  C   LIG    1       24.339 -29.891   7.537  0.00  0.00    +0.008 A 
ATOM      5  C   LIG    1       24.894 -30.108   8.820  0.00  0.00    -0.038 A 
ATOM      6  C   LIG    1       24.494 -31.370   9.598  0.00  0.00    -0.009 C 
ATOM      7  C   LIG    1       25.425 -31.619  10.806  0.00  0.00    +0.012 C 
ATOM      8  C   LIG    1       25.696 -30.344  11.588  0.00  0.00    +0.012 C 
ATOM      9  C   LIG    1       26.420 -29.282  10.732  0.00  0.00    -0.009 C 
ATOM     10  C   LIG    1       27.899 -29.684  10.535  0.00  0.00    +0.016 C 
ATOM     11  C   LIG    1       26.380 -27.966  11.543  0.00  0.00    +0.016 C 
ATOM     12  C   LIG    1       23.038 -31.212  10.088  0.00  0.00    +0.016 C 
ATOM     13  C   LIG    1       24.578 -32.640   8.717  0.00  0.00    +0.016 C 
ATOM     14  C   LIG    1       25.769 -29.134   9.350  0.00  0.00    -0.037 A 
ATOM     15  C   LIG    1       26.087 -28.013   8.550  0.00  0.00    +0.013 A 
ENDROOT
BRANCH   1  17
ATOM     16  C   LIG    1       26.948 -26.821   5.601  0.00  0.00    +0.018 C 
ATOM     17  C   LIG    1       25.958 -26.619   6.493  0.00  0.00    -0.018 C 
BRANCH  17  18
ATOM     18  C   LIG    1       25.308 -25.282   6.622  0.00  0.00    -0.018 A 
ATOM     19  C   LIG    1       23.919 -25.150   6.456  0.00  0.00    +0.009 A 
ATOM     20  C   LIG    1       23.290 -23.904   6.563  0.00  0.00    +0.015 A 
ATOM     21  C   LIG    1       24.039 -22.762   6.860  0.00  0.00    +0.059 A 
ATOM     22  C   LIG    1       25.421 -22.874   7.034  0.00  0.00    +0.015 A 
ATOM     23  C   LIG    1       26.041 -24.125   6.934  0.00  0.00    +0.009 A 
BRANCH  21  24
ATOM     24  C   LIG    1       23.343 -21.453   6.944  0.00  0.00    +0.337 C 
ATOM     25  O   LIG    1       23.454 -20.701   7.899  0.00  0.00    -0.245 OA
BRANCH  24  26
ATOM     26  O   LIG    1       22.606 -21.153   5.854  0.00  0.00    -0.477 OA
ATOM     27  H   LIG    1       23.017 -21.379   5.000  0.00  0.00    +0.295 HD
ENDBRANCH  24  26
ENDBRANCH  21  24
ENDBRANCH  17  18
ENDBRANCH   1  17
TORSDOF 4
ENDMDL
MODEL 3
REMARK VINA RESULT:      -8.1      0.955      3.074
REMARK  Name = *****
REMARK                            x       y       z     vdW  Elec       q    Type
REMARK                         _______ _______ _______ _____ _____    ______ ____
ROOT
ATOM      1  C   LIG    1       28.152 -19.953   6.271  0.00  0.00    -0.015 A 
ATOM      2  C   LIG    1       27.947 -21.001   7.175  0.00  0.00    -0.043 A 
ATOM      3  C   LIG    1       28.974 -21.381   8.206  0.00  0.00    +0.044 C 
ATOM      4  C   LIG    1       26.751 -21.733   7.097  0.00  0.00    +0.008 A 
ATOM      5  C   LIG    1       25.733 -21.438   6.162  0.00  0.00    -0.038 A 
ATOM      6  C   LIG    1       24.449 -22.280   6.170  0.00  0.00    -0.009 C 
ATOM      7  C   LIG    1       23.328 -21.626   5.331  0.00  0.00    +0.012 C 
ATOM      8  C   LIG    1       23.842 -21.109   3.998  0.00  0.00    +0.012 C 
ATOM      9  C   LIG    1       24.908 -20.005   4.178  0.00  0.00    -0.009 C 
ATOM     10  C   LIG    1       24.233 -18.689   4.627  0.00  0.00    +0.016 C 
ATOM     11  C   LIG    1       25.537 -19.774   2.784  0.00  0.00    +0.016 C 
ATOM     12  C   LIG    1       24.770 -23.682   5.607  0.00  0.00    +0.016 C 
ATOM     13  C   LIG    1       23.880 -22.447   7.599  0.00  0.00    +0.016 C 
ATOM     14  C   LIG    1       25.954 -20.399   5.230  0.00  0.00    -0.037 A 
ATOM     15  C   LIG    1       27.163 -19.671   5.312  0.00  0.00    +0.013 A 
ENDROOT
BRANCH   1  17
ATOM     16  C   LIG    1       29.861 -18.798   5.065  0.00  0.00    +0.018 C 
ATOM     17  C   LIG    1       29.387 -19.124   6.284  0.00  0.00    -0.018 C 
BRANCH  17  18
ATOM     18  C   LIG    1       30.052 -18.620   7.521  0.00  0.00    -0.018 A 
ATOM     19  C   LIG    1       29.289 -18.046   8.552  0.00  0.00    +0.009 A 
ATOM     20  C   LIG    1       29.892 -17.558   9.717  0.00  0.00    +0.015 A 
ATOM     21  C   LIG    1       31.277 -17.652   9.884  0.00  0.00    +0.059 A 
ATOM     22  C   LIG    1       32.052 -18.225   8.872  0.00  0.00    +0.015 A 
ATOM     23  C   LIG    1       31.440 -18.719   7.714  0.00  0.00    +0.009 A 
BRANCH  21  24
ATOM     24  C   LIG    1       31.887 -17.105  11.122  0.00  0.00    +0.337 C 
ATOM     25  O   LIG    1       33.025 -17.371  11.477  0.00  0.00    -0.245 OA
BRANCH  24  26
ATOM     26  O   LIG    1       31.084 -16.257  11.799  0.00  0.00    -0.477 OA
ATOM     27  H   LIG    1       31.496 -15.820  12.566  0.00  0.00    +0.295 HD
ENDBRANCH  24  26
ENDBRANCH  21  24
ENDBRANCH  17  18
ENDBRANCH   1  17
TORSDOF 4
ENDMDL
MODEL 4
REMARK VINA RESULT:      -7.4      6.097      9.002
REMARK  Name = *****
REMARK                            x       y       z     vdW  Elec       q    Type
REMARK                         _______ _______ _______ _____ _____    ______ ____
ROOT
ATOM      1  C   LIG    1       25.727 -25.518   6.340  0.00  0.00    -0.015 A 
ATOM      2  C   LIG    1       24.585 -25.414   5.537  0.00  0.00    -0.043 A 
ATOM      3  C   LIG    1       23.990 -26.603   4.836  0.00  0.00    +0.044 C 
ATOM      4  C   LIG    1       23.993 -24.152   5.369  0.00  0.00    +0.008 A 
ATOM      5  C   LIG    1       24.486 -22.985   5.998  0.00  0.00    -0.038 A 
ATOM      6  C   LIG    1       23.755 -21.654   5.772  0.00  0.00    -0.009 C 
ATOM      7  C   LIG    1       24.212 -20.571   6.775  0.00  0.00    +0.012 C 
ATOM      8  C   LIG    1       25.723 -20.546   6.937  0.00  0.00    +0.012 C 
ATOM      9  C   LIG    1       26.266 -21.876   7.504  0.00  0.00    -0.009 C 
ATOM     10  C   LIG    1       25.930 -21.983   9.009  0.00  0.00    +0.016 C 
ATOM     11  C   LIG    1       27.804 -21.819   7.355  0.00  0.00    +0.016 C 
ATOM     12  C   LIG    1       24.029 -21.175   4.329  0.00  0.00    +0.016 C 
ATOM     13  C   LIG    1       22.226 -21.799   5.956  0.00  0.00    +0.016 C 
ATOM     14  C   LIG    1       25.656 -23.086   6.783  0.00  0.00    -0.037 A 
ATOM     15  C   LIG    1       26.249 -24.359   6.942  0.00  0.00    +0.013 A 
ENDROOT
BRANCH   1  17
ATOM     16  C   LIG    1       27.501 -27.026   5.803  0.00  0.00    +0.018 C 
ATOM     17  C   LIG    1       26.416 -26.814   6.575  0.00  0.00    -0.018 C 
BRANCH  17  18
ATOM     18  C   LIG    1       26.012 -27.808   7.613  0.00  0.00    -0.018 A 
ATOM     19  C   LIG    1       26.631 -27.806   8.875  0.00  0.00    +0.009 A 
ATOM     20  C   LIG    1       26.274 -28.734   9.860  0.00  0.00    +0.015 A 
ATOM     21  C   LIG    1       25.274 -29.677   9.608  0.00  0.00    +0.059 A 
ATOM     22  C   LIG    1       24.643 -29.691   8.361  0.00  0.00    +0.015 A 
ATOM     23  C   LIG    1       24.999 -28.753   7.384  0.00  0.00    +0.009 A 
BRANCH  21  24
ATOM     24  C   LIG    1       24.936 -30.662  10.667  0.00  0.00    +0.337 C 
ATOM     25  O   LIG    1       23.817 -30.768  11.144  0.00  0.00    -0.245 OA
BRANCH  24  26
ATOM     26  O   LIG    1       25.968 -31.453  11.028  0.00  0.00    -0.477 OA
ATOM     27  H   LIG    1       26.317 -31.296  11.924  0.00  0.00    +0.295 HD
ENDBRANCH  24  26
ENDBRANCH  21  24
ENDBRANCH  17  18
ENDBRANCH   1  17
TORSDOF 4
ENDMDL
MODEL 5
REMARK VINA RESULT:      -7.3      6.145      9.069
REMARK  Name = *****
REMARK                            x       y       z     vdW  Elec       q    Type
REMARK                         _______ _______ _______ _____ _____    ______ ____
ROOT
ATOM      1  C   LIG    1       25.749 -25.493   6.295  0.00  0.00    -0.015 A 
ATOM      2  C   LIG    1       24.632 -25.379   5.461  0.00  0.00    -0.043 A 
ATOM      3  C   LIG    1       24.047 -26.562   4.741  0.00  0.00    +0.044 C 
ATOM      4  C   LIG    1       24.055 -24.112   5.277  0.00  0.00    +0.008 A 
ATOM      5  C   LIG    1       24.540 -22.950   5.921  0.00  0.00    -0.038 A 
ATOM      6  C   LIG    1       23.827 -21.611   5.676  0.00  0.00    -0.009 C 
ATOM      7  C   LIG    1       24.265 -20.533   6.693  0.00  0.00    +0.012 C 
ATOM      8  C   LIG    1       25.771 -20.521   6.898  0.00  0.00    +0.012 C 
ATOM      9  C   LIG    1       26.286 -21.857   7.479  0.00  0.00    -0.009 C 
ATOM     10  C   LIG    1       25.907 -21.962   8.973  0.00  0.00    +0.016 C 
ATOM     11  C   LIG    1       27.828 -21.812   7.373  0.00  0.00    +0.016 C 
ATOM     12  C   LIG    1       24.146 -21.134   4.242  0.00  0.00    +0.016 C 
ATOM     13  C   LIG    1       22.292 -21.744   5.817  0.00  0.00    +0.016 C 
ATOM     14  C   LIG    1       25.687 -23.061   6.739  0.00  0.00    -0.037 A 
ATOM     15  C   LIG    1       26.264 -24.339   6.913  0.00  0.00    +0.013 A 
ENDROOT
BRANCH   1  17
ATOM     16  C   LIG    1       27.536 -27.007   5.821  0.00  0.00    +0.018 C 
ATOM     17  C   LIG    1       26.421 -26.795   6.549  0.00  0.00    -0.018 C 
BRANCH  17  18
ATOM     18  C   LIG    1       25.968 -27.795   7.560  0.00  0.00    -0.018 A 
ATOM     19  C   LIG    1       24.913 -28.674   7.264  0.00  0.00    +0.009 A 
ATOM     20  C   LIG    1       24.465 -29.614   8.201  0.00  0.00    +0.015 A 
ATOM     21  C   LIG    1       25.080 -29.705   9.453  0.00  0.00    +0.059 A 
ATOM     22  C   LIG    1       26.135 -28.842   9.764  0.00  0.00    +0.015 A 
ATOM     23  C   LIG    1       26.582 -27.912   8.818  0.00  0.00    +0.009 A 
BRANCH  21  24
ATOM     24  C   LIG    1       24.566 -30.696  10.431  0.00  0.00    +0.337 C 
ATOM     25  O   LIG    1       24.096 -30.381  11.514  0.00  0.00    -0.245 OA
BRANCH  24  26
ATOM     26  O   LIG    1       24.631 -31.974  10.002  0.00  0.00    -0.477 OA
ATOM     27  H   LIG    1       24.794 -32.637  10.696  0.00  0.00    +0.295 HD
ENDBRANCH  24  26
ENDBRANCH  21  24
ENDBRANCH  17  18
ENDBRANCH   1  17
TORSDOF 4
ENDMDL
MODEL 6
REMARK VINA RESULT:      -7.2      8.892     12.121
REMARK  Name = *****
REMARK                            x       y       z     vdW  Elec       q    Type
REMARK                         _______ _______ _______ _____ _____    ______ ____
ROOT
ATOM      1  C   LIG    1       23.831 -29.480  11.234  0.00  0.00    -0.015 A 
ATOM      2  C   LIG    1       22.502 -29.917  11.252  0.00  0.00    -0.043 A 
ATOM      3  C   LIG    1       21.962 -30.877  10.230  0.00  0.00    +0.044 C 
ATOM      4  C   LIG    1       21.645 -29.423  12.248  0.00  0.00    +0.008 A 
ATOM      5  C   LIG    1       22.074 -28.522  13.250  0.00  0.00    -0.038 A 
ATOM      6  C   LIG    1       21.068 -28.056  14.313  0.00  0.00    -0.009 C 
ATOM      7  C   LIG    1       21.768 -27.357  15.499  0.00  0.00    +0.012 C 
ATOM      8  C   LIG    1       22.833 -26.377  15.036  0.00  0.00    +0.012 C 
ATOM      9  C   LIG    1       23.965 -27.080  14.256  0.00  0.00    -0.009 C 
ATOM     10  C   LIG    1       24.867 -27.868  15.233  0.00  0.00    +0.016 C 
ATOM     11  C   LIG    1       24.814 -25.958  13.613  0.00  0.00    +0.016 C 
ATOM     12  C   LIG    1       20.065 -27.083  13.654  0.00  0.00    +0.016 C 
ATOM     13  C   LIG    1       20.275 -29.241  14.912  0.00  0.00    +0.016 C 
ATOM     14  C   LIG    1       23.408 -28.057  13.212  0.00  0.00    -0.037 A 
ATOM     15  C   LIG    1       24.262 -28.556  12.202  0.00  0.00    +0.013 A 
ENDROOT
BRANCH   1  17
ATOM     16  C   LIG    1       25.392 -31.134  10.503  0.00  0.00    +0.018 C 
ATOM     17  C   LIG    1       24.808 -29.953  10.218  0.00  0.00    -0.018 C 
BRANCH  17  18
ATOM     18  C   LIG    1       25.108 -29.243   8.941  0.00  0.00    -0.018 A 
ATOM     19  C   LIG    1       26.164 -28.318   8.875  0.00  0.00    +0.009 A 
ATOM     20  C   LIG    1       26.457 -27.633   7.689  0.00  0.00    +0.015 A 
ATOM     21  C   LIG    1       25.707 -27.874   6.535  0.00  0.00    +0.059 A 
ATOM     22  C   LIG    1       24.657 -28.794   6.579  0.00  0.00    +0.015 A 
ATOM     23  C   LIG    1       24.375 -29.482   7.766  0.00  0.00    +0.009 A 
BRANCH  21  24
ATOM     24  C   LIG    1       26.030 -27.114   5.301  0.00  0.00    +0.337 C 
ATOM     25  O   LIG    1       25.221 -26.400   4.729  0.00  0.00    -0.245 OA
BRANCH  24  26
ATOM     26  O   LIG    1       27.308 -27.254   4.890  0.00  0.00    -0.477 OA
ATOM     27  H   LIG    1       27.690 -26.473   4.450  0.00  0.00    +0.295 HD
ENDBRANCH  24  26
ENDBRANCH  21  24
ENDBRANCH  17  18
ENDBRANCH   1  17
TORSDOF 4
ENDMDL
MODEL 7
REMARK VINA RESULT:      -7.1      8.701     12.187
REMARK  Name = *****
REMARK                            x       y       z     vdW  Elec       q    Type
REMARK                         _______ _______ _______ _____ _____    ______ ____
ROOT
ATOM      1  C   LIG    1       24.534 -30.653   8.762  0.00  0.00    -0.015 A 
ATOM      2  C   LIG    1       25.613 -31.362   9.300  0.00  0.00    -0.043 A 
ATOM      3  C   LIG    1       26.837 -31.690   8.491  0.00  0.00    +0.044 C 
ATOM      4  C   LIG    1       25.536 -31.796  10.633  0.00  0.00    +0.008 A 
ATOM      5  C   LIG    1       24.424 -31.524  11.464  0.00  0.00    -0.038 A 
ATOM      6  C   LIG    1       24.443 -32.021  12.917  0.00  0.00    -0.009 C 
ATOM      7  C   LIG    1       23.329 -31.364  13.762  0.00  0.00    +0.012 C 
ATOM      8  C   LIG    1       21.999 -31.334  13.027  0.00  0.00    +0.012 C 
ATOM      9  C   LIG    1       22.072 -30.494  11.733  0.00  0.00    -0.009 C 
ATOM     10  C   LIG    1       22.112 -28.989  12.084  0.00  0.00    +0.016 C 
ATOM     11  C   LIG    1       20.765 -30.775  10.956  0.00  0.00    +0.016 C 
ATOM     12  C   LIG    1       24.263 -33.555  12.920  0.00  0.00    +0.016 C 
ATOM     13  C   LIG    1       25.778 -31.685  13.622  0.00  0.00    +0.016 C 
ATOM     14  C   LIG    1       23.322 -30.835  10.911  0.00  0.00    -0.037 A 
ATOM     15  C   LIG    1       23.406 -30.406   9.566  0.00  0.00    +0.013 A 
ENDROOT
BRANCH   1  17
ATOM     16  C   LIG    1       24.228 -31.079   6.431  0.00  0.00    +0.018 C 
ATOM     17  C   LIG    1       24.531 -30.152   7.362  0.00  0.00    -0.018 C 
BRANCH  17  18
ATOM     18  C   LIG    1       24.780 -28.733   6.973  0.00  0.00    -0.018 A 
ATOM     19  C   LIG    1       25.768 -27.981   7.631  0.00  0.00    +0.009 A 
ATOM     20  C   LIG    1       26.012 -26.645   7.289  0.00  0.00    +0.015 A 
ATOM     21  C   LIG    1       25.282 -26.038   6.264  0.00  0.00    +0.059 A 
ATOM     22  C   LIG    1       24.299 -26.772   5.594  0.00  0.00    +0.015 A 
ATOM     23  C   LIG    1       24.067 -28.110   5.936  0.00  0.00    +0.009 A 
BRANCH  21  24
ATOM     24  C   LIG    1       25.550 -24.614   5.942  0.00  0.00    +0.337 C 
ATOM     25  O   LIG    1       26.195 -23.877   6.672  0.00  0.00    -0.245 OA
BRANCH  24  26
ATOM     26  O   LIG    1       25.049 -24.217   4.753  0.00  0.00    -0.477 OA
ATOM     27  H   LIG    1       24.633 -23.336   4.751  0.00  0.00    +0.295 HD
ENDBRANCH  24  26
ENDBRANCH  21  24
ENDBRANCH  17  18
ENDBRANCH   1  17
TORSDOF 4
ENDMDL
MODEL 8
REMARK VINA RESULT:      -6.9      7.813     11.329
REMARK  Name = *****
REMARK                            x       y       z     vdW  Elec       q    Type
REMARK                         _______ _______ _______ _____ _____    ______ ____
ROOT
ATOM      1  C   LIG    1       25.282 -29.635   8.359  0.00  0.00    -0.015 A 
ATOM      2  C   LIG    1       24.421 -30.702   8.639  0.00  0.00    -0.043 A 
ATOM      3  C   LIG    1       23.548 -31.323   7.584  0.00  0.00    +0.044 C 
ATOM      4  C   LIG    1       24.359 -31.190   9.954  0.00  0.00    +0.008 A 
ATOM      5  C   LIG    1       25.150 -30.666  11.003  0.00  0.00    -0.038 A 
ATOM      6  C   LIG    1       25.029 -31.282  12.405  0.00  0.00    -0.009 C 
ATOM      7  C   LIG    1       26.179 -30.829  13.332  0.00  0.00    +0.012 C 
ATOM      8  C   LIG    1       26.446 -29.337  13.221  0.00  0.00    +0.012 C 
ATOM      9  C   LIG    1       26.892 -28.934  11.798  0.00  0.00    -0.009 C 
ATOM     10  C   LIG    1       28.348 -29.390  11.553  0.00  0.00    +0.016 C 
ATOM     11  C   LIG    1       26.855 -27.388  11.751  0.00  0.00    +0.016 C 
ATOM     12  C   LIG    1       23.673 -30.866  13.015  0.00  0.00    +0.016 C 
ATOM     13  C   LIG    1       25.090 -32.828  12.360  0.00  0.00    +0.016 C 
ATOM     14  C   LIG    1       25.996 -29.569  10.726  0.00  0.00    -0.037 A 
ATOM     15  C   LIG    1       26.048 -29.081   9.400  0.00  0.00    +0.013 A 
ENDROOT
BRANCH   1  17
ATOM     16  C   LIG    1       25.663 -29.958   6.023  0.00  0.00    +0.018 C 
ATOM     17  C   LIG    1       25.413 -29.058   6.995  0.00  0.00    -0.018 C 
BRANCH  17  18
ATOM     18  C   LIG    1       25.233 -27.613   6.669  0.00  0.00    -0.018 A 
ATOM     19  C   LIG    1       26.181 -26.667   7.094  0.00  0.00    +0.009 A 
ATOM     20  C   LIG    1       26.027 -25.305   6.808  0.00  0.00    +0.015 A 
ATOM     21  C   LIG    1       24.925 -24.863   6.071  0.00  0.00    +0.059 A 
ATOM     22  C   LIG    1       23.974 -25.789   5.635  0.00  0.00    +0.015 A 
ATOM     23  C   LIG    1       24.140 -27.150   5.918  0.00  0.00    +0.009 A 
BRANCH  21  24
ATOM     24  C   LIG    1       24.780 -23.409   5.805  0.00  0.00    +0.337 C 
ATOM     25  O   LIG    1       24.758 -22.569   6.691  0.00  0.00    -0.245 OA
BRANCH  24  26
ATOM     26  O   LIG    1       24.712 -23.096   4.494  0.00  0.00    -0.477 OA
ATOM     27  H   LIG    1       25.515 -22.690   4.122  0.00  0.00    +0.295 HD
ENDBRANCH  24  26
ENDBRANCH  21  24
ENDBRANCH  17  18
ENDBRANCH   1  17
TORSDOF 4
ENDMDL
MODEL 9
REMARK VINA RESULT:      -6.9      9.255     12.690
REMARK  Name = *****
REMARK                            x       y       z     vdW  Elec       q    Type
REMARK                         _______ _______ _______ _____ _____    ______ ____
ROOT
ATOM      1  C   LIG    1       23.737 -30.621  10.020  0.00  0.00    -0.015 A 
ATOM      2  C   LIG    1       22.974 -31.709   9.582  0.00  0.00    -0.043 A 
ATOM      3  C   LIG    1       23.367 -32.530   8.384  0.00  0.00    +0.044 C 
ATOM      4  C   LIG    1       21.794 -32.027  10.273  0.00  0.00    +0.008 A 
ATOM      5  C   LIG    1       21.357 -31.310  11.411  0.00  0.00    -0.038 A 
ATOM      6  C   LIG    1       20.064 -31.748  12.115  0.00  0.00    -0.009 C 
ATOM      7  C   LIG    1       19.914 -31.087  13.503  0.00  0.00    +0.012 C 
ATOM      8  C   LIG    1       20.250 -29.605  13.468  0.00  0.00    +0.012 C 
ATOM      9  C   LIG    1       21.718 -29.354  13.058  0.00  0.00    -0.009 C 
ATOM     10  C   LIG    1       22.660 -29.719  14.226  0.00  0.00    +0.016 C 
ATOM     11  C   LIG    1       21.842 -27.836  12.792  0.00  0.00    +0.016 C 
ATOM     12  C   LIG    1       18.861 -31.368  11.224  0.00  0.00    +0.016 C 
ATOM     13  C   LIG    1       20.030 -33.276  12.354  0.00  0.00    +0.016 C 
ATOM     14  C   LIG    1       22.111 -30.193  11.834  0.00  0.00    -0.037 A 
ATOM     15  C   LIG    1       23.295 -29.877  11.129  0.00  0.00    +0.013 A 
ENDROOT
BRANCH   1  17
ATOM     16  C   LIG    1       26.100 -30.873   9.773  0.00  0.00    +0.018 C 
ATOM     17  C   LIG    1       25.001 -30.216   9.351  0.00  0.00    -0.018 C 
BRANCH  17  18
ATOM     18  C   LIG    1       25.088 -29.211   8.251  0.00  0.00    -0.018 A 
ATOM     19  C   LIG    1       24.240 -29.306   7.135  0.00  0.00    +0.009 A 
ATOM     20  C   LIG    1       24.311 -28.380   6.088  0.00  0.00    +0.015 A 
ATOM     21  C   LIG    1       25.224 -27.323   6.145  0.00  0.00    +0.059 A 
ATOM     22  C   LIG    1       26.073 -27.209   7.249  0.00  0.00    +0.015 A 
ATOM     23  C   LIG    1       25.990 -28.135   8.296  0.00  0.00    +0.009 A 
BRANCH  21  24
ATOM     24  C   LIG    1       25.289 -26.372   5.006  0.00  0.00    +0.337 C 
ATOM     25  O   LIG    1       26.113 -26.463   4.109  0.00  0.00    -0.245 OA
BRANCH  24  26
ATOM     26  O   LIG    1       24.333 -25.420   5.033  0.00  0.00    -0.477 OA
ATOM     27  H   LIG    1       23.867 -25.324   5.883  0.00  0.00    +0.295 HD
ENDBRANCH  24  26
ENDBRANCH  21  24
ENDBRANCH  17  18
ENDBRANCH   1  17
TORSDOF 4
ENDMDL
