MODEL 1
REMARK VINA RESULT:      -9.7      0.000      0.000
REMARK  Name = *****
REMARK                            x       y       z     vdW  Elec       q    Type
REMARK                         _______ _______ _______ _____ _____    ______ ____
ROOT
ATOM      1  C   LIG    1       27.503 -20.305   7.143  0.00  0.00    +0.299 C 
ATOM      2  C   LIG    1       28.171 -19.970   5.814  0.00  0.00    +0.253 C 
ATOM      3  O   LIG    1       29.370 -19.705   5.701  0.00  0.00    -0.273 OA
ATOM      4  N   LIG    1       27.385 -19.817   4.698  0.00  0.00    -0.283 N 
ATOM      5  H   LIG    1       27.902 -19.418   3.923  0.00  0.00    +0.155 HD
ATOM      6  C   LIG    1       25.986 -19.847   4.636  0.00  0.00    +0.043 A 
ATOM      7  C   LIG    1       25.167 -20.570   5.515  0.00  0.00    +0.023 A 
ATOM      8  C   LIG    1       23.780 -20.361   5.515  0.00  0.00    +0.032 A 
ATOM      9  C   LIG    1       23.208 -19.537   4.548  0.00  0.00    +0.042 A 
ATOM     10  C   LIG    1       24.003 -18.920   3.586  0.00  0.00    +0.022 A 
ATOM     11 CL   LIG    1       21.503 -19.320   4.510  0.00  0.00    -0.084 Cl
ATOM     12  C   LIG    1       25.727 -21.691   6.325  0.00  0.00    +0.079 C 
ATOM     13  C   LIG    1       25.390 -19.067   3.636  0.00  0.00    +0.025 A 
ATOM     14  N   LIG    1       26.784 -21.594   7.062  0.00  0.00    -0.259 NA
ENDROOT
BRANCH  12  15
ATOM     15  C   LIG    1       25.055 -23.039   6.266  0.00  0.00    +0.036 A 
ATOM     16  C   LIG    1       23.805 -23.285   6.850  0.00  0.00    +0.133 A 
ATOM     17  F   LIG    1       23.127 -22.317   7.481  0.00  0.00    -0.205 F 
ATOM     18  C   LIG    1       23.207 -24.544   6.771  0.00  0.00    +0.039 A 
ATOM     19  C   LIG    1       23.842 -25.575   6.082  0.00  0.00    +0.003 A 
ATOM     20  C   LIG    1       25.072 -25.340   5.472  0.00  0.00    +0.001 A 
ATOM     21  C   LIG    1       25.676 -24.080   5.560  0.00  0.00    +0.013 A 
ENDBRANCH  12  15
BRANCH   1  22
ATOM     22  C   LIG    1       28.524 -20.385   8.271  0.00  0.00    +0.341 C 
ATOM     23  O   LIG    1       29.079 -21.431   8.615  0.00  0.00    -0.248 OA
BRANCH  22  24
ATOM     24  O   LIG    1       28.757 -19.163   8.833  0.00  0.00    -0.463 OA
BRANCH  24  26
ATOM     25  C   LIG    1       30.267 -17.518   9.755  0.00  0.00    +0.048 C 
ATOM     26  C   LIG    1       30.115 -18.705   8.824  0.00  0.00    +0.229 C 
ENDBRANCH  24  26
ENDBRANCH  22  24
ENDBRANCH   1  22
TORSDOF 4
ENDMDL
MODEL 2
REMARK VINA RESULT:      -9.2      2.908      5.864
REMARK  Name = *****
REMARK                            x       y       z     vdW  Elec       q    Type
REMARK                         _______ _______ _______ _____ _____    ______ ____
ROOT
ATOM      1  C   LIG    1       25.042 -23.915   5.858  0.00  0.00    +0.299 C 
ATOM      2  C   LIG    1       23.671 -23.601   6.446  0.00  0.00    +0.253 C 
ATOM      3  O   LIG    1       22.913 -24.458   6.905  0.00  0.00    -0.273 OA
ATOM      4  N   LIG    1       23.182 -22.320   6.342  0.00  0.00    -0.283 N 
ATOM      5  H   LIG    1       22.202 -22.268   6.595  0.00  0.00    +0.155 HD
ATOM      6  C   LIG    1       23.767 -21.243   5.664  0.00  0.00    +0.043 A 
ATOM      7  C   LIG    1       25.146 -21.084   5.465  0.00  0.00    +0.023 A 
ATOM      8  C   LIG    1       25.619 -20.098   4.587  0.00  0.00    +0.032 A 
ATOM      9  C   LIG    1       24.725 -19.192   4.021  0.00  0.00    +0.042 A 
ATOM     10  C   LIG    1       23.366 -19.261   4.321  0.00  0.00    +0.022 A 
ATOM     11 CL   LIG    1       25.307 -17.949   2.987  0.00  0.00    -0.084 Cl
ATOM     12  C   LIG    1       26.126 -21.826   6.312  0.00  0.00    +0.079 C 
ATOM     13  C   LIG    1       22.888 -20.290   5.133  0.00  0.00    +0.025 A 
ATOM     14  N   LIG    1       26.093 -23.102   6.507  0.00  0.00    -0.259 NA
ENDROOT
BRANCH  12  15
ATOM     15  C   LIG    1       27.207 -21.052   7.022  0.00  0.00    +0.036 A 
ATOM     16  C   LIG    1       26.976 -20.347   8.211  0.00  0.00    +0.133 A 
ATOM     17  F   LIG    1       25.769 -20.342   8.795  0.00  0.00    -0.205 F 
ATOM     18  C   LIG    1       28.002 -19.646   8.846  0.00  0.00    +0.039 A 
ATOM     19  C   LIG    1       29.288 -19.659   8.313  0.00  0.00    +0.003 A 
ATOM     20  C   LIG    1       29.543 -20.377   7.146  0.00  0.00    +0.001 A 
ATOM     21  C   LIG    1       28.511 -21.072   6.504  0.00  0.00    +0.013 A 
ENDBRANCH  12  15
BRANCH   1  22
ATOM     22  C   LIG    1       25.390 -25.388   6.024  0.00  0.00    +0.341 C 
ATOM     23  O   LIG    1       25.920 -25.853   7.035  0.00  0.00    -0.248 OA
BRANCH  22  24
ATOM     24  O   LIG    1       25.031 -26.121   4.930  0.00  0.00    -0.463 OA
BRANCH  24  26
ATOM     25  C   LIG    1       24.379 -28.408   5.362  0.00  0.00    +0.048 C 
ATOM     26  C   LIG    1       25.485 -27.481   4.896  0.00  0.00    +0.229 C 
ENDBRANCH  24  26
ENDBRANCH  22  24
ENDBRANCH   1  22
TORSDOF 4
ENDMDL
MODEL 3
REMARK VINA RESULT:      -8.1      1.835      4.225
REMARK  Name = *****
REMARK                            x       y       z     vdW  Elec       q    Type
REMARK                         _______ _______ _______ _____ _____    ______ ____
ROOT
ATOM      1  C   LIG    1       28.153 -20.495   6.369  0.00  0.00    +0.299 C 
ATOM      2  C   LIG    1       28.000 -20.794   7.856  0.00  0.00    +0.253 C 
ATOM      3  O   LIG    1       28.748 -20.338   8.723  0.00  0.00    -0.273 OA
ATOM      4  N   LIG    1       27.072 -21.727   8.252  0.00  0.00    -0.283 N 
ATOM      5  H   LIG    1       27.183 -21.980   9.227  0.00  0.00    +0.155 HD
ATOM      6  C   LIG    1       26.274 -22.531   7.428  0.00  0.00    +0.043 A 
ATOM      7  C   LIG    1       25.850 -22.175   6.140  0.00  0.00    +0.023 A 
ATOM      8  C   LIG    1       25.247 -23.131   5.310  0.00  0.00    +0.032 A 
ATOM      9  C   LIG    1       24.949 -24.394   5.818  0.00  0.00    +0.042 A 
ATOM     10  C   LIG    1       25.247 -24.712   7.140  0.00  0.00    +0.022 A 
ATOM     11 CL   LIG    1       24.161 -25.551   4.820  0.00  0.00    -0.084 Cl
ATOM     12  C   LIG    1       25.864 -20.747   5.704  0.00  0.00    +0.079 C 
ATOM     13  C   LIG    1       25.916 -23.785   7.940  0.00  0.00    +0.025 A 
ATOM     14  N   LIG    1       26.891 -19.970   5.804  0.00  0.00    -0.259 NA
ENDROOT
BRANCH  12  15
ATOM     15  C   LIG    1       24.601 -20.145   5.143  0.00  0.00    +0.036 A 
ATOM     16  C   LIG    1       23.378 -20.185   5.825  0.00  0.00    +0.133 A 
ATOM     17  F   LIG    1       23.271 -20.751   7.035  0.00  0.00    -0.205 F 
ATOM     18  C   LIG    1       22.227 -19.612   5.279  0.00  0.00    +0.039 A 
ATOM     19  C   LIG    1       22.289 -18.964   4.048  0.00  0.00    +0.003 A 
ATOM     20  C   LIG    1       23.504 -18.891   3.368  0.00  0.00    +0.001 A 
ATOM     21  C   LIG    1       24.654 -19.475   3.912  0.00  0.00    +0.013 A 
ENDBRANCH  12  15
BRANCH   1  22
ATOM     22  C   LIG    1       29.259 -19.478   6.120  0.00  0.00    +0.341 C 
ATOM     23  O   LIG    1       29.090 -18.424   5.502  0.00  0.00    -0.248 OA
BRANCH  22  24
ATOM     24  O   LIG    1       30.443 -19.870   6.675  0.00  0.00    -0.463 OA
BRANCH  24  26
ATOM     25  C   LIG    1       31.601 -18.846   8.532  0.00  0.00    +0.048 C 
ATOM     26  C   LIG    1       31.355 -18.824   7.036  0.00  0.00    +0.229 C 
ENDBRANCH  24  26
ENDBRANCH  22  24
ENDBRANCH   1  22
TORSDOF 4
ENDMDL
MODEL 4
REMARK VINA RESULT:      -7.2      7.722     11.152
REMARK  Name = *****
REMARK                            x       y       z     vdW  Elec       q    Type
REMARK                         _______ _______ _______ _____ _____    ______ ____
ROOT
ATOM      1  C   LIG    1       25.391 -32.048   5.842  0.00  0.00    +0.299 C 
ATOM      2  C   LIG    1       26.720 -32.440   6.477  0.00  0.00    +0.253 C 
ATOM      3  O   LIG    1       27.503 -33.249   5.974  0.00  0.00    -0.273 OA
ATOM      4  N   LIG    1       27.012 -31.983   7.739  0.00  0.00    -0.283 N 
ATOM      5  H   LIG    1       27.822 -32.448   8.132  0.00  0.00    +0.155 HD
ATOM      6  C   LIG    1       26.178 -31.242   8.586  0.00  0.00    +0.043 A 
ATOM      7  C   LIG    1       25.174 -30.368   8.146  0.00  0.00    +0.023 A 
ATOM      8  C   LIG    1       24.247 -29.846   9.061  0.00  0.00    +0.032 A 
ATOM      9  C   LIG    1       24.412 -30.090  10.423  0.00  0.00    +0.042 A 
ATOM     10  C   LIG    1       25.486 -30.848  10.880  0.00  0.00    +0.022 A 
ATOM     11 CL   LIG    1       23.309 -29.407  11.552  0.00  0.00    -0.084 Cl
ATOM     12  C   LIG    1       25.185 -29.839   6.751  0.00  0.00    +0.079 C 
ATOM     13  C   LIG    1       26.362 -31.430   9.962  0.00  0.00    +0.025 A 
ATOM     14  N   LIG    1       25.289 -30.580   5.697  0.00  0.00    -0.259 NA
ENDROOT
BRANCH  12  15
ATOM     15  C   LIG    1       25.110 -28.349   6.536  0.00  0.00    +0.036 A 
ATOM     16  C   LIG    1       25.893 -27.441   7.260  0.00  0.00    +0.133 A 
ATOM     17  F   LIG    1       26.775 -27.858   8.179  0.00  0.00    -0.205 F 
ATOM     18  C   LIG    1       25.803 -26.066   7.032  0.00  0.00    +0.039 A 
ATOM     19  C   LIG    1       24.942 -25.578   6.053  0.00  0.00    +0.003 A 
ATOM     20  C   LIG    1       24.175 -26.469   5.303  0.00  0.00    +0.001 A 
ATOM     21  C   LIG    1       24.258 -27.846   5.540  0.00  0.00    +0.013 A 
ENDBRANCH  12  15
BRANCH   1  22
ATOM     22  C   LIG    1       25.222 -32.687   4.470  0.00  0.00    +0.341 C 
ATOM     23  O   LIG    1       24.470 -33.639   4.250  0.00  0.00    -0.248 OA
BRANCH  22  24
ATOM     24  O   LIG    1       25.989 -32.070   3.524  0.00  0.00    -0.463 OA
BRANCH  24  26
ATOM     25  C   LIG    1       27.550 -33.599   2.494  0.00  0.00    +0.048 C 
ATOM     26  C   LIG    1       26.259 -32.820   2.333  0.00  0.00    +0.229 C 
ENDBRANCH  24  26
ENDBRANCH  22  24
ENDBRANCH   1  22
TORSDOF 4
ENDMDL
MODEL 5
REMARK VINA RESULT:      -6.9      6.473      9.161
REMARK  Name = *****
REMARK                            x       y       z     vdW  Elec       q    Type
REMARK                         _______ _______ _______ _____ _____    ______ ____
ROOT
ATOM      1  C   LIG    1       24.721 -27.440   6.228  0.00  0.00    +0.299 C 
ATOM      2  C   LIG    1       25.825 -27.797   5.239  0.00  0.00    +0.253 C 
ATOM      3  O   LIG    1       26.375 -26.973   4.505  0.00  0.00    -0.273 OA
ATOM      4  N   LIG    1       26.138 -29.121   5.045  0.00  0.00    -0.283 N 
ATOM      5  H   LIG    1       26.744 -29.253   4.244  0.00  0.00    +0.155 HD
ATOM      6  C   LIG    1       25.493 -30.234   5.599  0.00  0.00    +0.043 A 
ATOM      7  C   LIG    1       24.825 -30.234   6.831  0.00  0.00    +0.023 A 
ATOM      8  C   LIG    1       24.022 -31.325   7.195  0.00  0.00    +0.032 A 
ATOM      9  C   LIG    1       24.002 -32.463   6.392  0.00  0.00    +0.042 A 
ATOM     10  C   LIG    1       24.770 -32.522   5.232  0.00  0.00    +0.022 A 
ATOM     11 CL   LIG    1       23.062 -33.824   6.861  0.00  0.00    -0.084 Cl
ATOM     12  C   LIG    1       25.098 -29.171   7.843  0.00  0.00    +0.079 C 
ATOM     13  C   LIG    1       25.506 -31.407   4.832  0.00  0.00    +0.025 A 
ATOM     14  N   LIG    1       25.063 -27.905   7.590  0.00  0.00    -0.259 NA
ENDROOT
BRANCH  12  15
ATOM     15  C   LIG    1       25.477 -29.579   9.244  0.00  0.00    +0.036 A 
ATOM     16  C   LIG    1       24.525 -29.889  10.224  0.00  0.00    +0.133 A 
ATOM     17  F   LIG    1       23.213 -29.856   9.956  0.00  0.00    -0.205 F 
ATOM     18  C   LIG    1       24.911 -30.270  11.511  0.00  0.00    +0.039 A 
ATOM     19  C   LIG    1       26.262 -30.372  11.831  0.00  0.00    +0.003 A 
ATOM     20  C   LIG    1       27.223 -30.095  10.860  0.00  0.00    +0.001 A 
ATOM     21  C   LIG    1       26.836 -29.703   9.573  0.00  0.00    +0.013 A 
ENDBRANCH  12  15
BRANCH   1  22
ATOM     22  C   LIG    1       24.482 -25.936   6.271  0.00  0.00    +0.341 C 
ATOM     23  O   LIG    1       23.495 -25.390   5.772  0.00  0.00    -0.248 OA
BRANCH  22  24
ATOM     24  O   LIG    1       25.477 -25.282   6.937  0.00  0.00    -0.463 OA
BRANCH  24  26
ATOM     25  C   LIG    1       25.816 -23.001   7.659  0.00  0.00    +0.048 C 
ATOM     26  C   LIG    1       25.784 -23.958   6.483  0.00  0.00    +0.229 C 
ENDBRANCH  24  26
ENDBRANCH  22  24
ENDBRANCH   1  22
TORSDOF 4
ENDMDL
MODEL 6
REMARK VINA RESULT:      -6.9      7.496     10.435
REMARK  Name = *****
REMARK                            x       y       z     vdW  Elec       q    Type
REMARK                         _______ _______ _______ _____ _____    ______ ____
ROOT
ATOM      1  C   LIG    1       25.151 -30.905   9.808  0.00  0.00    +0.299 C 
ATOM      2  C   LIG    1       23.773 -31.551   9.720  0.00  0.00    +0.253 C 
ATOM      3  O   LIG    1       23.095 -31.849  10.706  0.00  0.00    -0.273 OA
ATOM      4  N   LIG    1       23.307 -31.953   8.491  0.00  0.00    -0.283 N 
ATOM      5  H   LIG    1       22.477 -32.529   8.572  0.00  0.00    +0.155 HD
ATOM      6  C   LIG    1       23.995 -31.922   7.272  0.00  0.00    +0.043 A 
ATOM      7  C   LIG    1       25.005 -31.003   6.953  0.00  0.00    +0.023 A 
ATOM      8  C   LIG    1       25.787 -31.190   5.804  0.00  0.00    +0.032 A 
ATOM      9  C   LIG    1       25.468 -32.211   4.912  0.00  0.00    +0.042 A 
ATOM     10  C   LIG    1       24.381 -33.047   5.156  0.00  0.00    +0.022 A 
ATOM     11 CL   LIG    1       26.390 -32.410   3.475  0.00  0.00    -0.084 Cl
ATOM     12  C   LIG    1       25.141 -29.729   7.719  0.00  0.00    +0.079 C 
ATOM     13  C   LIG    1       23.652 -32.908   6.337  0.00  0.00    +0.025 A 
ATOM     14  N   LIG    1       25.202 -29.663   9.008  0.00  0.00    -0.259 NA
ENDROOT
BRANCH  12  15
ATOM     15  C   LIG    1       25.175 -28.425   6.963  0.00  0.00    +0.036 A 
ATOM     16  C   LIG    1       24.301 -28.143   5.905  0.00  0.00    +0.133 A 
ATOM     17  F   LIG    1       23.366 -29.023   5.519  0.00  0.00    -0.205 F 
ATOM     18  C   LIG    1       24.354 -26.923   5.230  0.00  0.00    +0.039 A 
ATOM     19  C   LIG    1       25.271 -25.950   5.621  0.00  0.00    +0.003 A 
ATOM     20  C   LIG    1       26.130 -26.203   6.690  0.00  0.00    +0.001 A 
ATOM     21  C   LIG    1       26.082 -27.431   7.359  0.00  0.00    +0.013 A 
ENDBRANCH  12  15
BRANCH   1  22
ATOM     22  C   LIG    1       25.515 -30.574  11.249  0.00  0.00    +0.341 C 
ATOM     23  O   LIG    1       26.165 -31.327  11.978  0.00  0.00    -0.248 OA
BRANCH  22  24
ATOM     24  O   LIG    1       25.052 -29.345  11.621  0.00  0.00    -0.463 OA
BRANCH  24  26
ATOM     25  C   LIG    1       26.883 -27.772  11.525  0.00  0.00    +0.048 C 
ATOM     26  C   LIG    1       25.934 -28.546  12.419  0.00  0.00    +0.229 C 
ENDBRANCH  24  26
ENDBRANCH  22  24
ENDBRANCH   1  22
TORSDOF 4
ENDMDL
MODEL 7
REMARK VINA RESULT:      -6.9      6.463      9.249
REMARK  Name = *****
REMARK                            x       y       z     vdW  Elec       q    Type
REMARK                         _______ _______ _______ _____ _____    ______ ____
ROOT
ATOM      1  C   LIG    1       25.184 -27.161   6.543  0.00  0.00    +0.299 C 
ATOM      2  C   LIG    1       25.714 -28.008   5.392  0.00  0.00    +0.253 C 
ATOM      3  O   LIG    1       26.114 -27.537   4.326  0.00  0.00    -0.273 OA
ATOM      4  N   LIG    1       25.620 -29.377   5.480  0.00  0.00    -0.283 N 
ATOM      5  H   LIG    1       25.827 -29.827   4.596  0.00  0.00    +0.155 HD
ATOM      6  C   LIG    1       24.999 -30.121   6.491  0.00  0.00    +0.043 A 
ATOM      7  C   LIG    1       24.871 -29.699   7.822  0.00  0.00    +0.023 A 
ATOM      8  C   LIG    1       24.042 -30.406   8.706  0.00  0.00    +0.032 A 
ATOM      9  C   LIG    1       23.458 -31.602   8.294  0.00  0.00    +0.042 A 
ATOM     10  C   LIG    1       23.690 -32.097   7.013  0.00  0.00    +0.022 A 
ATOM     11 CL   LIG    1       22.485 -32.500   9.391  0.00  0.00    -0.084 Cl
ATOM     12  C   LIG    1       25.744 -28.616   8.363  0.00  0.00    +0.079 C 
ATOM     13  C   LIG    1       24.452 -31.353   6.111  0.00  0.00    +0.025 A 
ATOM     14  N   LIG    1       25.904 -27.466   7.798  0.00  0.00    -0.259 NA
ENDROOT
BRANCH  12  15
ATOM     15  C   LIG    1       26.524 -28.873   9.627  0.00  0.00    +0.036 A 
ATOM     16  C   LIG    1       27.240 -30.058   9.845  0.00  0.00    +0.133 A 
ATOM     17  F   LIG    1       27.283 -31.027   8.920  0.00  0.00    -0.205 F 
ATOM     18  C   LIG    1       27.958 -30.262  11.024  0.00  0.00    +0.039 A 
ATOM     19  C   LIG    1       27.992 -29.267  11.999  0.00  0.00    +0.003 A 
ATOM     20  C   LIG    1       27.309 -28.071  11.787  0.00  0.00    +0.001 A 
ATOM     21  C   LIG    1       26.580 -27.872  10.609  0.00  0.00    +0.013 A 
ENDBRANCH  12  15
BRANCH   1  22
ATOM     22  C   LIG    1       25.327 -25.673   6.246  0.00  0.00    +0.341 C 
ATOM     23  O   LIG    1       26.405 -25.074   6.274  0.00  0.00    -0.248 OA
BRANCH  22  24
ATOM     24  O   LIG    1       24.129 -25.100   5.933  0.00  0.00    -0.463 OA
BRANCH  24  26
ATOM     25  C   LIG    1       22.600 -23.443   6.801  0.00  0.00    +0.048 C 
ATOM     26  C   LIG    1       23.986 -23.709   6.248  0.00  0.00    +0.229 C 
ENDBRANCH  24  26
ENDBRANCH  22  24
ENDBRANCH   1  22
TORSDOF 4
ENDMDL
MODEL 8
REMARK VINA RESULT:      -6.8      8.365     10.556
REMARK  Name = *****
REMARK                            x       y       z     vdW  Elec       q    Type
REMARK                         _______ _______ _______ _____ _____    ______ ____
ROOT
ATOM      1  C   LIG    1       26.406 -31.804   8.010  0.00  0.00    +0.299 C 
ATOM      2  C   LIG    1       25.012 -32.055   7.445  0.00  0.00    +0.253 C 
ATOM      3  O   LIG    1       24.573 -33.177   7.187  0.00  0.00    -0.273 OA
ATOM      4  N   LIG    1       24.246 -30.977   7.071  0.00  0.00    -0.283 N 
ATOM      5  H   LIG    1       23.428 -31.260   6.544  0.00  0.00    +0.155 HD
ATOM      6  C   LIG    1       24.626 -29.628   7.063  0.00  0.00    +0.043 A 
ATOM      7  C   LIG    1       25.581 -29.067   7.922  0.00  0.00    +0.023 A 
ATOM      8  C   LIG    1       26.056 -27.768   7.690  0.00  0.00    +0.032 A 
ATOM      9  C   LIG    1       25.477 -26.991   6.689  0.00  0.00    +0.042 A 
ATOM     10  C   LIG    1       24.433 -27.497   5.918  0.00  0.00    +0.022 A 
ATOM     11 CL   LIG    1       26.019 -25.379   6.437  0.00  0.00    -0.084 Cl
ATOM     12  C   LIG    1       25.967 -29.761   9.185  0.00  0.00    +0.079 C 
ATOM     13  C   LIG    1       24.016 -28.816   6.098  0.00  0.00    +0.025 A 
ATOM     14  N   LIG    1       26.336 -30.998   9.248  0.00  0.00    -0.259 NA
ENDROOT
BRANCH  12  15
ATOM     15  C   LIG    1       25.893 -29.002  10.485  0.00  0.00    +0.036 A 
ATOM     16  C   LIG    1       24.788 -29.077  11.342  0.00  0.00    +0.133 A 
ATOM     17  F   LIG    1       23.734 -29.854  11.055  0.00  0.00    -0.205 F 
ATOM     18  C   LIG    1       24.754 -28.365  12.543  0.00  0.00    +0.039 A 
ATOM     19  C   LIG    1       25.843 -27.581  12.918  0.00  0.00    +0.003 A 
ATOM     20  C   LIG    1       26.963 -27.516  12.091  0.00  0.00    +0.001 A 
ATOM     21  C   LIG    1       26.991 -28.223  10.882  0.00  0.00    +0.013 A 
ENDBRANCH  12  15
BRANCH   1  22
ATOM     22  C   LIG    1       27.121 -33.113   8.319  0.00  0.00    +0.341 C 
ATOM     23  O   LIG    1       27.404 -33.481   9.462  0.00  0.00    -0.248 OA
BRANCH  22  24
ATOM     24  O   LIG    1       27.390 -33.825   7.186  0.00  0.00    -0.463 OA
BRANCH  24  26
ATOM     25  C   LIG    1       27.707 -33.605   4.801  0.00  0.00    +0.048 C 
ATOM     26  C   LIG    1       28.153 -33.152   6.177  0.00  0.00    +0.229 C 
ENDBRANCH  24  26
ENDBRANCH  22  24
ENDBRANCH   1  22
TORSDOF 4
ENDMDL
