MODEL 1
REMARK VINA RESULT:      -3.0      0.000      0.000
REMARK  Name = *****
REMARK                            x       y       z     vdW  Elec       q    Type
REMARK                         _______ _______ _______ _____ _____    ______ ____
ROOT
ATOM      1  N   LIG    1       27.538 -15.179   3.781  0.00  0.00    -0.314 N 
ATOM      2  H   LIG    1       27.017 -16.031   3.633  0.00  0.00    +0.146 HD
ATOM      3  H   LIG    1       28.159 -15.112   4.571  0.00  0.00    +0.146 HD
ATOM      4  C   LIG    1       27.360 -14.181   2.896  0.00  0.00    +0.294 C 
ATOM      5  O   LIG    1       26.605 -14.268   1.941  0.00  0.00    -0.253 OA
ATOM      6  N   LIG    1       28.087 -13.078   3.157  0.00  0.00    -0.314 N 
ATOM      7  H   LIG    1       27.992 -12.297   2.524  0.00  0.00    +0.146 HD
ATOM      8  H   LIG    1       28.710 -13.003   3.943  0.00  0.00    +0.146 HD
ENDROOT
TORSDOF 0
ENDMDL
MODEL 2
REMARK VINA RESULT:      -3.0      0.029      1.597
REMARK  Name = *****
REMARK                            x       y       z     vdW  Elec       q    Type
REMARK                         _______ _______ _______ _____ _____    ______ ____
ROOT
ATOM      1  N   LIG    1       28.066 -13.088   3.189  0.00  0.00    -0.314 N 
ATOM      2  H   LIG    1       27.982 -12.300   2.560  0.00  0.00    +0.146 HD
ATOM      3  H   LIG    1       28.669 -13.015   3.991  0.00  0.00    +0.146 HD
ATOM      4  C   LIG    1       27.351 -14.190   2.899  0.00  0.00    +0.294 C 
ATOM      5  O   LIG    1       26.622 -14.271   1.923  0.00  0.00    -0.253 OA
ATOM      6  N   LIG    1       27.512 -15.196   3.779  0.00  0.00    -0.314 N 
ATOM      7  H   LIG    1       26.998 -16.049   3.609  0.00  0.00    +0.146 HD
ATOM      8  H   LIG    1       28.112 -15.134   4.583  0.00  0.00    +0.146 HD
ENDROOT
TORSDOF 0
ENDMDL
MODEL 3
REMARK VINA RESULT:      -2.7      1.751      1.967
REMARK  Name = *****
REMARK                            x       y       z     vdW  Elec       q    Type
REMARK                         _______ _______ _______ _____ _____    ______ ____
ROOT
ATOM      1  N   LIG    1       28.813 -13.009   3.548  0.00  0.00    -0.314 N 
ATOM      2  H   LIG    1       29.490 -13.171   4.280  0.00  0.00    +0.146 HD
ATOM      3  H   LIG    1       28.911 -12.202   2.955  0.00  0.00    +0.146 HD
ATOM      4  C   LIG    1       27.814 -13.903   3.419  0.00  0.00    +0.294 C 
ATOM      5  O   LIG    1       27.701 -14.880   4.141  0.00  0.00    -0.253 OA
ATOM      6  N   LIG    1       26.953 -13.624   2.423  0.00  0.00    -0.314 N 
ATOM      7  H   LIG    1       26.183 -14.262   2.281  0.00  0.00    +0.146 HD
ATOM      8  H   LIG    1       27.043 -12.820   1.826  0.00  0.00    +0.146 HD
ENDROOT
TORSDOF 0
ENDMDL
MODEL 4
REMARK VINA RESULT:      -2.7      2.527      2.793
REMARK  Name = *****
REMARK                            x       y       z     vdW  Elec       q    Type
REMARK                         _______ _______ _______ _____ _____    ______ ____
ROOT
ATOM      1  N   LIG    1       28.792 -13.035   3.468  0.00  0.00    -0.314 N 
ATOM      2  H   LIG    1       28.285 -13.693   2.892  0.00  0.00    +0.146 HD
ATOM      3  H   LIG    1       29.628 -12.607   3.107  0.00  0.00    +0.146 HD
ATOM      4  C   LIG    1       28.300 -12.777   4.693  0.00  0.00    +0.294 C 
ATOM      5  O   LIG    1       27.285 -13.300   5.125  0.00  0.00    -0.253 OA
ATOM      6  N   LIG    1       29.025 -11.891   5.401  0.00  0.00    -0.314 N 
ATOM      7  H   LIG    1       28.701 -11.661   6.330  0.00  0.00    +0.146 HD
ATOM      8  H   LIG    1       29.862 -11.458   5.049  0.00  0.00    +0.146 HD
ENDROOT
TORSDOF 0
ENDMDL
MODEL 5
REMARK VINA RESULT:      -2.7      1.793      1.793
REMARK  Name = *****
REMARK                            x       y       z     vdW  Elec       q    Type
REMARK                         _______ _______ _______ _____ _____    ______ ____
ROOT
ATOM      1  N   LIG    1       26.945 -13.386   2.569  0.00  0.00    -0.314 N 
ATOM      2  H   LIG    1       26.122 -13.957   2.428  0.00  0.00    +0.146 HD
ATOM      3  H   LIG    1       27.050 -12.534   2.043  0.00  0.00    +0.146 HD
ATOM      4  C   LIG    1       27.852 -13.817   3.465  0.00  0.00    +0.294 C 
ATOM      5  O   LIG    1       27.719 -14.852   4.099  0.00  0.00    -0.253 OA
ATOM      6  N   LIG    1       28.919 -13.007   3.600  0.00  0.00    -0.314 N 
ATOM      7  H   LIG    1       29.632 -13.283   4.259  0.00  0.00    +0.146 HD
ATOM      8  H   LIG    1       29.032 -12.154   3.079  0.00  0.00    +0.146 HD
ENDROOT
TORSDOF 0
ENDMDL
MODEL 6
REMARK VINA RESULT:      -2.6      1.778      2.249
REMARK  Name = *****
REMARK                            x       y       z     vdW  Elec       q    Type
REMARK                         _______ _______ _______ _____ _____    ______ ____
ROOT
ATOM      1  N   LIG    1       27.043 -13.478   2.542  0.00  0.00    -0.314 N 
ATOM      2  H   LIG    1       27.120 -12.559   2.128  0.00  0.00    +0.146 HD
ATOM      3  H   LIG    1       26.309 -14.096   2.237  0.00  0.00    +0.146 HD
ATOM      4  C   LIG    1       27.944 -13.810   3.484  0.00  0.00    +0.294 C 
ATOM      5  O   LIG    1       28.832 -13.056   3.849  0.00  0.00    -0.253 OA
ATOM      6  N   LIG    1       27.780 -15.048   3.989  0.00  0.00    -0.314 N 
ATOM      7  H   LIG    1       28.430 -15.349   4.701  0.00  0.00    +0.146 HD
ATOM      8  H   LIG    1       27.050 -15.672   3.691  0.00  0.00    +0.146 HD
ENDROOT
TORSDOF 0
ENDMDL
MODEL 7
REMARK VINA RESULT:      -2.5      1.512      1.786
REMARK  Name = *****
REMARK                            x       y       z     vdW  Elec       q    Type
REMARK                         _______ _______ _______ _____ _____    ______ ____
ROOT
ATOM      1  N   LIG    1       27.859 -13.446   2.915  0.00  0.00    -0.314 N 
ATOM      2  H   LIG    1       28.651 -13.993   3.225  0.00  0.00    +0.146 HD
ATOM      3  H   LIG    1       27.964 -12.453   2.793  0.00  0.00    +0.146 HD
ATOM      4  C   LIG    1       26.706 -14.100   2.685  0.00  0.00    +0.294 C 
ATOM      5  O   LIG    1       26.585 -15.306   2.836  0.00  0.00    -0.253 OA
ATOM      6  N   LIG    1       25.697 -13.308   2.275  0.00  0.00    -0.314 N 
ATOM      7  H   LIG    1       24.807 -13.748   2.088  0.00  0.00    +0.146 HD
ATOM      8  H   LIG    1       25.793 -12.315   2.150  0.00  0.00    +0.146 HD
ENDROOT
TORSDOF 0
ENDMDL
MODEL 8
REMARK VINA RESULT:      -2.5      2.683      2.740
REMARK  Name = *****
REMARK                            x       y       z     vdW  Elec       q    Type
REMARK                         _______ _______ _______ _____ _____    ______ ____
ROOT
ATOM      1  N   LIG    1       27.273 -13.142   5.323  0.00  0.00    -0.314 N 
ATOM      2  H   LIG    1       26.719 -13.831   4.832  0.00  0.00    +0.146 HD
ATOM      3  H   LIG    1       26.955 -12.795   6.212  0.00  0.00    +0.146 HD
ATOM      4  C   LIG    1       28.416 -12.736   4.738  0.00  0.00    +0.294 C 
ATOM      5  O   LIG    1       28.796 -13.162   3.659  0.00  0.00    -0.253 OA
ATOM      6  N   LIG    1       29.101 -11.821   5.448  0.00  0.00    -0.314 N 
ATOM      7  H   LIG    1       29.967 -11.481   5.055  0.00  0.00    +0.146 HD
ATOM      8  H   LIG    1       28.791 -11.468   6.337  0.00  0.00    +0.146 HD
ENDROOT
TORSDOF 0
ENDMDL
MODEL 9
REMARK VINA RESULT:      -2.5      5.321      5.676
REMARK  Name = *****
REMARK                            x       y       z     vdW  Elec       q    Type
REMARK                         _______ _______ _______ _____ _____    ______ ____
ROOT
ATOM      1  N   LIG    1       26.045 -20.243   4.298  0.00  0.00    -0.314 N 
ATOM      2  H   LIG    1       25.631 -21.100   4.639  0.00  0.00    +0.146 HD
ATOM      3  H   LIG    1       27.033 -20.091   4.418  0.00  0.00    +0.146 HD
ATOM      4  C   LIG    1       25.229 -19.356   3.700  0.00  0.00    +0.294 C 
ATOM      5  O   LIG    1       24.031 -19.546   3.559  0.00  0.00    -0.253 OA
ATOM      6  N   LIG    1       25.849 -18.241   3.272  0.00  0.00    -0.314 N 
ATOM      7  H   LIG    1       25.283 -17.540   2.815  0.00  0.00    +0.146 HD
ATOM      8  H   LIG    1       26.835 -18.080   3.386  0.00  0.00    +0.146 HD
ENDROOT
TORSDOF 0
ENDMDL
