MODEL 1
REMARK VINA RESULT:      -8.4      0.000      0.000
REMARK  Name = *****
REMARK                            x       y       z     vdW  Elec       q    Type
REMARK                         _______ _______ _______ _____ _____    ______ ____
ROOT
ATOM      1  C   LIG    1       25.404 -21.197   6.125  0.00  0.00    +0.106 C 
ENDROOT
BRANCH   1   2
ATOM      2  C   LIG    1       24.789 -22.140   7.245  0.00  0.00    +0.026 C 
ATOM      3  C   LIG    1       23.400 -22.751   6.951  0.00  0.00    +0.007 C 
ATOM      4  C   LIG    1       23.390 -24.082   6.195  0.00  0.00    +0.000 C 
ATOM      5  C   LIG    1       24.399 -25.109   6.699  0.00  0.00    +0.000 C 
ATOM      6  C   LIG    1       25.772 -24.517   6.950  0.00  0.00    +0.000 C 
ATOM      7  C   LIG    1       25.704 -23.257   7.808  0.00  0.00    +0.007 C 
ENDBRANCH   1   2
BRANCH   1   8
ATOM      8  C   LIG    1       24.391 -20.264   5.439  0.00  0.00    -0.015 A 
ATOM      9  C   LIG    1       24.681 -19.623   4.222  0.00  0.00    +0.006 A 
ATOM     10  C   LIG    1       23.737 -18.841   3.548  0.00  0.00    +0.000 A 
ATOM     11  C   LIG    1       22.478 -18.637   4.115  0.00  0.00    +0.000 A 
ATOM     12  C   LIG    1       22.174 -19.221   5.330  0.00  0.00    +0.000 A 
ATOM     13  C   LIG    1       23.107 -20.032   5.984  0.00  0.00    +0.006 A 
ENDBRANCH   1   8
BRANCH   1  14
ATOM     14  O   LIG    1       25.974 -22.020   5.069  0.00  0.00    -0.382 OA
ATOM     15  H   LIG    1       26.785 -21.588   4.762  0.00  0.00    +0.211 HD
ENDBRANCH   1  14
BRANCH   1  16
ATOM     16  C   LIG    1       26.656 -20.360   6.652  0.00  0.00    +0.124 C 
BRANCH  16  21
ATOM     17  C   LIG    1       30.235 -17.908   8.799  0.00  0.00    +0.192 C 
ATOM     18  N   LIG    1       30.065 -19.002   7.748  0.00  0.00    +0.241 N 
ATOM     19  C   LIG    1       29.211 -18.434   6.584  0.00  0.00    +0.148 C 
ATOM     20  C   LIG    1       28.771 -19.540   5.602  0.00  0.00    +0.135 C 
ATOM     21  N   LIG    1       28.045 -20.673   6.203  0.00  0.00    -0.289 NA
ATOM     22  C   LIG    1       28.845 -21.226   7.323  0.00  0.00    +0.135 C 
ATOM     23  C   LIG    1       29.330 -20.203   8.383  0.00  0.00    +0.148 C 
ATOM     24  C   LIG    1       31.450 -19.413   7.258  0.00  0.00    +0.192 C 
ENDBRANCH  16  21
ENDBRANCH   1  16
TORSDOF 5
ENDMDL
MODEL 2
REMARK VINA RESULT:      -8.2      1.419      4.544
REMARK  Name = *****
REMARK                            x       y       z     vdW  Elec       q    Type
REMARK                         _______ _______ _______ _____ _____    ______ ____
ROOT
ATOM      1  C   LIG    1       24.638 -22.262   6.023  0.00  0.00    +0.106 C 
ENDROOT
BRANCH   1   2
ATOM      2  C   LIG    1       23.610 -21.850   4.885  0.00  0.00    +0.026 C 
ATOM      3  C   LIG    1       22.392 -21.007   5.324  0.00  0.00    +0.007 C 
ATOM      4  C   LIG    1       22.585 -19.488   5.335  0.00  0.00    +0.000 C 
ATOM      5  C   LIG    1       23.286 -18.926   4.103  0.00  0.00    +0.000 C 
ATOM      6  C   LIG    1       24.505 -19.732   3.695  0.00  0.00    +0.000 C 
ATOM      7  C   LIG    1       24.198 -21.223   3.596  0.00  0.00    +0.007 C 
ENDBRANCH   1   2
BRANCH   1   8
ATOM      8  C   LIG    1       24.787 -23.778   6.240  0.00  0.00    -0.015 A 
ATOM      9  C   LIG    1       23.781 -24.682   5.858  0.00  0.00    +0.006 A 
ATOM     10  C   LIG    1       23.941 -26.067   5.971  0.00  0.00    +0.000 A 
ATOM     11  C   LIG    1       25.111 -26.583   6.530  0.00  0.00    +0.000 A 
ATOM     12  C   LIG    1       26.104 -25.720   6.953  0.00  0.00    +0.000 A 
ATOM     13  C   LIG    1       25.956 -24.338   6.804  0.00  0.00    +0.006 A 
ENDBRANCH   1   8
BRANCH   1  14
ATOM     14  O   LIG    1       24.189 -21.715   7.293  0.00  0.00    -0.382 OA
ATOM     15  H   LIG    1       23.277 -21.408   7.177  0.00  0.00    +0.211 HD
ENDBRANCH   1  14
BRANCH   1  16
ATOM     16  C   LIG    1       26.071 -21.589   5.821  0.00  0.00    +0.124 C 
BRANCH  16  21
ATOM     17  C   LIG    1       30.344 -21.348   8.082  0.00  0.00    +0.192 C 
ATOM     18  N   LIG    1       29.160 -20.437   7.771  0.00  0.00    +0.241 N 
ATOM     19  C   LIG    1       27.887 -21.057   8.403  0.00  0.00    +0.148 C 
ATOM     20  C   LIG    1       26.603 -20.346   7.924  0.00  0.00    +0.135 C 
ATOM     21  N   LIG    1       26.416 -20.287   6.464  0.00  0.00    -0.289 NA
ATOM     22  C   LIG    1       27.628 -19.700   5.841  0.00  0.00    +0.135 C 
ATOM     23  C   LIG    1       28.979 -20.348   6.240  0.00  0.00    +0.148 C 
ATOM     24  C   LIG    1       29.447 -19.061   8.362  0.00  0.00    +0.192 C 
ENDBRANCH  16  21
ENDBRANCH   1  16
TORSDOF 5
ENDMDL
MODEL 3
REMARK VINA RESULT:      -8.2      1.121      1.944
REMARK  Name = *****
REMARK                            x       y       z     vdW  Elec       q    Type
REMARK                         _______ _______ _______ _____ _____    ______ ____
ROOT
ATOM      1  C   LIG    1       24.952 -22.050   5.458  0.00  0.00    +0.106 C 
ENDROOT
BRANCH   1   2
ATOM      2  C   LIG    1       24.448 -22.906   6.696  0.00  0.00    +0.026 C 
ATOM      3  C   LIG    1       23.274 -23.877   6.436  0.00  0.00    +0.007 C 
ATOM      4  C   LIG    1       23.648 -25.281   5.953  0.00  0.00    +0.000 C 
ATOM      5  C   LIG    1       24.802 -25.929   6.710  0.00  0.00    +0.000 C 
ATOM      6  C   LIG    1       25.970 -24.987   6.931  0.00  0.00    +0.000 C 
ATOM      7  C   LIG    1       25.524 -23.653   7.523  0.00  0.00    +0.007 C 
ENDBRANCH   1   2
BRANCH   1   8
ATOM      8  C   LIG    1       24.039 -20.871   5.075  0.00  0.00    -0.015 A 
ATOM      9  C   LIG    1       23.013 -20.423   5.925  0.00  0.00    +0.006 A 
ATOM     10  C   LIG    1       22.234 -19.301   5.626  0.00  0.00    +0.000 A 
ATOM     11  C   LIG    1       22.433 -18.623   4.422  0.00  0.00    +0.000 A 
ATOM     12  C   LIG    1       23.408 -19.061   3.545  0.00  0.00    +0.000 A 
ATOM     13  C   LIG    1       24.209 -20.162   3.864  0.00  0.00    +0.006 A 
ENDBRANCH   1   8
BRANCH   1  14
ATOM     14  O   LIG    1       25.021 -22.905   4.284  0.00  0.00    -0.382 OA
ATOM     15  H   LIG    1       24.116 -23.154   4.044  0.00  0.00    +0.211 HD
ENDBRANCH   1  14
BRANCH   1  16
ATOM     16  C   LIG    1       26.456 -21.548   5.636  0.00  0.00    +0.124 C 
BRANCH  16  21
ATOM     17  C   LIG    1       30.470 -21.329   8.330  0.00  0.00    +0.192 C 
ATOM     18  N   LIG    1       29.351 -20.402   7.864  0.00  0.00    +0.241 N 
ATOM     19  C   LIG    1       28.002 -20.968   8.377  0.00  0.00    +0.148 C 
ATOM     20  C   LIG    1       26.796 -20.243   7.740  0.00  0.00    +0.135 C 
ATOM     21  N   LIG    1       26.766 -20.232   6.267  0.00  0.00    -0.289 NA
ATOM     22  C   LIG    1       28.053 -19.698   5.758  0.00  0.00    +0.135 C 
ATOM     23  C   LIG    1       29.337 -20.364   6.320  0.00  0.00    +0.148 C 
ATOM     24  C   LIG    1       29.613 -19.012   8.436  0.00  0.00    +0.192 C 
ENDBRANCH  16  21
ENDBRANCH   1  16
TORSDOF 5
ENDMDL
MODEL 4
REMARK VINA RESULT:      -7.9      1.509      3.751
REMARK  Name = *****
REMARK                            x       y       z     vdW  Elec       q    Type
REMARK                         _______ _______ _______ _____ _____    ______ ____
ROOT
ATOM      1  C   LIG    1       25.482 -21.670   7.489  0.00  0.00    +0.106 C 
ENDROOT
BRANCH   1   2
ATOM      2  C   LIG    1       25.021 -20.513   6.504  0.00  0.00    +0.026 C 
ATOM      3  C   LIG    1       25.386 -20.685   5.012  0.00  0.00    +0.007 C 
ATOM      4  C   LIG    1       24.384 -21.459   4.152  0.00  0.00    +0.000 C 
ATOM      5  C   LIG    1       22.925 -21.068   4.367  0.00  0.00    +0.000 C 
ATOM      6  C   LIG    1       22.556 -20.937   5.833  0.00  0.00    +0.000 C 
ATOM      7  C   LIG    1       23.543 -20.056   6.594  0.00  0.00    +0.007 C 
ENDBRANCH   1   2
BRANCH   1   8
ATOM      8  C   LIG    1       25.191 -23.096   6.989  0.00  0.00    -0.015 A 
ATOM      9  C   LIG    1       26.225 -23.990   6.659  0.00  0.00    +0.006 A 
ATOM     10  C   LIG    1       25.975 -25.314   6.286  0.00  0.00    +0.000 A 
ATOM     11  C   LIG    1       24.657 -25.765   6.180  0.00  0.00    +0.000 A 
ATOM     12  C   LIG    1       23.616 -24.900   6.458  0.00  0.00    +0.000 A 
ATOM     13  C   LIG    1       23.871 -23.587   6.867  0.00  0.00    +0.006 A 
ENDBRANCH   1   8
BRANCH   1  14
ATOM     14  O   LIG    1       24.773 -21.533   8.751  0.00  0.00    -0.382 OA
ATOM     15  H   LIG    1       23.998 -22.113   8.721  0.00  0.00    +0.211 HD
ENDBRANCH   1  14
BRANCH   1  16
ATOM     16  C   LIG    1       27.014 -21.536   7.912  0.00  0.00    +0.124 C 
BRANCH  16  21
ATOM     17  C   LIG    1       30.815 -18.983   9.481  0.00  0.00    +0.192 C 
ATOM     18  N   LIG    1       30.333 -19.646   8.194  0.00  0.00    +0.241 N 
ATOM     19  C   LIG    1       28.976 -19.010   7.794  0.00  0.00    +0.148 C 
ATOM     20  C   LIG    1       28.289 -19.792   6.654  0.00  0.00    +0.135 C 
ATOM     21  N   LIG    1       28.073 -21.227   6.907  0.00  0.00    -0.289 NA
ATOM     22  C   LIG    1       29.362 -21.852   7.296  0.00  0.00    +0.135 C 
ATOM     23  C   LIG    1       30.135 -21.156   8.447  0.00  0.00    +0.148 C 
ATOM     24  C   LIG    1       31.384 -19.413   7.114  0.00  0.00    +0.192 C 
ENDBRANCH  16  21
ENDBRANCH   1  16
TORSDOF 5
ENDMDL
MODEL 5
REMARK VINA RESULT:      -7.8      2.869      6.598
REMARK  Name = *****
REMARK                            x       y       z     vdW  Elec       q    Type
REMARK                         _______ _______ _______ _____ _____    ______ ____
ROOT
ATOM      1  C   LIG    1       24.744 -23.094   5.995  0.00  0.00    +0.106 C 
ENDROOT
BRANCH   1   2
ATOM      2  C   LIG    1       23.306 -22.572   6.420  0.00  0.00    +0.026 C 
ATOM      3  C   LIG    1       23.256 -21.531   7.561  0.00  0.00    +0.007 C 
ATOM      4  C   LIG    1       23.379 -20.062   7.147  0.00  0.00    +0.000 C 
ATOM      5  C   LIG    1       22.533 -19.666   5.942  0.00  0.00    +0.000 C 
ATOM      6  C   LIG    1       22.612 -20.669   4.806  0.00  0.00    +0.000 C 
ATOM      7  C   LIG    1       22.363 -22.096   5.285  0.00  0.00    +0.007 C 
ENDBRANCH   1   2
BRANCH   1   8
ATOM      8  C   LIG    1       25.911 -22.186   6.419  0.00  0.00    -0.015 A 
ATOM      9  C   LIG    1       26.268 -21.045   5.678  0.00  0.00    +0.006 A 
ATOM     10  C   LIG    1       27.271 -20.167   6.100  0.00  0.00    +0.000 A 
ATOM     11  C   LIG    1       27.988 -20.445   7.265  0.00  0.00    +0.000 A 
ATOM     12  C   LIG    1       27.689 -21.580   7.996  0.00  0.00    +0.000 A 
ATOM     13  C   LIG    1       26.661 -22.437   7.591  0.00  0.00    +0.006 A 
ENDBRANCH   1   8
BRANCH   1  14
ATOM     14  O   LIG    1       24.809 -23.185   4.545  0.00  0.00    -0.382 OA
ATOM     15  H   LIG    1       25.694 -23.501   4.307  0.00  0.00    +0.211 HD
ENDBRANCH   1  14
BRANCH   1  16
ATOM     16  C   LIG    1       25.011 -24.595   6.468  0.00  0.00    +0.124 C 
BRANCH  16  21
ATOM     17  C   LIG    1       24.507 -29.240   7.730  0.00  0.00    +0.192 C 
ATOM     18  N   LIG    1       25.099 -28.421   6.587  0.00  0.00    +0.241 N 
ATOM     19  C   LIG    1       26.191 -27.486   7.169  0.00  0.00    +0.148 C 
ATOM     20  C   LIG    1       26.663 -26.441   6.135  0.00  0.00    +0.135 C 
ATOM     21  N   LIG    1       25.602 -25.607   5.544  0.00  0.00    -0.289 NA
ATOM     22  C   LIG    1       24.545 -26.486   4.986  0.00  0.00    +0.135 C 
ATOM     23  C   LIG    1       23.983 -27.568   5.945  0.00  0.00    +0.148 C 
ATOM     24  C   LIG    1       25.695 -29.387   5.567  0.00  0.00    +0.192 C 
ENDBRANCH  16  21
ENDBRANCH   1  16
TORSDOF 5
ENDMDL
MODEL 6
REMARK VINA RESULT:      -7.5      2.375      6.121
REMARK  Name = *****
REMARK                            x       y       z     vdW  Elec       q    Type
REMARK                         _______ _______ _______ _____ _____    ______ ____
ROOT
ATOM      1  C   LIG    1       24.717 -21.332   5.535  0.00  0.00    +0.106 C 
ENDROOT
BRANCH   1   2
ATOM      2  C   LIG    1       23.319 -20.846   6.110  0.00  0.00    +0.026 C 
ATOM      3  C   LIG    1       23.006 -19.337   5.989  0.00  0.00    +0.007 C 
ATOM      4  C   LIG    1       22.334 -18.884   4.691  0.00  0.00    +0.000 C 
ATOM      5  C   LIG    1       21.182 -19.771   4.227  0.00  0.00    +0.000 C 
ATOM      6  C   LIG    1       21.503 -21.251   4.309  0.00  0.00    +0.000 C 
ATOM      7  C   LIG    1       22.061 -21.640   5.675  0.00  0.00    +0.007 C 
ENDBRANCH   1   2
BRANCH   1   8
ATOM      8  C   LIG    1       25.946 -20.798   6.291  0.00  0.00    -0.015 A 
ATOM      9  C   LIG    1       25.999 -20.775   7.696  0.00  0.00    +0.006 A 
ATOM     10  C   LIG    1       27.142 -20.372   8.392  0.00  0.00    +0.000 A 
ATOM     11  C   LIG    1       28.259 -19.923   7.685  0.00  0.00    +0.000 A 
ATOM     12  C   LIG    1       28.226 -19.895   6.304  0.00  0.00    +0.000 A 
ATOM     13  C   LIG    1       27.094 -20.333   5.609  0.00  0.00    +0.006 A 
ENDBRANCH   1   8
BRANCH   1  14
ATOM     14  O   LIG    1       24.854 -20.871   4.163  0.00  0.00    -0.382 OA
ATOM     15  H   LIG    1       23.978 -20.904   3.750  0.00  0.00    +0.211 HD
ENDBRANCH   1  14
BRANCH   1  16
ATOM     16  C   LIG    1       24.800 -22.920   5.398  0.00  0.00    +0.124 C 
BRANCH  16  21
ATOM     17  C   LIG    1       25.883 -27.592   4.749  0.00  0.00    +0.192 C 
ATOM     18  N   LIG    1       25.436 -26.666   5.876  0.00  0.00    +0.241 N 
ATOM     19  C   LIG    1       24.075 -26.036   5.481  0.00  0.00    +0.148 C 
ATOM     20  C   LIG    1       23.671 -24.893   6.437  0.00  0.00    +0.135 C 
ATOM     21  N   LIG    1       24.659 -23.810   6.587  0.00  0.00    -0.289 NA
ATOM     22  C   LIG    1       25.970 -24.396   6.961  0.00  0.00    +0.135 C 
ATOM     23  C   LIG    1       26.484 -25.547   6.057  0.00  0.00    +0.148 C 
ATOM     24  C   LIG    1       25.304 -27.493   7.151  0.00  0.00    +0.192 C 
ENDBRANCH  16  21
ENDBRANCH   1  16
TORSDOF 5
ENDMDL
MODEL 7
REMARK VINA RESULT:      -7.5      2.482      5.532
REMARK  Name = *****
REMARK                            x       y       z     vdW  Elec       q    Type
REMARK                         _______ _______ _______ _____ _____    ______ ____
ROOT
ATOM      1  C   LIG    1       24.686 -21.282   6.808  0.00  0.00    +0.106 C 
ENDROOT
BRANCH   1   2
ATOM      2  C   LIG    1       25.859 -20.524   7.564  0.00  0.00    +0.026 C 
ATOM      3  C   LIG    1       26.694 -21.358   8.561  0.00  0.00    +0.007 C 
ATOM      4  C   LIG    1       27.901 -22.101   7.982  0.00  0.00    +0.000 C 
ATOM      5  C   LIG    1       28.760 -21.276   7.029  0.00  0.00    +0.000 C 
ATOM      6  C   LIG    1       27.941 -20.487   6.025  0.00  0.00    +0.000 C 
ATOM      7  C   LIG    1       26.831 -19.684   6.697  0.00  0.00    +0.007 C 
ENDBRANCH   1   2
BRANCH   1   8
ATOM      8  C   LIG    1       24.077 -20.510   5.624  0.00  0.00    -0.015 A 
ATOM      9  C   LIG    1       22.853 -19.829   5.736  0.00  0.00    +0.006 A 
ATOM     10  C   LIG    1       22.332 -19.054   4.695  0.00  0.00    +0.000 A 
ATOM     11  C   LIG    1       23.012 -18.988   3.477  0.00  0.00    +0.000 A 
ATOM     12  C   LIG    1       24.199 -19.679   3.320  0.00  0.00    +0.000 A 
ATOM     13  C   LIG    1       24.735 -20.423   4.376  0.00  0.00    +0.006 A 
ENDBRANCH   1   8
BRANCH   1  14
ATOM     14  O   LIG    1       23.594 -21.520   7.739  0.00  0.00    -0.382 OA
ATOM     15  H   LIG    1       23.697 -22.417   8.092  0.00  0.00    +0.211 HD
ENDBRANCH   1  14
BRANCH   1  16
ATOM     16  C   LIG    1       25.106 -22.752   6.351  0.00  0.00    +0.124 C 
BRANCH  16  21
ATOM     17  C   LIG    1       25.897 -27.041   4.254  0.00  0.00    +0.192 C 
ATOM     18  N   LIG    1       25.311 -26.491   5.551  0.00  0.00    +0.241 N 
ATOM     19  C   LIG    1       24.117 -25.568   5.194  0.00  0.00    +0.148 C 
ATOM     20  C   LIG    1       23.626 -24.766   6.419  0.00  0.00    +0.135 C 
ATOM     21  N   LIG    1       24.651 -23.958   7.103  0.00  0.00    -0.289 NA
ATOM     22  C   LIG    1       25.805 -24.826   7.448  0.00  0.00    +0.135 C 
ATOM     23  C   LIG    1       26.392 -25.670   6.286  0.00  0.00    +0.148 C 
ATOM     24  C   LIG    1       24.853 -27.669   6.405  0.00  0.00    +0.192 C 
ENDBRANCH  16  21
ENDBRANCH   1  16
TORSDOF 5
ENDMDL
MODEL 8
REMARK VINA RESULT:      -7.2      1.252      4.173
REMARK  Name = *****
REMARK                            x       y       z     vdW  Elec       q    Type
REMARK                         _______ _______ _______ _____ _____    ______ ____
ROOT
ATOM      1  C   LIG    1       24.605 -21.431   5.963  0.00  0.00    +0.106 C 
ENDROOT
BRANCH   1   2
ATOM      2  C   LIG    1       23.859 -21.032   4.619  0.00  0.00    +0.026 C 
ATOM      3  C   LIG    1       22.458 -20.397   4.765  0.00  0.00    +0.007 C 
ATOM      4  C   LIG    1       22.416 -18.876   4.932  0.00  0.00    +0.000 C 
ATOM      5  C   LIG    1       23.324 -18.105   3.978  0.00  0.00    +0.000 C 
ATOM      6  C   LIG    1       24.711 -18.707   3.865  0.00  0.00    +0.000 C 
ATOM      7  C   LIG    1       24.664 -20.206   3.584  0.00  0.00    +0.007 C 
ENDBRANCH   1   2
BRANCH   1   8
ATOM      8  C   LIG    1       24.952 -22.925   6.088  0.00  0.00    -0.015 A 
ATOM      9  C   LIG    1       24.863 -23.800   4.991  0.00  0.00    +0.006 A 
ATOM     10  C   LIG    1       25.258 -25.139   5.072  0.00  0.00    +0.000 A 
ATOM     11  C   LIG    1       25.707 -25.654   6.289  0.00  0.00    +0.000 A 
ATOM     12  C   LIG    1       25.769 -24.831   7.397  0.00  0.00    +0.000 A 
ATOM     13  C   LIG    1       25.409 -23.483   7.304  0.00  0.00    +0.006 A 
ENDBRANCH   1   8
BRANCH   1  14
ATOM     14  O   LIG    1       23.746 -21.120   7.094  0.00  0.00    -0.382 OA
ATOM     15  H   LIG    1       24.275 -20.629   7.741  0.00  0.00    +0.211 HD
ENDBRANCH   1  14
BRANCH   1  16
ATOM     16  C   LIG    1       25.900 -20.538   6.229  0.00  0.00    +0.124 C 
BRANCH  16  21
ATOM     17  C   LIG    1       29.524 -18.136   8.355  0.00  0.00    +0.192 C 
ATOM     18  N   LIG    1       29.323 -19.384   7.500  0.00  0.00    +0.241 N 
ATOM     19  C   LIG    1       28.681 -18.957   6.154  0.00  0.00    +0.148 C 
ATOM     20  C   LIG    1       28.205 -20.174   5.333  0.00  0.00    +0.135 C 
ATOM     21  N   LIG    1       27.274 -21.083   6.025  0.00  0.00    -0.289 NA
ATOM     22  C   LIG    1       27.870 -21.499   7.318  0.00  0.00    +0.135 C 
ATOM     23  C   LIG    1       28.372 -20.353   8.236  0.00  0.00    +0.148 C 
ATOM     24  C   LIG    1       30.685 -20.032   7.273  0.00  0.00    +0.192 C 
ENDBRANCH  16  21
ENDBRANCH   1  16
TORSDOF 5
ENDMDL
MODEL 9
REMARK VINA RESULT:      -7.1      2.841      6.070
REMARK  Name = *****
REMARK                            x       y       z     vdW  Elec       q    Type
REMARK                         _______ _______ _______ _____ _____    ______ ____
ROOT
ATOM      1  C   LIG    1       24.398 -22.859   6.879  0.00  0.00    +0.106 C 
ENDROOT
BRANCH   1   2
ATOM      2  C   LIG    1       25.774 -22.733   7.661  0.00  0.00    +0.026 C 
ATOM      3  C   LIG    1       27.002 -22.283   6.837  0.00  0.00    +0.007 C 
ATOM      4  C   LIG    1       27.229 -20.773   6.725  0.00  0.00    +0.000 C 
ATOM      5  C   LIG    1       27.078 -20.008   8.035  0.00  0.00    +0.000 C 
ATOM      6  C   LIG    1       25.851 -20.422   8.826  0.00  0.00    +0.000 C 
ATOM      7  C   LIG    1       25.762 -21.936   8.990  0.00  0.00    +0.007 C 
ENDBRANCH   1   2
BRANCH   1   8
ATOM      8  C   LIG    1       24.109 -21.711   5.895  0.00  0.00    -0.015 A 
ATOM      9  C   LIG    1       24.644 -21.699   4.595  0.00  0.00    +0.006 A 
ATOM     10  C   LIG    1       24.320 -20.706   3.665  0.00  0.00    +0.000 A 
ATOM     11  C   LIG    1       23.480 -19.656   4.040  0.00  0.00    +0.000 A 
ATOM     12  C   LIG    1       22.968 -19.617   5.323  0.00  0.00    +0.000 A 
ATOM     13  C   LIG    1       23.265 -20.630   6.240  0.00  0.00    +0.006 A 
ENDBRANCH   1   8
BRANCH   1  14
ATOM     14  O   LIG    1       23.304 -22.855   7.837  0.00  0.00    -0.382 OA
ATOM     15  H   LIG    1       22.474 -22.817   7.338  0.00  0.00    +0.211 HD
ENDBRANCH   1  14
BRANCH   1  16
ATOM     16  C   LIG    1       24.239 -24.267   6.147  0.00  0.00    +0.124 C 
BRANCH  16  21
ATOM     17  C   LIG    1       24.037 -29.101   6.264  0.00  0.00    +0.192 C 
ATOM     18  N   LIG    1       24.987 -28.006   5.789  0.00  0.00    +0.241 N 
ATOM     19  C   LIG    1       25.376 -27.132   7.010  0.00  0.00    +0.148 C 
ATOM     20  C   LIG    1       26.124 -25.851   6.584  0.00  0.00    +0.135 C 
ATOM     21  N   LIG    1       25.423 -24.999   5.607  0.00  0.00    -0.289 NA
ATOM     22  C   LIG    1       25.038 -25.821   4.433  0.00  0.00    +0.135 C 
ATOM     23  C   LIG    1       24.266 -27.130   4.742  0.00  0.00    +0.148 C 
ATOM     24  C   LIG    1       26.218 -28.671   5.181  0.00  0.00    +0.192 C 
ENDBRANCH  16  21
ENDBRANCH   1  16
TORSDOF 5
ENDMDL
