MODEL 1
REMARK VINA RESULT:       5.9      0.000      0.000
REMARK  Name = *****
REMARK                            x       y       z     vdW  Elec       q    Type
REMARK                         _______ _______ _______ _____ _____    ______ ____
ROOT
ATOM      1  C   LIG    1       26.714 -18.598   3.950  0.00  0.00    +0.064 C 
ATOM      2  C   LIG    1       27.997 -18.985   4.739  0.00  0.00    +0.117 C 
ATOM      3  C   LIG    1       28.152 -20.515   4.745  0.00  0.00    +0.062 C 
ATOM      4  C   LIG    1       26.946 -21.201   5.414  0.00  0.00    +0.151 C 
ATOM      5  C   LIG    1       25.599 -20.621   5.036  0.00  0.00    -0.011 A 
ATOM      6  C   LIG    1       24.447 -21.342   5.403  0.00  0.00    +0.056 A 
ATOM      7  C   LIG    1       23.215 -20.849   5.041  0.00  0.00    +0.167 A 
ATOM      8  O   LIG    1       22.016 -21.423   5.319  0.00  0.00    -0.453 OA
ATOM      9  C   LIG    1       21.116 -20.474   4.710  0.00  0.00    +0.466 C 
ATOM     10  O   LIG    1       21.793 -19.390   4.042  0.00  0.00    -0.453 OA
ATOM     11  C   LIG    1       23.090 -19.689   4.321  0.00  0.00    +0.167 A 
ATOM     12  C   LIG    1       24.188 -18.945   3.950  0.00  0.00    +0.054 A 
ATOM     13  C   LIG    1       25.470 -19.383   4.349  0.00  0.00    -0.030 A 
ENDROOT
BRANCH   1  18
ATOM     14  C   LIG    1       27.405 -14.810   3.589  0.00  0.00    +0.165 A 
ATOM     15  C   LIG    1       26.093 -14.293   3.572  0.00  0.00    +0.203 A 
ATOM     16  C   LIG    1       25.003 -15.192   3.699  0.00  0.00    +0.165 A 
ATOM     17  C   LIG    1       25.241 -16.564   3.826  0.00  0.00    +0.053 A 
ATOM     18  C   LIG    1       26.537 -17.089   3.799  0.00  0.00    -0.032 A 
ATOM     19  C   LIG    1       27.608 -16.196   3.679  0.00  0.00    +0.053 A 
BRANCH  14  21
ATOM     20  C   LIG    1       28.567 -12.899   4.428  0.00  0.00    +0.277 C 
ATOM     21  O   LIG    1       28.468 -13.951   3.472  0.00  0.00    -0.491 OA
ENDBRANCH  14  21
BRANCH  15  22
ATOM     22  O   LIG    1       25.736 -12.969   3.448  0.00  0.00    -0.488 OA
ATOM     23  C   LIG    1       25.483 -12.425   2.160  0.00  0.00    +0.277 C 
ENDBRANCH  15  22
BRANCH  16  24
ATOM     24  O   LIG    1       23.738 -14.657   3.780  0.00  0.00    -0.491 OA
ATOM     25  C   LIG    1       22.777 -15.329   4.591  0.00  0.00    +0.277 C 
ENDBRANCH  16  24
ENDBRANCH   1  18
BRANCH   2  26
ATOM     26  C   LIG    1       28.064 -18.457   6.161  0.00  0.00    +0.309 C 
ATOM     27  O   LIG    1       27.262 -18.738   7.062  0.00  0.00    -0.251 OA
BRANCH  26  28
ATOM     28  O   LIG    1       29.166 -17.727   6.399  0.00  0.00    -0.480 OA
ATOM     29  H   LIG    1       29.903 -17.910   5.758  0.00  0.00    +0.295 HD
ENDBRANCH  26  28
ENDBRANCH   2  26
BRANCH   4  30
ATOM     30  O   LIG    1       27.083 -21.175   6.831  0.00  0.00    -0.387 OA
ATOM     31  H   LIG    1       27.742 -21.854   7.086  0.00  0.00    +0.210 HD
ENDBRANCH   4  30
BRANCH   3  32
ATOM     32  C   LIG    1       29.475 -20.968   5.374  0.00  0.00    +0.163 C 
BRANCH  32  33
ATOM     33  O   LIG    1       29.414 -20.764   6.786  0.00  0.00    -0.395 OA
ATOM     34  H   LIG    1       30.337 -20.680   7.092  0.00  0.00    +0.209 HD
ENDBRANCH  32  33
ENDBRANCH   3  32
TORSDOF 9
ENDMDL
MODEL 2
REMARK VINA RESULT:       6.4      1.541      6.576
REMARK  Name = *****
REMARK                            x       y       z     vdW  Elec       q    Type
REMARK                         _______ _______ _______ _____ _____    ______ ____
ROOT
ATOM      1  C   LIG    1       25.044 -17.556   3.290  0.00  0.00    +0.064 C 
ATOM      2  C   LIG    1       24.883 -16.021   3.100  0.00  0.00    +0.117 C 
ATOM      3  C   LIG    1       26.227 -15.416   2.664  0.00  0.00    +0.062 C 
ATOM      4  C   LIG    1       27.324 -15.662   3.717  0.00  0.00    +0.151 C 
ATOM      5  C   LIG    1       27.328 -17.054   4.312  0.00  0.00    -0.011 A 
ATOM      6  C   LIG    1       28.440 -17.434   5.088  0.00  0.00    +0.056 A 
ATOM      7  C   LIG    1       28.478 -18.706   5.611  0.00  0.00    +0.167 A 
ATOM      8  O   LIG    1       29.475 -19.220   6.376  0.00  0.00    -0.453 OA
ATOM      9  C   LIG    1       28.967 -20.549   6.621  0.00  0.00    +0.466 C 
ATOM     10  O   LIG    1       27.713 -20.813   5.961  0.00  0.00    -0.453 OA
ATOM     11  C   LIG    1       27.471 -19.607   5.380  0.00  0.00    +0.167 A 
ATOM     12  C   LIG    1       26.360 -19.275   4.637  0.00  0.00    +0.054 A 
ATOM     13  C   LIG    1       26.251 -17.964   4.127  0.00  0.00    -0.030 A 
ENDROOT
BRANCH   1  18
ATOM     14  C   LIG    1       21.286 -18.363   3.719  0.00  0.00    +0.165 A 
ATOM     15  C   LIG    1       21.347 -19.638   4.318  0.00  0.00    +0.203 A 
ATOM     16  C   LIG    1       22.618 -20.206   4.589  0.00  0.00    +0.165 A 
ATOM     17  C   LIG    1       23.781 -19.506   4.253  0.00  0.00    +0.053 A 
ATOM     18  C   LIG    1       23.730 -18.261   3.619  0.00  0.00    -0.032 A 
ATOM     19  C   LIG    1       22.472 -17.704   3.358  0.00  0.00    +0.053 A 
BRANCH  14  21
ATOM     20  C   LIG    1       19.416 -18.180   2.244  0.00  0.00    +0.277 C 
ATOM     21  O   LIG    1       20.063 -17.801   3.455  0.00  0.00    -0.491 OA
ENDBRANCH  14  21
BRANCH  15  22
ATOM     22  O   LIG    1       20.276 -20.421   4.688  0.00  0.00    -0.488 OA
ATOM     23  C   LIG    1       19.848 -21.477   3.837  0.00  0.00    +0.277 C 
ENDBRANCH  15  22
BRANCH  16  24
ATOM     24  O   LIG    1       22.654 -21.405   5.264  0.00  0.00    -0.491 OA
ATOM     25  C   LIG    1       23.133 -21.405   6.606  0.00  0.00    +0.277 C 
ENDBRANCH  16  24
ENDBRANCH   1  18
BRANCH   2  26
ATOM     26  C   LIG    1       24.352 -15.275   4.310  0.00  0.00    +0.309 C 
ATOM     27  O   LIG    1       24.971 -15.107   5.370  0.00  0.00    -0.251 OA
BRANCH  26  28
ATOM     28  O   LIG    1       23.162 -14.693   4.089  0.00  0.00    -0.480 OA
ATOM     29  H   LIG    1       23.109 -14.233   3.208  0.00  0.00    +0.295 HD
ENDBRANCH  26  28
ENDBRANCH   2  26
BRANCH   4  30
ATOM     30  O   LIG    1       27.227 -14.706   4.768  0.00  0.00    -0.387 OA
ATOM     31  H   LIG    1       26.306 -14.712   5.102  0.00  0.00    +0.210 HD
ENDBRANCH   4  30
BRANCH   3  32
ATOM     32  C   LIG    1       26.113 -13.929   2.310  0.00  0.00    +0.163 C 
BRANCH  32  33
ATOM     33  O   LIG    1       27.375 -13.298   2.535  0.00  0.00    -0.395 OA
ATOM     34  H   LIG    1       27.542 -13.351   3.496  0.00  0.00    +0.209 HD
ENDBRANCH  32  33
ENDBRANCH   3  32
TORSDOF 9
ENDMDL
MODEL 3
REMARK VINA RESULT:       7.3      0.361      2.151
REMARK  Name = *****
REMARK                            x       y       z     vdW  Elec       q    Type
REMARK                         _______ _______ _______ _____ _____    ______ ____
ROOT
ATOM      1  C   LIG    1       26.711 -18.487   3.882  0.00  0.00    +0.064 C 
ATOM      2  C   LIG    1       27.992 -18.870   4.677  0.00  0.00    +0.117 C 
ATOM      3  C   LIG    1       28.153 -20.399   4.680  0.00  0.00    +0.062 C 
ATOM      4  C   LIG    1       26.947 -21.092   5.341  0.00  0.00    +0.151 C 
ATOM      5  C   LIG    1       25.600 -20.517   4.957  0.00  0.00    -0.011 A 
ATOM      6  C   LIG    1       24.449 -21.245   5.317  0.00  0.00    +0.056 A 
ATOM      7  C   LIG    1       23.216 -20.756   4.949  0.00  0.00    +0.167 A 
ATOM      8  O   LIG    1       22.019 -21.336   5.220  0.00  0.00    -0.453 OA
ATOM      9  C   LIG    1       21.117 -20.391   4.608  0.00  0.00    +0.466 C 
ATOM     10  O   LIG    1       21.793 -19.302   3.946  0.00  0.00    -0.453 OA
ATOM     11  C   LIG    1       23.090 -19.595   4.232  0.00  0.00    +0.167 A 
ATOM     12  C   LIG    1       24.187 -18.846   3.868  0.00  0.00    +0.054 A 
ATOM     13  C   LIG    1       25.468 -19.279   4.272  0.00  0.00    -0.030 A 
ENDROOT
BRANCH   1  18
ATOM     14  C   LIG    1       25.146 -14.971   3.504  0.00  0.00    +0.165 A 
ATOM     15  C   LIG    1       26.300 -14.168   3.402  0.00  0.00    +0.203 A 
ATOM     16  C   LIG    1       27.573 -14.792   3.440  0.00  0.00    +0.165 A 
ATOM     17  C   LIG    1       27.666 -16.180   3.587  0.00  0.00    +0.053 A 
ATOM     18  C   LIG    1       26.528 -16.979   3.732  0.00  0.00    -0.032 A 
ATOM     19  C   LIG    1       25.274 -16.356   3.690  0.00  0.00    +0.053 A 
BRANCH  14  21
ATOM     20  C   LIG    1       23.284 -14.085   4.710  0.00  0.00    +0.277 C 
ATOM     21  O   LIG    1       23.909 -14.380   3.464  0.00  0.00    -0.491 OA
ENDBRANCH  14  21
BRANCH  15  22
ATOM     22  O   LIG    1       26.335 -12.798   3.260  0.00  0.00    -0.488 OA
ATOM     23  C   LIG    1       25.671 -12.187   2.161  0.00  0.00    +0.277 C 
ENDBRANCH  15  22
BRANCH  16  24
ATOM     24  O   LIG    1       28.681 -14.001   3.240  0.00  0.00    -0.491 OA
ATOM     25  C   LIG    1       28.789 -12.794   3.990  0.00  0.00    +0.277 C 
ENDBRANCH  16  24
ENDBRANCH   1  18
BRANCH   2  26
ATOM     26  C   LIG    1       28.049 -18.345   6.099  0.00  0.00    +0.309 C 
ATOM     27  O   LIG    1       27.439 -18.832   7.062  0.00  0.00    -0.251 OA
BRANCH  26  28
ATOM     28  O   LIG    1       28.933 -17.346   6.256  0.00  0.00    -0.480 OA
ATOM     29  H   LIG    1       29.589 -17.284   5.512  0.00  0.00    +0.295 HD
ENDBRANCH  26  28
ENDBRANCH   2  26
BRANCH   4  30
ATOM     30  O   LIG    1       27.077 -21.069   6.759  0.00  0.00    -0.387 OA
ATOM     31  H   LIG    1       26.578 -21.829   7.124  0.00  0.00    +0.210 HD
ENDBRANCH   4  30
BRANCH   3  32
ATOM     32  C   LIG    1       29.475 -20.848   5.315  0.00  0.00    +0.163 C 
BRANCH  32  33
ATOM     33  O   LIG    1       29.233 -21.242   6.666  0.00  0.00    -0.395 OA
ATOM     34  H   LIG    1       28.788 -20.488   7.098  0.00  0.00    +0.209 HD
ENDBRANCH  32  33
ENDBRANCH   3  32
TORSDOF 9
ENDMDL
MODEL 4
REMARK VINA RESULT:       8.9      1.545      5.950
REMARK  Name = *****
REMARK                            x       y       z     vdW  Elec       q    Type
REMARK                         _______ _______ _______ _____ _____    ______ ____
ROOT
ATOM      1  C   LIG    1       25.698 -17.127   3.422  0.00  0.00    +0.064 C 
ATOM      2  C   LIG    1       25.904 -15.596   3.239  0.00  0.00    +0.117 C 
ATOM      3  C   LIG    1       27.372 -15.318   2.873  0.00  0.00    +0.062 C 
ATOM      4  C   LIG    1       28.329 -15.808   3.975  0.00  0.00    +0.151 C 
ATOM      5  C   LIG    1       27.983 -17.162   4.558  0.00  0.00    -0.011 A 
ATOM      6  C   LIG    1       28.939 -17.786   5.383  0.00  0.00    +0.056 A 
ATOM      7  C   LIG    1       28.657 -19.031   5.895  0.00  0.00    +0.167 A 
ATOM      8  O   LIG    1       29.470 -19.760   6.703  0.00  0.00    -0.453 OA
ATOM      9  C   LIG    1       28.658 -20.935   6.912  0.00  0.00    +0.466 C 
ATOM     10  O   LIG    1       27.410 -20.904   6.190  0.00  0.00    -0.453 OA
ATOM     11  C   LIG    1       27.482 -19.677   5.608  0.00  0.00    +0.167 A 
ATOM     12  C   LIG    1       26.515 -19.100   4.816  0.00  0.00    +0.054 A 
ATOM     13  C   LIG    1       26.736 -17.799   4.313  0.00  0.00    -0.030 A 
ENDROOT
BRANCH   1  18
ATOM     14  C   LIG    1       21.989 -17.038   4.516  0.00  0.00    +0.165 A 
ATOM     15  C   LIG    1       21.570 -18.338   4.166  0.00  0.00    +0.203 A 
ATOM     16  C   LIG    1       22.513 -19.230   3.595  0.00  0.00    +0.165 A 
ATOM     17  C   LIG    1       23.829 -18.809   3.379  0.00  0.00    +0.053 A 
ATOM     18  C   LIG    1       24.242 -17.508   3.682  0.00  0.00    -0.032 A 
ATOM     19  C   LIG    1       23.307 -16.635   4.250  0.00  0.00    +0.053 A 
BRANCH  14  21
ATOM     20  C   LIG    1       21.543 -15.357   6.153  0.00  0.00    +0.277 C 
ATOM     21  O   LIG    1       21.088 -16.168   5.074  0.00  0.00    -0.491 OA
ENDBRANCH  14  21
BRANCH  15  22
ATOM     22  O   LIG    1       20.307 -18.862   4.326  0.00  0.00    -0.488 OA
ATOM     23  C   LIG    1       19.500 -19.118   3.184  0.00  0.00    +0.277 C 
ENDBRANCH  15  22
BRANCH  16  24
ATOM     24  O   LIG    1       22.109 -20.523   3.354  0.00  0.00    -0.491 OA
ATOM     25  C   LIG    1       23.090 -21.555   3.418  0.00  0.00    +0.277 C 
ENDBRANCH  16  24
ENDBRANCH   1  18
BRANCH   2  26
ATOM     26  C   LIG    1       25.502 -14.744   4.429  0.00  0.00    +0.309 C 
ATOM     27  O   LIG    1       26.187 -14.576   5.447  0.00  0.00    -0.251 OA
BRANCH  26  28
ATOM     28  O   LIG    1       24.355 -14.073   4.231  0.00  0.00    -0.480 OA
ATOM     29  H   LIG    1       24.102 -14.005   3.272  0.00  0.00    +0.295 HD
ENDBRANCH  26  28
ENDBRANCH   2  26
BRANCH   4  30
ATOM     30  O   LIG    1       28.405 -14.853   5.028  0.00  0.00    -0.387 OA
ATOM     31  H   LIG    1       27.608 -14.954   5.590  0.00  0.00    +0.210 HD
ENDBRANCH   4  30
BRANCH   3  32
ATOM     32  C   LIG    1       27.621 -13.846   2.527  0.00  0.00    +0.163 C 
BRANCH  32  33
ATOM     33  O   LIG    1       27.619 -13.077   3.731  0.00  0.00    -0.395 OA
ATOM     34  H   LIG    1       27.031 -12.315   3.570  0.00  0.00    +0.209 HD
ENDBRANCH  32  33
ENDBRANCH   3  32
TORSDOF 9
ENDMDL
