MODEL 1
REMARK VINA RESULT:      -8.3      0.000      0.000
REMARK  Name = *****
REMARK                            x       y       z     vdW  Elec       q    Type
REMARK                         _______ _______ _______ _____ _____    ______ ____
ROOT
ATOM      1  C   LIG    1       26.541 -21.688   6.639  0.00  0.00    +0.119 A 
ATOM      2  C   LIG    1       26.375 -20.625   5.739  0.00  0.00    +0.083 A 
ATOM      3  C   LIG    1       27.382 -19.624   5.703  0.00  0.00    +0.039 A 
ATOM      4  C   LIG    1       28.512 -19.648   6.532  0.00  0.00    +0.056 A 
ATOM      5  N   LIG    1       29.472 -18.654   6.405  0.00  0.00    -0.326 N 
ATOM      6  H   LIG    1       29.144 -17.791   5.979  0.00  0.00    +0.148 HD
ATOM      7  C   LIG    1       30.467 -18.446   7.443  0.00  0.00    +0.164 C 
ATOM      8  N   LIG    1       31.117 -19.705   7.780  0.00  0.00    -0.170 NA
ATOM      9  H   LIG    1       31.842 -19.551   8.483  0.00  0.00    +0.150 HD
ATOM     10  S   LIG    1       30.107 -20.919   8.327  0.00  0.00    +0.062 S 
ATOM     11  O   LIG    1       29.737 -20.599   9.687  0.00  0.00    -0.153 OA
ATOM     12  O   LIG    1       30.737 -22.178   8.000  0.00  0.00    -0.153 OA
ATOM     13  C   LIG    1       28.660 -20.757   7.354  0.00  0.00    +0.128 A 
ATOM     14  C   LIG    1       27.691 -21.762   7.435  0.00  0.00    +0.059 A 
ENDROOT
BRANCH   2  15
ATOM     15  C   LIG    1       25.222 -20.440   4.777  0.00  0.00    +0.419 C 
ATOM     16  F   LIG    1       25.473 -19.420   3.905  0.00  0.00    -0.166 F 
ATOM     17  F   LIG    1       24.081 -20.076   5.430  0.00  0.00    -0.166 F 
ATOM     18  F   LIG    1       24.876 -21.491   3.995  0.00  0.00    -0.166 F 
ENDBRANCH   2  15
BRANCH   1  19
ATOM     19  S   LIG    1       25.323 -22.960   6.860  0.00  0.00    +0.057 S 
ATOM     20  O   LIG    1       25.902 -24.037   7.624  0.00  0.00    -0.153 OA
ATOM     21  O   LIG    1       24.086 -22.325   7.244  0.00  0.00    -0.153 OA
BRANCH  19  22
ATOM     22  N   LIG    1       25.150 -23.569   5.312  0.00  0.00    -0.203 NA
ATOM     23  H   LIG    1       25.464 -22.879   4.627  0.00  0.00    +0.144 HD
ATOM     24  H   LIG    1       25.630 -24.470   5.240  0.00  0.00    +0.144 HD
ENDBRANCH  19  22
ENDBRANCH   1  19
BRANCH   7  25
ATOM     25  C   LIG    1       29.905 -17.659   8.649  0.00  0.00    +0.075 C 
BRANCH  25  26
ATOM     26  C   LIG    1       30.959 -17.150   9.611  0.00  0.00    -0.044 A 
ATOM     27  C   LIG    1       32.058 -16.409   9.154  0.00  0.00    +0.003 A 
ATOM     28  C   LIG    1       33.025 -15.950  10.049  0.00  0.00    +0.000 A 
ATOM     29  C   LIG    1       32.901 -16.214  11.411  0.00  0.00    +0.000 A 
ATOM     30  C   LIG    1       31.811 -16.940  11.880  0.00  0.00    +0.000 A 
ATOM     31  C   LIG    1       30.845 -17.405  10.986  0.00  0.00    +0.003 A 
ENDBRANCH  25  26
ENDBRANCH   7  25
TORSDOF 5
ENDMDL
MODEL 2
REMARK VINA RESULT:      -8.0      1.790      2.139
REMARK  Name = *****
REMARK                            x       y       z     vdW  Elec       q    Type
REMARK                         _______ _______ _______ _____ _____    ______ ____
ROOT
ATOM      1  C   LIG    1       24.983 -20.585   5.955  0.00  0.00    +0.119 A 
ATOM      2  C   LIG    1       25.482 -20.123   4.728  0.00  0.00    +0.083 A 
ATOM      3  C   LIG    1       26.862 -19.791   4.657  0.00  0.00    +0.039 A 
ATOM      4  C   LIG    1       27.728 -19.890   5.755  0.00  0.00    +0.056 A 
ATOM      5  N   LIG    1       29.072 -19.587   5.592  0.00  0.00    -0.326 N 
ATOM      6  H   LIG    1       29.284 -18.986   4.799  0.00  0.00    +0.148 HD
ATOM      7  C   LIG    1       29.925 -19.351   6.744  0.00  0.00    +0.164 C 
ATOM      8  N   LIG    1       29.787 -20.435   7.706  0.00  0.00    -0.170 NA
ATOM      9  H   LIG    1       30.415 -20.286   8.498  0.00  0.00    +0.150 HD
ATOM     10  S   LIG    1       28.245 -20.687   8.299  0.00  0.00    +0.062 S 
ATOM     11  O   LIG    1       27.968 -19.636   9.252  0.00  0.00    -0.153 OA
ATOM     12  O   LIG    1       28.155 -22.079   8.676  0.00  0.00    -0.153 OA
ATOM     13  C   LIG    1       27.196 -20.416   6.924  0.00  0.00    +0.128 A 
ATOM     14  C   LIG    1       25.843 -20.746   7.048  0.00  0.00    +0.059 A 
ENDROOT
BRANCH   2  15
ATOM     15  C   LIG    1       24.693 -19.954   3.448  0.00  0.00    +0.419 C 
ATOM     16  F   LIG    1       25.521 -19.677   2.398  0.00  0.00    -0.166 F 
ATOM     17  F   LIG    1       23.845 -18.889   3.522  0.00  0.00    -0.166 F 
ATOM     18  F   LIG    1       23.936 -20.996   3.030  0.00  0.00    -0.166 F 
ENDBRANCH   2  15
BRANCH   1  19
ATOM     19  S   LIG    1       23.266 -20.949   6.217  0.00  0.00    +0.057 S 
ATOM     20  O   LIG    1       22.486 -19.772   5.922  0.00  0.00    -0.153 OA
ATOM     21  O   LIG    1       22.987 -22.227   5.610  0.00  0.00    -0.153 OA
BRANCH  19  22
ATOM     22  N   LIG    1       23.181 -21.120   7.879  0.00  0.00    -0.203 NA
ATOM     23  H   LIG    1       24.040 -20.775   8.311  0.00  0.00    +0.144 HD
ATOM     24  H   LIG    1       22.332 -20.668   8.229  0.00  0.00    +0.144 HD
ENDBRANCH  19  22
ENDBRANCH   1  19
BRANCH   7  25
ATOM     25  C   LIG    1       29.743 -17.932   7.331  0.00  0.00    +0.075 C 
BRANCH  25  26
ATOM     26  C   LIG    1       30.553 -17.662   8.581  0.00  0.00    -0.044 A 
ATOM     27  C   LIG    1       31.950 -17.564   8.531  0.00  0.00    +0.003 A 
ATOM     28  C   LIG    1       32.687 -17.321   9.692  0.00  0.00    +0.000 A 
ATOM     29  C   LIG    1       32.036 -17.161  10.913  0.00  0.00    +0.000 A 
ATOM     30  C   LIG    1       30.649 -17.247  10.977  0.00  0.00    +0.000 A 
ATOM     31  C   LIG    1       29.911 -17.495   9.818  0.00  0.00    +0.003 A 
ENDBRANCH  25  26
ENDBRANCH   7  25
TORSDOF 5
ENDMDL
MODEL 3
REMARK VINA RESULT:      -7.3      5.811      9.703
REMARK  Name = *****
REMARK                            x       y       z     vdW  Elec       q    Type
REMARK                         _______ _______ _______ _____ _____    ______ ____
ROOT
ATOM      1  C   LIG    1       24.842 -22.727   5.537  0.00  0.00    +0.119 A 
ATOM      2  C   LIG    1       25.323 -22.648   6.852  0.00  0.00    +0.083 A 
ATOM      3  C   LIG    1       25.778 -23.846   7.465  0.00  0.00    +0.039 A 
ATOM      4  C   LIG    1       25.748 -25.091   6.821  0.00  0.00    +0.056 A 
ATOM      5  N   LIG    1       26.250 -26.208   7.474  0.00  0.00    -0.326 N 
ATOM      6  H   LIG    1       26.285 -26.134   8.487  0.00  0.00    +0.148 HD
ATOM      7  C   LIG    1       25.941 -27.546   6.999  0.00  0.00    +0.164 C 
ATOM      8  N   LIG    1       26.218 -27.654   5.574  0.00  0.00    -0.170 NA
ATOM      9  H   LIG    1       26.036 -28.606   5.250  0.00  0.00    +0.150 HD
ATOM     10  S   LIG    1       25.379 -26.595   4.590  0.00  0.00    +0.062 S 
ATOM     11  O   LIG    1       24.020 -27.076   4.491  0.00  0.00    -0.153 OA
ATOM     12  O   LIG    1       26.184 -26.383   3.408  0.00  0.00    -0.153 OA
ATOM     13  C   LIG    1       25.326 -25.100   5.499  0.00  0.00    +0.128 A 
ATOM     14  C   LIG    1       24.858 -23.950   4.855  0.00  0.00    +0.059 A 
ENDROOT
BRANCH   2  15
ATOM     15  C   LIG    1       25.425 -21.394   7.693  0.00  0.00    +0.419 C 
ATOM     16  F   LIG    1       25.774 -21.695   8.978  0.00  0.00    -0.166 F 
ATOM     17  F   LIG    1       24.221 -20.761   7.792  0.00  0.00    -0.166 F 
ATOM     18  F   LIG    1       26.307 -20.442   7.305  0.00  0.00    -0.166 F 
ENDBRANCH   2  15
BRANCH   1  19
ATOM     19  S   LIG    1       24.158 -21.332   4.678  0.00  0.00    +0.057 S 
ATOM     20  O   LIG    1       22.827 -21.083   5.174  0.00  0.00    -0.153 OA
ATOM     21  O   LIG    1       25.166 -20.302   4.636  0.00  0.00    -0.153 OA
BRANCH  19  22
ATOM     22  N   LIG    1       23.941 -21.929   3.131  0.00  0.00    -0.203 NA
ATOM     23  H   LIG    1       22.959 -21.853   2.861  0.00  0.00    +0.144 HD
ATOM     24  H   LIG    1       24.584 -21.460   2.487  0.00  0.00    +0.144 HD
ENDBRANCH  19  22
ENDBRANCH   1  19
BRANCH   7  25
ATOM     25  C   LIG    1       24.530 -28.011   7.426  0.00  0.00    +0.075 C 
BRANCH  25  26
ATOM     26  C   LIG    1       24.345 -29.515   7.446  0.00  0.00    -0.044 A 
ATOM     27  C   LIG    1       24.346 -30.227   8.653  0.00  0.00    +0.003 A 
ATOM     28  C   LIG    1       24.180 -31.613   8.658  0.00  0.00    +0.000 A 
ATOM     29  C   LIG    1       24.000 -32.302   7.461  0.00  0.00    +0.000 A 
ATOM     30  C   LIG    1       23.988 -31.606   6.256  0.00  0.00    +0.000 A 
ATOM     31  C   LIG    1       24.159 -30.221   6.248  0.00  0.00    +0.003 A 
ENDBRANCH  25  26
ENDBRANCH   7  25
TORSDOF 5
ENDMDL
MODEL 4
REMARK VINA RESULT:      -7.3      9.930     11.310
REMARK  Name = *****
REMARK                            x       y       z     vdW  Elec       q    Type
REMARK                         _______ _______ _______ _____ _____    ______ ____
ROOT
ATOM      1  C   LIG    1       24.922 -30.183   7.405  0.00  0.00    +0.119 A 
ATOM      2  C   LIG    1       25.353 -28.903   7.782  0.00  0.00    +0.083 A 
ATOM      3  C   LIG    1       25.737 -28.705   9.135  0.00  0.00    +0.039 A 
ATOM      4  C   LIG    1       25.687 -29.721  10.100  0.00  0.00    +0.056 A 
ATOM      5  N   LIG    1       26.120 -29.457  11.391  0.00  0.00    -0.326 N 
ATOM      6  H   LIG    1       26.116 -28.475  11.653  0.00  0.00    +0.148 HD
ATOM      7  C   LIG    1       25.780 -30.351  12.485  0.00  0.00    +0.164 C 
ATOM      8  N   LIG    1       26.109 -31.725  12.136  0.00  0.00    -0.170 NA
ATOM      9  H   LIG    1       25.905 -32.348  12.920  0.00  0.00    +0.150 HD
ATOM     10  S   LIG    1       25.351 -32.331  10.775  0.00  0.00    +0.062 S 
ATOM     11  O   LIG    1       23.979 -32.616  11.131  0.00  0.00    -0.153 OA
ATOM     12  O   LIG    1       26.210 -33.357  10.229  0.00  0.00    -0.153 OA
ATOM     13  C   LIG    1       25.318 -30.984   9.657  0.00  0.00    +0.128 A 
ATOM     14  C   LIG    1       24.919 -31.227   8.339  0.00  0.00    +0.059 A 
ENDROOT
BRANCH   2  15
ATOM     15  C   LIG    1       25.468 -27.696   6.877  0.00  0.00    +0.419 C 
ATOM     16  F   LIG    1       26.171 -26.696   7.485  0.00  0.00    -0.166 F 
ATOM     17  F   LIG    1       24.244 -27.157   6.608  0.00  0.00    -0.166 F 
ATOM     18  F   LIG    1       26.067 -27.862   5.674  0.00  0.00    -0.166 F 
ENDBRANCH   2  15
BRANCH   1  19
ATOM     19  S   LIG    1       24.326 -30.556   5.775  0.00  0.00    +0.057 S 
ATOM     20  O   LIG    1       23.239 -29.662   5.458  0.00  0.00    -0.153 OA
ATOM     21  O   LIG    1       25.470 -30.710   4.911  0.00  0.00    -0.153 OA
BRANCH  19  22
ATOM     22  N   LIG    1       23.610 -32.053   5.983  0.00  0.00    -0.203 NA
ATOM     23  H   LIG    1       22.802 -32.144   5.365  0.00  0.00    +0.144 HD
ATOM     24  H   LIG    1       24.309 -32.790   5.859  0.00  0.00    +0.144 HD
ENDBRANCH  19  22
ENDBRANCH   1  19
BRANCH   7  25
ATOM     25  C   LIG    1       24.336 -30.136  12.995  0.00  0.00    +0.075 C 
BRANCH  25  26
ATOM     26  C   LIG    1       23.961 -28.686  13.220  0.00  0.00    -0.044 A 
ATOM     27  C   LIG    1       24.898 -27.763  13.704  0.00  0.00    +0.003 A 
ATOM     28  C   LIG    1       24.539 -26.431  13.913  0.00  0.00    +0.000 A 
ATOM     29  C   LIG    1       23.245 -26.001  13.630  0.00  0.00    +0.000 A 
ATOM     30  C   LIG    1       22.306 -26.905  13.141  0.00  0.00    +0.000 A 
ATOM     31  C   LIG    1       22.662 -28.239  12.936  0.00  0.00    +0.003 A 
ENDBRANCH  25  26
ENDBRANCH   7  25
TORSDOF 5
ENDMDL
MODEL 5
REMARK VINA RESULT:      -7.2     10.128     11.354
REMARK  Name = *****
REMARK                            x       y       z     vdW  Elec       q    Type
REMARK                         _______ _______ _______ _____ _____    ______ ____
ROOT
ATOM      1  C   LIG    1       26.532 -31.139   8.868  0.00  0.00    +0.119 A 
ATOM      2  C   LIG    1       25.629 -30.141   8.473  0.00  0.00    +0.083 A 
ATOM      3  C   LIG    1       25.517 -28.987   9.294  0.00  0.00    +0.039 A 
ATOM      4  C   LIG    1       26.252 -28.817  10.476  0.00  0.00    +0.056 A 
ATOM      5  N   LIG    1       26.117 -27.641  11.199  0.00  0.00    -0.326 N 
ATOM      6  H   LIG    1       25.253 -27.130  11.032  0.00  0.00    +0.148 HD
ATOM      7  C   LIG    1       26.584 -27.556  12.572  0.00  0.00    +0.164 C 
ATOM      8  N   LIG    1       27.958 -28.026  12.669  0.00  0.00    -0.170 NA
ATOM      9  H   LIG    1       28.298 -27.931  13.627  0.00  0.00    +0.150 HD
ATOM     10  S   LIG    1       28.223 -29.601  12.173  0.00  0.00    +0.062 S 
ATOM     11  O   LIG    1       27.717 -30.474  13.208  0.00  0.00    -0.153 OA
ATOM     12  O   LIG    1       29.596 -29.684  11.730  0.00  0.00    -0.153 OA
ATOM     13  C   LIG    1       27.179 -29.803  10.781  0.00  0.00    +0.128 A 
ATOM     14  C   LIG    1       27.319 -30.963  10.013  0.00  0.00    +0.059 A 
ENDROOT
BRANCH   2  15
ATOM     15  C   LIG    1       24.759 -30.161   7.236  0.00  0.00    +0.419 C 
ATOM     16  F   LIG    1       24.072 -28.988   7.103  0.00  0.00    -0.166 F 
ATOM     17  F   LIG    1       23.799 -31.127   7.316  0.00  0.00    -0.166 F 
ATOM     18  F   LIG    1       25.365 -30.347   6.039  0.00  0.00    -0.166 F 
ENDBRANCH   2  15
BRANCH   1  19
ATOM     19  S   LIG    1       26.711 -32.673   7.993  0.00  0.00    +0.057 S 
ATOM     20  O   LIG    1       25.452 -33.375   8.014  0.00  0.00    -0.153 OA
ATOM     21  O   LIG    1       27.418 -32.402   6.765  0.00  0.00    -0.153 OA
BRANCH  19  22
ATOM     22  N   LIG    1       27.715 -33.552   9.001  0.00  0.00    -0.203 NA
ATOM     23  H   LIG    1       27.537 -33.303   9.976  0.00  0.00    +0.144 HD
ATOM     24  H   LIG    1       27.613 -34.551   8.805  0.00  0.00    +0.144 HD
ENDBRANCH  19  22
ENDBRANCH   1  19
BRANCH   7  25
ATOM     25  C   LIG    1       25.600 -28.207  13.571  0.00  0.00    +0.075 C 
BRANCH  25  26
ATOM     26  C   LIG    1       24.143 -27.881  13.318  0.00  0.00    -0.044 A 
ATOM     27  C   LIG    1       23.634 -26.600  13.570  0.00  0.00    +0.003 A 
ATOM     28  C   LIG    1       22.288 -26.314  13.337  0.00  0.00    +0.000 A 
ATOM     29  C   LIG    1       21.437 -27.298  12.839  0.00  0.00    +0.000 A 
ATOM     30  C   LIG    1       21.932 -28.572  12.576  0.00  0.00    +0.000 A 
ATOM     31  C   LIG    1       23.276 -28.862  12.812  0.00  0.00    +0.003 A 
ENDBRANCH  25  26
ENDBRANCH   7  25
TORSDOF 5
ENDMDL
MODEL 6
REMARK VINA RESULT:      -7.0      9.974     12.451
REMARK  Name = *****
REMARK                            x       y       z     vdW  Elec       q    Type
REMARK                         _______ _______ _______ _____ _____    ______ ____
ROOT
ATOM      1  C   LIG    1       25.493 -26.934  13.131  0.00  0.00    +0.119 A 
ATOM      2  C   LIG    1       24.182 -27.416  13.264  0.00  0.00    +0.083 A 
ATOM      3  C   LIG    1       23.837 -28.600  12.559  0.00  0.00    +0.039 A 
ATOM      4  C   LIG    1       24.739 -29.287  11.734  0.00  0.00    +0.056 A 
ATOM      5  N   LIG    1       24.337 -30.460  11.113  0.00  0.00    -0.326 N 
ATOM      6  H   LIG    1       23.331 -30.567  11.007  0.00  0.00    +0.148 HD
ATOM      7  C   LIG    1       25.100 -31.015  10.008  0.00  0.00    +0.164 C 
ATOM      8  N   LIG    1       26.508 -31.116  10.366  0.00  0.00    -0.170 NA
ATOM      9  H   LIG    1       27.037 -31.541   9.602  0.00  0.00    +0.150 HD
ATOM     10  S   LIG    1       27.254 -29.681  10.786  0.00  0.00    +0.062 S 
ATOM     11  O   LIG    1       27.486 -28.937   9.568  0.00  0.00    -0.153 OA
ATOM     12  O   LIG    1       28.342 -30.011  11.678  0.00  0.00    -0.153 OA
ATOM     13  C   LIG    1       26.040 -28.805  11.694  0.00  0.00    +0.128 A 
ATOM     14  C   LIG    1       26.426 -27.637  12.360  0.00  0.00    +0.059 A 
ENDROOT
BRANCH   2  15
ATOM     15  C   LIG    1       23.085 -26.802  14.106  0.00  0.00    +0.419 C 
ATOM     16  F   LIG    1       22.122 -27.725  14.399  0.00  0.00    -0.166 F 
ATOM     17  F   LIG    1       22.433 -25.812  13.431  0.00  0.00    -0.166 F 
ATOM     18  F   LIG    1       23.429 -26.266  15.300  0.00  0.00    -0.166 F 
ENDBRANCH   2  15
BRANCH   1  19
ATOM     19  S   LIG    1       26.039 -25.419  13.878  0.00  0.00    +0.057 S 
ATOM     20  O   LIG    1       25.221 -24.335  13.392  0.00  0.00    -0.153 OA
ATOM     21  O   LIG    1       26.231 -25.664  15.286  0.00  0.00    -0.153 OA
BRANCH  19  22
ATOM     22  N   LIG    1       27.536 -25.185  13.170  0.00  0.00    -0.203 NA
ATOM     23  H   LIG    1       27.748 -24.186  13.120  0.00  0.00    +0.144 HD
ATOM     24  H   LIG    1       28.243 -25.732  13.669  0.00  0.00    +0.144 HD
ENDBRANCH  19  22
ENDBRANCH   1  19
BRANCH   7  25
ATOM     25  C   LIG    1       24.817 -30.288   8.673  0.00  0.00    +0.075 C 
BRANCH  25  26
ATOM     26  C   LIG    1       25.087 -31.121   7.437  0.00  0.00    -0.044 A 
ATOM     27  C   LIG    1       25.009 -32.520   7.477  0.00  0.00    +0.003 A 
ATOM     28  C   LIG    1       25.265 -33.277   6.332  0.00  0.00    +0.000 A 
ATOM     29  C   LIG    1       25.589 -32.647   5.133  0.00  0.00    +0.000 A 
ATOM     30  C   LIG    1       25.661 -31.258   5.077  0.00  0.00    +0.000 A 
ATOM     31  C   LIG    1       25.410 -30.499   6.222  0.00  0.00    +0.003 A 
ENDBRANCH  25  26
ENDBRANCH   7  25
TORSDOF 5
ENDMDL
MODEL 7
REMARK VINA RESULT:      -7.0      5.816      9.246
REMARK  Name = *****
REMARK                            x       y       z     vdW  Elec       q    Type
REMARK                         _______ _______ _______ _____ _____    ______ ____
ROOT
ATOM      1  C   LIG    1       24.764 -22.757   5.681  0.00  0.00    +0.119 A 
ATOM      2  C   LIG    1       25.326 -22.690   6.965  0.00  0.00    +0.083 A 
ATOM      3  C   LIG    1       25.864 -23.885   7.515  0.00  0.00    +0.039 A 
ATOM      4  C   LIG    1       25.839 -25.114   6.841  0.00  0.00    +0.056 A 
ATOM      5  N   LIG    1       26.423 -26.226   7.430  0.00  0.00    -0.326 N 
ATOM      6  H   LIG    1       26.520 -26.176   8.441  0.00  0.00    +0.148 HD
ATOM      7  C   LIG    1       26.134 -27.563   6.940  0.00  0.00    +0.164 C 
ATOM      8  N   LIG    1       26.323 -27.626   5.498  0.00  0.00    -0.170 NA
ATOM      9  H   LIG    1       26.156 -28.575   5.161  0.00  0.00    +0.150 HD
ATOM     10  S   LIG    1       25.383 -26.577   4.598  0.00  0.00    +0.062 S 
ATOM     11  O   LIG    1       24.039 -27.107   4.573  0.00  0.00    -0.153 OA
ATOM     12  O   LIG    1       26.102 -26.304   3.374  0.00  0.00    -0.153 OA
ATOM     13  C   LIG    1       25.333 -25.107   5.549  0.00  0.00    +0.128 A 
ATOM     14  C   LIG    1       24.781 -23.961   4.967  0.00  0.00    +0.059 A 
ENDROOT
BRANCH   2  15
ATOM     15  C   LIG    1       25.434 -21.455   7.830  0.00  0.00    +0.419 C 
ATOM     16  F   LIG    1       26.441 -20.641   7.394  0.00  0.00    -0.166 F 
ATOM     17  F   LIG    1       25.767 -21.773   9.114  0.00  0.00    -0.166 F 
ATOM     18  F   LIG    1       24.349 -20.649   7.923  0.00  0.00    -0.166 F 
ENDBRANCH   2  15
BRANCH   1  19
ATOM     19  S   LIG    1       23.974 -21.369   4.905  0.00  0.00    +0.057 S 
ATOM     20  O   LIG    1       22.626 -21.258   5.403  0.00  0.00    -0.153 OA
ATOM     21  O   LIG    1       24.898 -20.261   4.936  0.00  0.00    -0.153 OA
BRANCH  19  22
ATOM     22  N   LIG    1       23.812 -21.883   3.322  0.00  0.00    -0.203 NA
ATOM     23  H   LIG    1       24.157 -22.839   3.227  0.00  0.00    +0.144 HD
ATOM     24  H   LIG    1       22.842 -21.761   3.018  0.00  0.00    +0.144 HD
ENDBRANCH  19  22
ENDBRANCH   1  19
BRANCH   7  25
ATOM     25  C   LIG    1       24.772 -28.094   7.443  0.00  0.00    +0.075 C 
BRANCH  25  26
ATOM     26  C   LIG    1       24.870 -29.257   8.409  0.00  0.00    -0.044 A 
ATOM     27  C   LIG    1       23.780 -30.110   8.626  0.00  0.00    +0.003 A 
ATOM     28  C   LIG    1       23.882 -31.176   9.522  0.00  0.00    +0.000 A 
ATOM     29  C   LIG    1       25.075 -31.409  10.202  0.00  0.00    +0.000 A 
ATOM     30  C   LIG    1       26.168 -30.575   9.989  0.00  0.00    +0.000 A 
ATOM     31  C   LIG    1       26.067 -29.506   9.097  0.00  0.00    +0.003 A 
ENDBRANCH  25  26
ENDBRANCH   7  25
TORSDOF 5
ENDMDL
MODEL 8
REMARK VINA RESULT:      -6.9      9.351     11.957
REMARK  Name = *****
REMARK                            x       y       z     vdW  Elec       q    Type
REMARK                         _______ _______ _______ _____ _____    ______ ____
ROOT
ATOM      1  C   LIG    1       23.794 -30.973  12.268  0.00  0.00    +0.119 A 
ATOM      2  C   LIG    1       22.666 -30.539  11.555  0.00  0.00    +0.083 A 
ATOM      3  C   LIG    1       22.847 -30.160  10.197  0.00  0.00    +0.039 A 
ATOM      4  C   LIG    1       24.094 -30.187   9.557  0.00  0.00    +0.056 A 
ATOM      5  N   LIG    1       24.179 -29.841   8.216  0.00  0.00    -0.326 N 
ATOM      6  H   LIG    1       23.417 -29.263   7.872  0.00  0.00    +0.148 HD
ATOM      7  C   LIG    1       25.462 -29.532   7.609  0.00  0.00    +0.164 C 
ATOM      8  N   LIG    1       26.425 -30.584   7.899  0.00  0.00    -0.170 NA
ATOM      9  H   LIG    1       27.316 -30.384   7.440  0.00  0.00    +0.150 HD
ATOM     10  S   LIG    1       26.722 -30.871   9.519  0.00  0.00    +0.062 S 
ATOM     11  O   LIG    1       27.558 -29.796  10.005  0.00  0.00    -0.153 OA
ATOM     12  O   LIG    1       27.134 -32.251   9.640  0.00  0.00    -0.153 OA
ATOM     13  C   LIG    1       25.161 -30.689  10.289  0.00  0.00    +0.128 A 
ATOM     14  C   LIG    1       25.037 -31.063  11.631  0.00  0.00    +0.059 A 
ENDROOT
BRANCH   2  15
ATOM     15  C   LIG    1       21.253 -30.446  12.086  0.00  0.00    +0.419 C 
ATOM     16  F   LIG    1       20.359 -30.277  11.068  0.00  0.00    -0.166 F 
ATOM     17  F   LIG    1       21.091 -29.352  12.885  0.00  0.00    -0.166 F 
ATOM     18  F   LIG    1       20.776 -31.493  12.800  0.00  0.00    -0.166 F 
ENDBRANCH   2  15
BRANCH   1  19
ATOM     19  S   LIG    1       23.737 -31.389  13.993  0.00  0.00    +0.057 S 
ATOM     20  O   LIG    1       23.256 -30.250  14.735  0.00  0.00    -0.153 OA
ATOM     21  O   LIG    1       23.134 -32.694  14.113  0.00  0.00    -0.153 OA
BRANCH  19  22
ATOM     22  N   LIG    1       25.357 -31.513  14.389  0.00  0.00    -0.203 NA
ATOM     23  H   LIG    1       25.842 -32.097  13.705  0.00  0.00    +0.144 HD
ATOM     24  H   LIG    1       25.760 -30.578  14.492  0.00  0.00    +0.144 HD
ENDBRANCH  19  22
ENDBRANCH   1  19
BRANCH   7  25
ATOM     25  C   LIG    1       25.941 -28.100   7.941  0.00  0.00    +0.075 C 
BRANCH  25  26
ATOM     26  C   LIG    1       25.676 -27.082   6.852  0.00  0.00    -0.044 A 
ATOM     27  C   LIG    1       25.303 -27.484   5.562  0.00  0.00    +0.003 A 
ATOM     28  C   LIG    1       25.066 -26.537   4.564  0.00  0.00    +0.000 A 
ATOM     29  C   LIG    1       25.187 -25.178   4.846  0.00  0.00    +0.000 A 
ATOM     30  C   LIG    1       25.547 -24.764   6.125  0.00  0.00    +0.000 A 
ATOM     31  C   LIG    1       25.789 -25.710   7.122  0.00  0.00    +0.003 A 
ENDBRANCH  25  26
ENDBRANCH   7  25
TORSDOF 5
ENDMDL
MODEL 9
REMARK VINA RESULT:      -6.6      7.309      9.550
REMARK  Name = *****
REMARK                            x       y       z     vdW  Elec       q    Type
REMARK                         _______ _______ _______ _____ _____    ______ ____
ROOT
ATOM      1  C   LIG    1       25.790 -29.503   8.461  0.00  0.00    +0.119 A 
ATOM      2  C   LIG    1       24.607 -29.976   7.874  0.00  0.00    +0.083 A 
ATOM      3  C   LIG    1       23.990 -29.166   6.883  0.00  0.00    +0.039 A 
ATOM      4  C   LIG    1       24.502 -27.922   6.487  0.00  0.00    +0.056 A 
ATOM      5  N   LIG    1       23.863 -27.212   5.481  0.00  0.00    -0.326 N 
ATOM      6  H   LIG    1       22.887 -27.456   5.337  0.00  0.00    +0.148 HD
ATOM      7  C   LIG    1       24.146 -25.802   5.274  0.00  0.00    +0.164 C 
ATOM      8  N   LIG    1       25.582 -25.582   5.183  0.00  0.00    -0.170 NA
ATOM      9  H   LIG    1       25.778 -24.596   4.999  0.00  0.00    +0.150 HD
ATOM     10  S   LIG    1       26.475 -26.055   6.515  0.00  0.00    +0.062 S 
ATOM     11  O   LIG    1       26.262 -25.072   7.553  0.00  0.00    -0.153 OA
ATOM     12  O   LIG    1       27.805 -26.371   6.047  0.00  0.00    -0.153 OA
ATOM     13  C   LIG    1       25.710 -27.536   7.051  0.00  0.00    +0.128 A 
ATOM     14  C   LIG    1       26.350 -28.291   8.039  0.00  0.00    +0.059 A 
ENDROOT
BRANCH   2  15
ATOM     15  C   LIG    1       23.919 -31.287   8.181  0.00  0.00    +0.419 C 
ATOM     16  F   LIG    1       23.209 -31.730   7.101  0.00  0.00    -0.166 F 
ATOM     17  F   LIG    1       22.997 -31.146   9.177  0.00  0.00    -0.166 F 
ATOM     18  F   LIG    1       24.692 -32.338   8.545  0.00  0.00    -0.166 F 
ENDBRANCH   2  15
BRANCH   1  19
ATOM     19  S   LIG    1       26.620 -30.362   9.775  0.00  0.00    +0.057 S 
ATOM     20  O   LIG    1       25.709 -30.520  10.881  0.00  0.00    -0.153 OA
ATOM     21  O   LIG    1       27.326 -31.479   9.196  0.00  0.00    -0.153 OA
BRANCH  19  22
ATOM     22  N   LIG    1       27.742 -29.235  10.294  0.00  0.00    -0.203 NA
ATOM     23  H   LIG    1       27.384 -28.734  11.109  0.00  0.00    +0.144 HD
ATOM     24  H   LIG    1       28.643 -29.693  10.453  0.00  0.00    +0.144 HD
ENDBRANCH  19  22
ENDBRANCH   1  19
BRANCH   7  25
ATOM     25  C   LIG    1       23.412 -24.897   6.291  0.00  0.00    +0.075 C 
BRANCH  25  26
ATOM     26  C   LIG    1       23.739 -23.424   6.169  0.00  0.00    -0.044 A 
ATOM     27  C   LIG    1       24.481 -22.935   5.086  0.00  0.00    +0.003 A 
ATOM     28  C   LIG    1       24.781 -21.575   4.988  0.00  0.00    +0.000 A 
ATOM     29  C   LIG    1       24.335 -20.686   5.963  0.00  0.00    +0.000 A 
ATOM     30  C   LIG    1       23.589 -21.157   7.040  0.00  0.00    +0.000 A 
ATOM     31  C   LIG    1       23.292 -22.517   7.142  0.00  0.00    +0.003 A 
ENDBRANCH  25  26
ENDBRANCH   7  25
TORSDOF 5
ENDMDL
