MODEL 1
REMARK VINA RESULT:      -9.1      0.000      0.000
REMARK  Name = *****
REMARK                            x       y       z     vdW  Elec       q    Type
REMARK                         _______ _______ _______ _____ _____    ______ ____
ROOT
ATOM      1  C   LIG    1       21.993 -19.350   4.577  0.00  0.00    +0.105 C 
ATOM      2  N   LIG    1       23.031 -20.350   4.855  0.00  0.00    -0.297 NA
ENDROOT
BRANCH   2   3
ATOM      3  C   LIG    1       23.324 -20.383   6.310  0.00  0.00    +0.120 C 
BRANCH   3   4
ATOM      4  C   LIG    1       24.581 -21.164   6.709  0.00  0.00    -0.026 A 
ATOM      5  C   LIG    1       24.637 -22.591   6.725  0.00  0.00    -0.013 A 
ATOM      6  C   LIG    1       25.879 -23.223   7.000  0.00  0.00    -0.018 A 
ATOM      7  C   LIG    1       26.004 -24.619   6.901  0.00  0.00    +0.008 A 
ATOM      8  C   LIG    1       24.919 -25.411   6.540  0.00  0.00    +0.001 A 
ATOM      9  C   LIG    1       23.679 -24.821   6.343  0.00  0.00    +0.001 A 
ATOM     10  C   LIG    1       26.996 -22.458   7.358  0.00  0.00    +0.008 A 
ATOM     11  C   LIG    1       26.927 -21.070   7.385  0.00  0.00    +0.001 A 
ATOM     12  C   LIG    1       23.535 -23.435   6.458  0.00  0.00    +0.009 A 
ATOM     13  C   LIG    1       25.740 -20.428   7.039  0.00  0.00    +0.005 A 
ENDBRANCH   3   4
ENDBRANCH   2   3
BRANCH   2  14
ATOM     14  C   LIG    1       24.253 -20.121   4.078  0.00  0.00    +0.112 C 
BRANCH  14  15
ATOM     15  C   LIG    1       24.595 -18.671   3.852  0.00  0.00    -0.003 C 
ATOM     16  C   LIG    1       25.767 -18.264   3.334  0.00  0.00    +0.057 C 
BRANCH  16  17
ATOM     17  C   LIG    1       26.147 -16.896   3.298  0.00  0.00    -0.074 C 
ATOM     18  C   LIG    1       26.335 -15.716   3.357  0.00  0.00    -0.092 C 
BRANCH  18  19
ATOM     19  C   LIG    1       26.456 -14.250   3.502  0.00  0.00    +0.024 C 
ATOM     20  C   LIG    1       25.710 -13.816   4.774  0.00  0.00    +0.024 C 
ATOM     21  C   LIG    1       25.822 -13.576   2.277  0.00  0.00    +0.024 C 
ATOM     22  C   LIG    1       27.937 -13.872   3.607  0.00  0.00    +0.024 C 
ENDBRANCH  18  19
ENDBRANCH  16  17
ENDBRANCH  14  15
ENDBRANCH   2  14
TORSDOF 6
ENDMDL
MODEL 2
REMARK VINA RESULT:      -8.8      0.664      2.527
REMARK  Name = *****
REMARK                            x       y       z     vdW  Elec       q    Type
REMARK                         _______ _______ _______ _____ _____    ______ ____
ROOT
ATOM      1  C   LIG    1       21.787 -18.850   4.414  0.00  0.00    +0.105 C 
ATOM      2  N   LIG    1       22.659 -20.018   4.584  0.00  0.00    -0.297 NA
ENDROOT
BRANCH   2   3
ATOM      3  C   LIG    1       22.934 -20.236   6.027  0.00  0.00    +0.120 C 
BRANCH   3   4
ATOM      4  C   LIG    1       23.726 -21.505   6.360  0.00  0.00    -0.026 A 
ATOM      5  C   LIG    1       25.114 -21.490   6.694  0.00  0.00    -0.013 A 
ATOM      6  C   LIG    1       25.734 -22.703   7.096  0.00  0.00    -0.018 A 
ATOM      7  C   LIG    1       27.063 -22.706   7.553  0.00  0.00    +0.008 A 
ATOM      8  C   LIG    1       27.801 -21.528   7.614  0.00  0.00    +0.001 A 
ATOM      9  C   LIG    1       27.240 -20.346   7.153  0.00  0.00    +0.001 A 
ATOM     10  C   LIG    1       25.020 -23.906   7.057  0.00  0.00    +0.008 A 
ATOM     11  C   LIG    1       23.680 -23.926   6.688  0.00  0.00    +0.001 A 
ATOM     12  C   LIG    1       25.926 -20.332   6.677  0.00  0.00    +0.009 A 
ATOM     13  C   LIG    1       23.032 -22.734   6.369  0.00  0.00    +0.005 A 
ENDBRANCH   3   4
ENDBRANCH   2   3
BRANCH   2  14
ATOM     14  C   LIG    1       23.907 -19.902   3.823  0.00  0.00    +0.112 C 
BRANCH  14  15
ATOM     15  C   LIG    1       24.398 -18.492   3.627  0.00  0.00    -0.003 C 
ATOM     16  C   LIG    1       25.686 -18.189   3.387  0.00  0.00    +0.057 C 
BRANCH  16  17
ATOM     17  C   LIG    1       26.164 -16.851   3.388  0.00  0.00    -0.074 C 
ATOM     18  C   LIG    1       26.417 -15.683   3.430  0.00  0.00    -0.092 C 
BRANCH  18  19
ATOM     19  C   LIG    1       26.601 -14.219   3.515  0.00  0.00    +0.024 C 
ATOM     20  C   LIG    1       26.058 -13.576   2.229  0.00  0.00    +0.024 C 
ATOM     21  C   LIG    1       28.099 -13.914   3.651  0.00  0.00    +0.024 C 
ATOM     22  C   LIG    1       25.838 -13.683   4.732  0.00  0.00    +0.024 C 
ENDBRANCH  18  19
ENDBRANCH  16  17
ENDBRANCH  14  15
ENDBRANCH   2  14
TORSDOF 6
ENDMDL
MODEL 3
REMARK VINA RESULT:      -8.4      2.194      5.971
REMARK  Name = *****
REMARK                            x       y       z     vdW  Elec       q    Type
REMARK                         _______ _______ _______ _____ _____    ______ ____
ROOT
ATOM      1  C   LIG    1       24.404 -24.557   6.503  0.00  0.00    +0.105 C 
ATOM      2  N   LIG    1       23.911 -23.176   6.457  0.00  0.00    -0.297 NA
ENDROOT
BRANCH   2   3
ATOM      3  C   LIG    1       24.436 -22.493   5.247  0.00  0.00    +0.120 C 
BRANCH   3   4
ATOM      4  C   LIG    1       23.776 -21.151   4.913  0.00  0.00    -0.026 A 
ATOM      5  C   LIG    1       24.516 -20.003   4.497  0.00  0.00    -0.013 A 
ATOM      6  C   LIG    1       23.807 -18.838   4.101  0.00  0.00    -0.018 A 
ATOM      7  C   LIG    1       24.492 -17.734   3.567  0.00  0.00    +0.008 A 
ATOM      8  C   LIG    1       25.875 -17.753   3.419  0.00  0.00    +0.001 A 
ATOM      9  C   LIG    1       26.594 -18.851   3.870  0.00  0.00    +0.001 A 
ATOM     10  C   LIG    1       22.413 -18.784   4.227  0.00  0.00    +0.008 A 
ATOM     11  C   LIG    1       21.698 -19.888   4.676  0.00  0.00    +0.001 A 
ATOM     12  C   LIG    1       25.927 -19.948   4.424  0.00  0.00    +0.009 A 
ATOM     13  C   LIG    1       22.369 -21.068   4.990  0.00  0.00    +0.005 A 
ENDBRANCH   3   4
ENDBRANCH   2   3
BRANCH   2  14
ATOM     14  C   LIG    1       24.242 -22.422   7.671  0.00  0.00    +0.112 C 
BRANCH  14  15
ATOM     15  C   LIG    1       25.679 -21.982   7.769  0.00  0.00    -0.003 C 
ATOM     16  C   LIG    1       26.044 -20.732   8.105  0.00  0.00    +0.057 C 
BRANCH  16  17
ATOM     17  C   LIG    1       27.389 -20.283   8.014  0.00  0.00    -0.074 C 
ATOM     18  C   LIG    1       28.467 -19.802   7.826  0.00  0.00    -0.092 C 
BRANCH  18  19
ATOM     19  C   LIG    1       29.742 -19.129   7.502  0.00  0.00    +0.024 C 
ATOM     20  C   LIG    1       30.882 -20.157   7.594  0.00  0.00    +0.024 C 
ATOM     21  C   LIG    1       29.982 -18.003   8.516  0.00  0.00    +0.024 C 
ATOM     22  C   LIG    1       29.666 -18.557   6.082  0.00  0.00    +0.024 C 
ENDBRANCH  18  19
ENDBRANCH  16  17
ENDBRANCH  14  15
ENDBRANCH   2  14
TORSDOF 6
ENDMDL
MODEL 4
REMARK VINA RESULT:      -8.2      3.082      7.559
REMARK  Name = *****
REMARK                            x       y       z     vdW  Elec       q    Type
REMARK                         _______ _______ _______ _____ _____    ______ ____
ROOT
ATOM      1  C   LIG    1       23.265 -19.215   4.123  0.00  0.00    +0.105 C 
ATOM      2  N   LIG    1       23.646 -19.998   5.304  0.00  0.00    -0.297 NA
ENDROOT
BRANCH   2   3
ATOM      3  C   LIG    1       24.994 -20.589   5.104  0.00  0.00    +0.120 C 
BRANCH   3   4
ATOM      4  C   LIG    1       25.891 -20.613   6.346  0.00  0.00    -0.026 A 
ATOM      5  C   LIG    1       27.209 -20.064   6.363  0.00  0.00    -0.013 A 
ATOM      6  C   LIG    1       27.921 -20.032   7.592  0.00  0.00    -0.018 A 
ATOM      7  C   LIG    1       29.167 -19.388   7.677  0.00  0.00    +0.008 A 
ATOM      8  C   LIG    1       29.733 -18.776   6.563  0.00  0.00    +0.001 A 
ATOM      9  C   LIG    1       29.090 -18.862   5.337  0.00  0.00    +0.001 A 
ATOM     10  C   LIG    1       27.380 -20.630   8.736  0.00  0.00    +0.008 A 
ATOM     11  C   LIG    1       26.114 -21.204   8.706  0.00  0.00    +0.001 A 
ATOM     12  C   LIG    1       27.860 -19.518   5.233  0.00  0.00    +0.009 A 
ATOM     13  C   LIG    1       25.366 -21.172   7.531  0.00  0.00    +0.005 A 
ENDBRANCH   3   4
ENDBRANCH   2   3
BRANCH   2  14
ATOM     14  C   LIG    1       22.661 -21.035   5.632  0.00  0.00    +0.112 C 
BRANCH  14  15
ATOM     15  C   LIG    1       23.177 -22.447   5.539  0.00  0.00    -0.003 C 
ATOM     16  C   LIG    1       22.970 -23.368   6.496  0.00  0.00    +0.057 C 
BRANCH  16  17
ATOM     17  C   LIG    1       23.614 -24.635   6.482  0.00  0.00    -0.074 C 
ATOM     18  C   LIG    1       24.238 -25.646   6.343  0.00  0.00    -0.092 C 
BRANCH  18  19
ATOM     19  C   LIG    1       25.069 -26.836   6.066  0.00  0.00    +0.024 C 
ATOM     20  C   LIG    1       24.158 -28.073   6.009  0.00  0.00    +0.024 C 
ATOM     21  C   LIG    1       26.093 -27.002   7.198  0.00  0.00    +0.024 C 
ATOM     22  C   LIG    1       25.787 -26.651   4.725  0.00  0.00    +0.024 C 
ENDBRANCH  18  19
ENDBRANCH  16  17
ENDBRANCH  14  15
ENDBRANCH   2  14
TORSDOF 6
ENDMDL
MODEL 5
REMARK VINA RESULT:      -8.0      4.598     10.097
REMARK  Name = *****
REMARK                            x       y       z     vdW  Elec       q    Type
REMARK                         _______ _______ _______ _____ _____    ______ ____
ROOT
ATOM      1  C   LIG    1       25.870 -26.761   4.245  0.00  0.00    +0.105 C 
ATOM      2  N   LIG    1       25.030 -26.432   5.401  0.00  0.00    -0.297 NA
ENDROOT
BRANCH   2   3
ATOM      3  C   LIG    1       25.706 -25.413   6.244  0.00  0.00    +0.120 C 
BRANCH   3   4
ATOM      4  C   LIG    1       24.835 -24.225   6.663  0.00  0.00    -0.026 A 
ATOM      5  C   LIG    1       25.377 -23.006   7.173  0.00  0.00    -0.013 A 
ATOM      6  C   LIG    1       24.497 -21.920   7.429  0.00  0.00    -0.018 A 
ATOM      7  C   LIG    1       25.004 -20.667   7.810  0.00  0.00    +0.008 A 
ATOM      8  C   LIG    1       26.373 -20.463   7.953  0.00  0.00    +0.001 A 
ATOM      9  C   LIG    1       27.244 -21.529   7.784  0.00  0.00    +0.001 A 
ATOM     10  C   LIG    1       23.114 -22.085   7.287  0.00  0.00    +0.008 A 
ATOM     11  C   LIG    1       22.585 -23.288   6.833  0.00  0.00    +0.001 A 
ATOM     12  C   LIG    1       26.751 -22.788   7.424  0.00  0.00    +0.009 A 
ATOM     13  C   LIG    1       23.438 -24.338   6.498  0.00  0.00    +0.005 A 
ENDBRANCH   3   4
ENDBRANCH   2   3
BRANCH   2  14
ATOM     14  C   LIG    1       24.675 -27.616   6.191  0.00  0.00    +0.112 C 
BRANCH  14  15
ATOM     15  C   LIG    1       25.536 -27.845   7.406  0.00  0.00    -0.003 C 
ATOM     16  C   LIG    1       25.518 -28.987   8.114  0.00  0.00    +0.057 C 
BRANCH  16  17
ATOM     17  C   LIG    1       26.194 -29.121   9.357  0.00  0.00    -0.074 C 
ATOM     18  C   LIG    1       26.672 -29.111  10.453  0.00  0.00    -0.092 C 
BRANCH  18  19
ATOM     19  C   LIG    1       27.182 -28.995  11.835  0.00  0.00    +0.024 C 
ATOM     20  C   LIG    1       28.675 -29.361  11.844  0.00  0.00    +0.024 C 
ATOM     21  C   LIG    1       26.407 -29.968  12.734  0.00  0.00    +0.024 C 
ATOM     22  C   LIG    1       26.992 -27.555  12.326  0.00  0.00    +0.024 C 
ENDBRANCH  18  19
ENDBRANCH  16  17
ENDBRANCH  14  15
ENDBRANCH   2  14
TORSDOF 6
ENDMDL
MODEL 6
REMARK VINA RESULT:      -7.9      3.062      9.151
REMARK  Name = *****
REMARK                            x       y       z     vdW  Elec       q    Type
REMARK                         _______ _______ _______ _____ _____    ______ ____
ROOT
ATOM      1  C   LIG    1       22.398 -23.373   6.586  0.00  0.00    +0.105 C 
ATOM      2  N   LIG    1       23.726 -23.184   7.181  0.00  0.00    -0.297 NA
ENDROOT
BRANCH   2   3
ATOM      3  C   LIG    1       23.947 -21.745   7.475  0.00  0.00    +0.120 C 
BRANCH   3   4
ATOM      4  C   LIG    1       24.735 -20.971   6.412  0.00  0.00    -0.026 A 
ATOM      5  C   LIG    1       26.111 -20.622   6.566  0.00  0.00    -0.013 A 
ATOM      6  C   LIG    1       26.785 -20.003   5.480  0.00  0.00    -0.018 A 
ATOM      7  C   LIG    1       28.168 -19.759   5.545  0.00  0.00    +0.008 A 
ATOM      8  C   LIG    1       28.903 -20.110   6.673  0.00  0.00    +0.001 A 
ATOM      9  C   LIG    1       28.251 -20.644   7.775  0.00  0.00    +0.001 A 
ATOM     10  C   LIG    1       26.080 -19.644   4.325  0.00  0.00    +0.008 A 
ATOM     11  C   LIG    1       24.730 -19.944   4.195  0.00  0.00    +0.001 A 
ATOM     12  C   LIG    1       26.872 -20.873   7.731  0.00  0.00    +0.009 A 
ATOM     13  C   LIG    1       24.069 -20.625   5.216  0.00  0.00    +0.005 A 
ENDBRANCH   3   4
ENDBRANCH   2   3
BRANCH   2  14
ATOM     14  C   LIG    1       24.800 -23.718   6.337  0.00  0.00    +0.112 C 
BRANCH  14  15
ATOM     15  C   LIG    1       25.210 -25.132   6.657  0.00  0.00    -0.003 C 
ATOM     16  C   LIG    1       24.547 -26.209   6.201  0.00  0.00    +0.057 C 
BRANCH  16  17
ATOM     17  C   LIG    1       24.832 -27.525   6.658  0.00  0.00    -0.074 C 
ATOM     18  C   LIG    1       25.022 -28.580   7.186  0.00  0.00    -0.092 C 
BRANCH  18  19
ATOM     19  C   LIG    1       25.215 -29.829   7.954  0.00  0.00    +0.024 C 
ATOM     20  C   LIG    1       23.902 -30.174   8.674  0.00  0.00    +0.024 C 
ATOM     21  C   LIG    1       26.328 -29.610   8.987  0.00  0.00    +0.024 C 
ATOM     22  C   LIG    1       25.599 -30.959   6.992  0.00  0.00    +0.024 C 
ENDBRANCH  18  19
ENDBRANCH  16  17
ENDBRANCH  14  15
ENDBRANCH   2  14
TORSDOF 6
ENDMDL
MODEL 7
REMARK VINA RESULT:      -7.8      4.523     10.767
REMARK  Name = *****
REMARK                            x       y       z     vdW  Elec       q    Type
REMARK                         _______ _______ _______ _____ _____    ______ ____
ROOT
ATOM      1  C   LIG    1       25.554 -26.379   4.245  0.00  0.00    +0.105 C 
ATOM      2  N   LIG    1       25.159 -26.584   5.643  0.00  0.00    -0.297 NA
ENDROOT
BRANCH   2   3
ATOM      3  C   LIG    1       25.761 -25.528   6.497  0.00  0.00    +0.120 C 
BRANCH   3   4
ATOM      4  C   LIG    1       24.862 -24.319   6.777  0.00  0.00    -0.026 A 
ATOM      5  C   LIG    1       25.373 -23.051   7.191  0.00  0.00    -0.013 A 
ATOM      6  C   LIG    1       24.472 -21.959   7.317  0.00  0.00    -0.018 A 
ATOM      7  C   LIG    1       24.952 -20.669   7.598  0.00  0.00    +0.008 A 
ATOM      8  C   LIG    1       26.313 -20.433   7.765  0.00  0.00    +0.001 A 
ATOM      9  C   LIG    1       27.201 -21.497   7.722  0.00  0.00    +0.001 A 
ATOM     10  C   LIG    1       23.097 -22.157   7.147  0.00  0.00    +0.008 A 
ATOM     11  C   LIG    1       22.597 -23.403   6.789  0.00  0.00    +0.001 A 
ATOM     12  C   LIG    1       26.735 -22.790   7.464  0.00  0.00    +0.009 A 
ATOM     13  C   LIG    1       23.473 -24.467   6.579  0.00  0.00    +0.005 A 
ENDBRANCH   3   4
ENDBRANCH   2   3
BRANCH   2  14
ATOM     14  C   LIG    1       25.509 -27.920   6.135  0.00  0.00    +0.112 C 
BRANCH  14  15
ATOM     15  C   LIG    1       24.703 -28.388   7.319  0.00  0.00    -0.003 C 
ATOM     16  C   LIG    1       24.915 -29.564   7.934  0.00  0.00    +0.057 C 
BRANCH  16  17
ATOM     17  C   LIG    1       24.034 -30.073   8.926  0.00  0.00    -0.074 C 
ATOM     18  C   LIG    1       23.304 -30.355   9.830  0.00  0.00    -0.092 C 
BRANCH  18  19
ATOM     19  C   LIG    1       22.422 -30.581  10.994  0.00  0.00    +0.024 C 
ATOM     20  C   LIG    1       22.527 -29.371  11.936  0.00  0.00    +0.024 C 
ATOM     21  C   LIG    1       22.883 -31.847  11.728  0.00  0.00    +0.024 C 
ATOM     22  C   LIG    1       20.977 -30.745  10.509  0.00  0.00    +0.024 C 
ENDBRANCH  18  19
ENDBRANCH  16  17
ENDBRANCH  14  15
ENDBRANCH   2  14
TORSDOF 6
ENDMDL
MODEL 8
REMARK VINA RESULT:      -7.7      2.170      7.983
REMARK  Name = *****
REMARK                            x       y       z     vdW  Elec       q    Type
REMARK                         _______ _______ _______ _____ _____    ______ ____
ROOT
ATOM      1  C   LIG    1       22.151 -20.693   4.998  0.00  0.00    +0.105 C 
ATOM      2  N   LIG    1       23.384 -20.651   5.793  0.00  0.00    -0.297 NA
ENDROOT
BRANCH   2   3
ATOM      3  C   LIG    1       24.543 -21.035   4.947  0.00  0.00    +0.120 C 
BRANCH   3   4
ATOM      4  C   LIG    1       25.573 -19.928   4.703  0.00  0.00    -0.026 A 
ATOM      5  C   LIG    1       26.817 -19.856   5.401  0.00  0.00    -0.013 A 
ATOM      6  C   LIG    1       27.755 -18.857   5.026  0.00  0.00    -0.018 A 
ATOM      7  C   LIG    1       29.037 -18.833   5.601  0.00  0.00    +0.008 A 
ATOM      8  C   LIG    1       29.413 -19.776   6.551  0.00  0.00    +0.001 A 
ATOM      9  C   LIG    1       28.486 -20.712   6.988  0.00  0.00    +0.001 A 
ATOM     10  C   LIG    1       27.415 -17.896   4.067  0.00  0.00    +0.008 A 
ATOM     11  C   LIG    1       26.186 -17.941   3.420  0.00  0.00    +0.001 A 
ATOM     12  C   LIG    1       27.200 -20.736   6.439  0.00  0.00    +0.009 A 
ATOM     13  C   LIG    1       25.284 -18.962   3.715  0.00  0.00    +0.005 A 
ENDBRANCH   3   4
ENDBRANCH   2   3
BRANCH   2  14
ATOM     14  C   LIG    1       23.307 -21.490   6.993  0.00  0.00    +0.112 C 
BRANCH  14  15
ATOM     15  C   LIG    1       23.962 -22.840   6.861  0.00  0.00    -0.003 C 
ATOM     16  C   LIG    1       23.317 -23.929   6.408  0.00  0.00    +0.057 C 
BRANCH  16  17
ATOM     17  C   LIG    1       23.889 -25.228   6.462  0.00  0.00    -0.074 C 
ATOM     18  C   LIG    1       24.445 -26.283   6.370  0.00  0.00    -0.092 C 
BRANCH  18  19
ATOM     19  C   LIG    1       25.186 -27.541   6.142  0.00  0.00    +0.024 C 
ATOM     20  C   LIG    1       25.829 -27.984   7.466  0.00  0.00    +0.024 C 
ATOM     21  C   LIG    1       26.281 -27.291   5.096  0.00  0.00    +0.024 C 
ATOM     22  C   LIG    1       24.215 -28.618   5.645  0.00  0.00    +0.024 C 
ENDBRANCH  18  19
ENDBRANCH  16  17
ENDBRANCH  14  15
ENDBRANCH   2  14
TORSDOF 6
ENDMDL
MODEL 9
REMARK VINA RESULT:      -7.6      2.978      8.299
REMARK  Name = *****
REMARK                            x       y       z     vdW  Elec       q    Type
REMARK                         _______ _______ _______ _____ _____    ______ ____
ROOT
ATOM      1  C   LIG    1       24.153 -20.384   6.068  0.00  0.00    +0.105 C 
ATOM      2  N   LIG    1       25.299 -20.773   6.897  0.00  0.00    -0.297 NA
ENDROOT
BRANCH   2   3
ATOM      3  C   LIG    1       26.439 -21.167   6.030  0.00  0.00    +0.120 C 
BRANCH   3   4
ATOM      4  C   LIG    1       27.651 -20.230   6.072  0.00  0.00    -0.026 A 
ATOM      5  C   LIG    1       28.744 -20.412   6.973  0.00  0.00    -0.013 A 
ATOM      6  C   LIG    1       29.873 -19.557   6.860  0.00  0.00    -0.018 A 
ATOM      7  C   LIG    1       31.018 -19.784   7.641  0.00  0.00    +0.008 A 
ATOM      8  C   LIG    1       31.071 -20.842   8.544  0.00  0.00    +0.001 A 
ATOM      9  C   LIG    1       29.952 -21.641   8.725  0.00  0.00    +0.001 A 
ATOM     10  C   LIG    1       29.860 -18.488   5.957  0.00  0.00    +0.008 A 
ATOM     11  C   LIG    1       28.775 -18.284   5.112  0.00  0.00    +0.001 A 
ATOM     12  C   LIG    1       28.797 -21.415   7.969  0.00  0.00    +0.009 A 
ATOM     13  C   LIG    1       27.693 -19.162   5.150  0.00  0.00    +0.005 A 
ENDBRANCH   3   4
ENDBRANCH   2   3
BRANCH   2  14
ATOM     14  C   LIG    1       24.968 -21.840   7.847  0.00  0.00    +0.112 C 
BRANCH  14  15
ATOM     15  C   LIG    1       25.170 -23.237   7.322  0.00  0.00    -0.003 C 
ATOM     16  C   LIG    1       24.199 -23.943   6.718  0.00  0.00    +0.057 C 
BRANCH  16  17
ATOM     17  C   LIG    1       24.348 -25.318   6.395  0.00  0.00    -0.074 C 
ATOM     18  C   LIG    1       24.616 -26.467   6.196  0.00  0.00    -0.092 C 
BRANCH  18  19
ATOM     19  C   LIG    1       25.064 -27.863   6.015  0.00  0.00    +0.024 C 
ATOM     20  C   LIG    1       26.314 -27.870   5.121  0.00  0.00    +0.024 C 
ATOM     21  C   LIG    1       23.941 -28.661   5.337  0.00  0.00    +0.024 C 
ATOM     22  C   LIG    1       25.394 -28.471   7.383  0.00  0.00    +0.024 C 
ENDBRANCH  18  19
ENDBRANCH  16  17
ENDBRANCH  14  15
ENDBRANCH   2  14
TORSDOF 6
ENDMDL
