MODEL 1
REMARK VINA RESULT:      -9.1      0.000      0.000
REMARK  Name = *****
REMARK                            x       y       z     vdW  Elec       q    Type
REMARK                         _______ _______ _______ _____ _____    ______ ____
ROOT
ATOM      1  C   LIG    1       27.629 -20.337   6.878  0.00  0.00    +0.084 C 
ATOM      2  C   LIG    1       26.776 -20.335   5.608  0.00  0.00    +0.027 C 
ENDROOT
BRANCH   1   3
ATOM      3  N   LIG    1       29.005 -20.874   6.628  0.00  0.00    -0.305 NA
ATOM      4  H   LIG    1       29.032 -21.276   5.689  0.00  0.00    +0.123 HD
BRANCH   3   6
ATOM      5  C   LIG    1       29.657 -18.513   6.338  0.00  0.00    +0.027 C 
ATOM      6  C   LIG    1       30.118 -19.903   6.798  0.00  0.00    +0.088 C 
BRANCH   6   7
ATOM      7  C   LIG    1       30.561 -19.819   8.291  0.00  0.00    +0.247 C 
BRANCH   7   8
ATOM      8  O   LIG    1       29.894 -18.749   8.996  0.00  0.00    -0.490 OA
BRANCH   8   9
ATOM      9  C   LIG    1       30.712 -17.822   9.605  0.00  0.00    +0.121 A 
ATOM     10  C   LIG    1       30.369 -17.413  10.903  0.00  0.00    +0.045 A 
ATOM     11  C   LIG    1       31.240 -16.603  11.637  0.00  0.00    +0.004 A 
ATOM     12  C   LIG    1       32.437 -16.160  11.066  0.00  0.00    +0.000 A 
ATOM     13  C   LIG    1       32.724 -16.481   9.745  0.00  0.00    +0.004 A 
ATOM     14  C   LIG    1       31.853 -17.288   9.012  0.00  0.00    +0.045 A 
ENDBRANCH   8   9
ENDBRANCH   7   8
ENDBRANCH   6   7
ENDBRANCH   3   6
ENDBRANCH   1   3
BRANCH   1  15
ATOM     15  C   LIG    1       26.958 -21.211   8.006  0.00  0.00    +0.161 C 
BRANCH  15  16
ATOM     16  C   LIG    1       25.678 -21.928   7.621  0.00  0.00    -0.018 A 
ATOM     17  C   LIG    1       24.441 -21.271   7.680  0.00  0.00    +0.010 A 
ATOM     18  C   LIG    1       23.259 -21.922   7.301  0.00  0.00    +0.046 A 
ATOM     19  C   LIG    1       23.312 -23.242   6.858  0.00  0.00    +0.117 A 
ATOM     20  C   LIG    1       24.523 -23.911   6.781  0.00  0.00    +0.046 A 
ATOM     21  C   LIG    1       25.703 -23.258   7.159  0.00  0.00    +0.010 A 
BRANCH  19  22
ATOM     22  O   LIG    1       22.142 -23.841   6.503  0.00  0.00    -0.507 OA
ATOM     23  H   LIG    1       21.498 -23.717   7.219  0.00  0.00    +0.292 HD
ENDBRANCH  19  22
ENDBRANCH  15  16
BRANCH  15  24
ATOM     24  O   LIG    1       26.650 -20.347   9.113  0.00  0.00    -0.386 OA
ATOM     25  H   LIG    1       26.196 -20.932   9.755  0.00  0.00    +0.210 HD
ENDBRANCH  15  24
ENDBRANCH   1  15
TORSDOF 9
ENDMDL
MODEL 2
REMARK VINA RESULT:      -9.0      2.495      7.762
REMARK  Name = *****
REMARK                            x       y       z     vdW  Elec       q    Type
REMARK                         _______ _______ _______ _____ _____    ______ ____
ROOT
ATOM      1  C   LIG    1       26.274 -21.255   7.408  0.00  0.00    +0.084 C 
ATOM      2  C   LIG    1       26.344 -20.448   8.706  0.00  0.00    +0.027 C 
ENDROOT
BRANCH   1   3
ATOM      3  N   LIG    1       26.084 -22.717   7.667  0.00  0.00    -0.305 NA
ATOM      4  H   LIG    1       25.339 -22.832   8.357  0.00  0.00    +0.123 HD
BRANCH   3   6
ATOM      5  C   LIG    1       25.738 -25.031   6.887  0.00  0.00    +0.027 C 
ATOM      6  C   LIG    1       25.802 -23.555   6.471  0.00  0.00    +0.088 C 
BRANCH   6   7
ATOM      7  C   LIG    1       24.443 -23.155   5.820  0.00  0.00    +0.247 C 
BRANCH   7   8
ATOM      8  O   LIG    1       24.625 -22.373   4.618  0.00  0.00    -0.490 OA
BRANCH   8   9
ATOM      9  C   LIG    1       24.046 -21.122   4.616  0.00  0.00    +0.121 A 
ATOM     10  C   LIG    1       24.483 -20.212   3.642  0.00  0.00    +0.045 A 
ATOM     11  C   LIG    1       23.826 -18.989   3.480  0.00  0.00    +0.004 A 
ATOM     12  C   LIG    1       22.759 -18.648   4.315  0.00  0.00    +0.000 A 
ATOM     13  C   LIG    1       22.396 -19.507   5.346  0.00  0.00    +0.004 A 
ATOM     14  C   LIG    1       23.053 -20.727   5.508  0.00  0.00    +0.045 A 
ENDBRANCH   8   9
ENDBRANCH   7   8
ENDBRANCH   6   7
ENDBRANCH   3   6
ENDBRANCH   1   3
BRANCH   1  15
ATOM     15  C   LIG    1       27.592 -21.074   6.560  0.00  0.00    +0.161 C 
BRANCH  15  16
ATOM     16  C   LIG    1       28.811 -20.585   7.319  0.00  0.00    -0.018 A 
ATOM     17  C   LIG    1       29.600 -21.475   8.062  0.00  0.00    +0.010 A 
ATOM     18  C   LIG    1       30.741 -21.031   8.744  0.00  0.00    +0.046 A 
ATOM     19  C   LIG    1       31.101 -19.686   8.682  0.00  0.00    +0.117 A 
ATOM     20  C   LIG    1       30.345 -18.788   7.946  0.00  0.00    +0.046 A 
ATOM     21  C   LIG    1       29.204 -19.234   7.265  0.00  0.00    +0.010 A 
BRANCH  19  22
ATOM     22  O   LIG    1       32.213 -19.294   9.360  0.00  0.00    -0.507 OA
ATOM     23  H   LIG    1       31.993 -18.516   9.898  0.00  0.00    +0.292 HD
ENDBRANCH  19  22
ENDBRANCH  15  16
BRANCH  15  24
ATOM     24  O   LIG    1       27.322 -20.118   5.519  0.00  0.00    -0.386 OA
ATOM     25  H   LIG    1       26.383 -19.872   5.657  0.00  0.00    +0.210 HD
ENDBRANCH  15  24
ENDBRANCH   1  15
TORSDOF 9
ENDMDL
MODEL 3
REMARK VINA RESULT:      -9.0      2.266      8.233
REMARK  Name = *****
REMARK                            x       y       z     vdW  Elec       q    Type
REMARK                         _______ _______ _______ _____ _____    ______ ____
ROOT
ATOM      1  C   LIG    1       29.917 -20.220   7.966  0.00  0.00    +0.084 C 
ATOM      2  C   LIG    1       30.775 -21.305   8.621  0.00  0.00    +0.027 C 
ENDROOT
BRANCH   1   3
ATOM      3  N   LIG    1       29.312 -20.688   6.678  0.00  0.00    -0.305 NA
ATOM      4  H   LIG    1       29.737 -21.581   6.423  0.00  0.00    +0.123 HD
BRANCH   3   6
ATOM      5  C   LIG    1       27.272 -20.365   8.025  0.00  0.00    +0.027 C 
ATOM      6  C   LIG    1       27.830 -20.809   6.667  0.00  0.00    +0.088 C 
BRANCH   6   7
ATOM      7  C   LIG    1       27.207 -19.916   5.550  0.00  0.00    +0.247 C 
BRANCH   7   8
ATOM      8  O   LIG    1       26.297 -20.657   4.706  0.00  0.00    -0.490 OA
BRANCH   8   9
ATOM      9  C   LIG    1       24.993 -20.212   4.683  0.00  0.00    +0.121 A 
ATOM     10  C   LIG    1       24.139 -20.665   5.700  0.00  0.00    +0.045 A 
ATOM     11  C   LIG    1       22.855 -20.128   5.828  0.00  0.00    +0.004 A 
ATOM     12  C   LIG    1       22.400 -19.169   4.920  0.00  0.00    +0.000 A 
ATOM     13  C   LIG    1       23.210 -18.798   3.853  0.00  0.00    +0.004 A 
ATOM     14  C   LIG    1       24.491 -19.337   3.724  0.00  0.00    +0.045 A 
ENDBRANCH   8   9
ENDBRANCH   7   8
ENDBRANCH   6   7
ENDBRANCH   3   6
ENDBRANCH   1   3
BRANCH   1  15
ATOM     15  C   LIG    1       30.772 -18.929   7.667  0.00  0.00    +0.161 C 
BRANCH  15  16
ATOM     16  C   LIG    1       31.085 -18.045   8.859  0.00  0.00    -0.018 A 
ATOM     17  C   LIG    1       30.159 -17.891   9.902  0.00  0.00    +0.010 A 
ATOM     18  C   LIG    1       30.455 -17.095  11.017  0.00  0.00    +0.046 A 
ATOM     19  C   LIG    1       31.686 -16.447  11.093  0.00  0.00    +0.117 A 
ATOM     20  C   LIG    1       32.622 -16.590  10.081  0.00  0.00    +0.046 A 
ATOM     21  C   LIG    1       32.325 -17.387   8.968  0.00  0.00    +0.010 A 
BRANCH  19  22
ATOM     22  O   LIG    1       31.933 -15.680  12.190  0.00  0.00    -0.507 OA
ATOM     23  H   LIG    1       31.483 -16.074  12.955  0.00  0.00    +0.292 HD
ENDBRANCH  19  22
ENDBRANCH  15  16
BRANCH  15  24
ATOM     24  O   LIG    1       30.049 -18.129   6.716  0.00  0.00    -0.386 OA
ATOM     25  H   LIG    1       29.732 -18.775   6.050  0.00  0.00    +0.210 HD
ENDBRANCH  15  24
ENDBRANCH   1  15
TORSDOF 9
ENDMDL
MODEL 4
REMARK VINA RESULT:      -8.9      2.398      8.157
REMARK  Name = *****
REMARK                            x       y       z     vdW  Elec       q    Type
REMARK                         _______ _______ _______ _____ _____    ______ ____
ROOT
ATOM      1  C   LIG    1       26.346 -20.288   6.980  0.00  0.00    +0.084 C 
ATOM      2  C   LIG    1       26.125 -20.970   8.333  0.00  0.00    +0.027 C 
ENDROOT
BRANCH   1   3
ATOM      3  N   LIG    1       25.288 -20.659   5.987  0.00  0.00    -0.305 NA
ATOM      4  H   LIG    1       25.657 -21.389   5.374  0.00  0.00    +0.123 HD
BRANCH   3   6
ATOM      5  C   LIG    1       22.859 -20.234   5.965  0.00  0.00    +0.027 C 
ATOM      6  C   LIG    1       23.985 -21.089   6.562  0.00  0.00    +0.088 C 
BRANCH   6   7
ATOM      7  C   LIG    1       23.703 -22.589   6.241  0.00  0.00    +0.247 C 
BRANCH   7   8
ATOM      8  O   LIG    1       24.622 -23.116   5.258  0.00  0.00    -0.490 OA
BRANCH   8   9
ATOM      9  C   LIG    1       25.107 -24.384   5.500  0.00  0.00    +0.121 A 
ATOM     10  C   LIG    1       25.645 -24.635   6.772  0.00  0.00    +0.045 A 
ATOM     11  C   LIG    1       26.004 -25.936   7.136  0.00  0.00    +0.004 A 
ATOM     12  C   LIG    1       25.870 -26.985   6.222  0.00  0.00    +0.000 A 
ATOM     13  C   LIG    1       25.434 -26.714   4.930  0.00  0.00    +0.004 A 
ATOM     14  C   LIG    1       25.078 -25.415   4.566  0.00  0.00    +0.045 A 
ENDBRANCH   8   9
ENDBRANCH   7   8
ENDBRANCH   6   7
ENDBRANCH   3   6
ENDBRANCH   1   3
BRANCH   1  15
ATOM     15  C   LIG    1       27.748 -20.681   6.374  0.00  0.00    +0.161 C 
BRANCH  15  16
ATOM     16  C   LIG    1       28.964 -20.253   7.173  0.00  0.00    -0.018 A 
ATOM     17  C   LIG    1       29.377 -18.913   7.192  0.00  0.00    +0.010 A 
ATOM     18  C   LIG    1       30.485 -18.510   7.949  0.00  0.00    +0.046 A 
ATOM     19  C   LIG    1       31.188 -19.452   8.697  0.00  0.00    +0.117 A 
ATOM     20  C   LIG    1       30.795 -20.781   8.704  0.00  0.00    +0.046 A 
ATOM     21  C   LIG    1       29.686 -21.182   7.947  0.00  0.00    +0.010 A 
BRANCH  19  22
ATOM     22  O   LIG    1       32.260 -19.022   9.416  0.00  0.00    -0.507 OA
ATOM     23  H   LIG    1       32.154 -19.308  10.338  0.00  0.00    +0.292 HD
ENDBRANCH  19  22
ENDBRANCH  15  16
BRANCH  15  24
ATOM     24  O   LIG    1       27.854 -20.075   5.074  0.00  0.00    -0.386 OA
ATOM     25  H   LIG    1       28.567 -19.411   5.176  0.00  0.00    +0.210 HD
ENDBRANCH  15  24
ENDBRANCH   1  15
TORSDOF 9
ENDMDL
MODEL 5
REMARK VINA RESULT:      -8.8      0.904      1.888
REMARK  Name = *****
REMARK                            x       y       z     vdW  Elec       q    Type
REMARK                         _______ _______ _______ _____ _____    ______ ____
ROOT
ATOM      1  C   LIG    1       27.620 -20.435   7.481  0.00  0.00    +0.084 C 
ATOM      2  C   LIG    1       26.946 -20.275   6.116  0.00  0.00    +0.027 C 
ENDROOT
BRANCH   1   3
ATOM      3  N   LIG    1       28.976 -21.061   7.365  0.00  0.00    -0.305 NA
ATOM      4  H   LIG    1       29.233 -21.104   6.377  0.00  0.00    +0.123 HD
BRANCH   3   6
ATOM      5  C   LIG    1       30.933 -21.474   8.808  0.00  0.00    +0.027 C 
ATOM      6  C   LIG    1       30.060 -20.402   8.142  0.00  0.00    +0.088 C 
BRANCH   6   7
ATOM      7  C   LIG    1       30.957 -19.526   7.214  0.00  0.00    +0.247 C 
BRANCH   7   8
ATOM      8  O   LIG    1       30.791 -18.114   7.473  0.00  0.00    -0.490 OA
BRANCH   8   9
ATOM      9  C   LIG    1       31.056 -17.699   8.761  0.00  0.00    +0.121 A 
ATOM     10  C   LIG    1       32.367 -17.287   9.047  0.00  0.00    +0.045 A 
ATOM     11  C   LIG    1       32.663 -16.704  10.283  0.00  0.00    +0.004 A 
ATOM     12  C   LIG    1       31.668 -16.569  11.254  0.00  0.00    +0.000 A 
ATOM     13  C   LIG    1       30.397 -17.073  11.005  0.00  0.00    +0.004 A 
ATOM     14  C   LIG    1       30.102 -17.657   9.772  0.00  0.00    +0.045 A 
ENDBRANCH   8   9
ENDBRANCH   7   8
ENDBRANCH   6   7
ENDBRANCH   3   6
ENDBRANCH   1   3
BRANCH   1  15
ATOM     15  C   LIG    1       26.746 -21.332   8.439  0.00  0.00    +0.161 C 
BRANCH  15  16
ATOM     16  C   LIG    1       25.776 -22.283   7.762  0.00  0.00    -0.018 A 
ATOM     17  C   LIG    1       26.210 -23.521   7.268  0.00  0.00    +0.010 A 
ATOM     18  C   LIG    1       25.311 -24.412   6.664  0.00  0.00    +0.046 A 
ATOM     19  C   LIG    1       23.966 -24.065   6.555  0.00  0.00    +0.117 A 
ATOM     20  C   LIG    1       23.510 -22.852   7.045  0.00  0.00    +0.046 A 
ATOM     21  C   LIG    1       24.409 -21.963   7.648  0.00  0.00    +0.010 A 
BRANCH  19  22
ATOM     22  O   LIG    1       23.127 -24.955   5.960  0.00  0.00    -0.507 OA
ATOM     23  H   LIG    1       22.308 -25.008   6.479  0.00  0.00    +0.292 HD
ENDBRANCH  19  22
ENDBRANCH  15  16
BRANCH  15  24
ATOM     24  O   LIG    1       25.974 -20.459   9.282  0.00  0.00    -0.386 OA
ATOM     25  H   LIG    1       25.176 -20.983   9.503  0.00  0.00    +0.210 HD
ENDBRANCH  15  24
ENDBRANCH   1  15
TORSDOF 9
ENDMDL
MODEL 6
REMARK VINA RESULT:      -8.6      1.755      2.530
REMARK  Name = *****
REMARK                            x       y       z     vdW  Elec       q    Type
REMARK                         _______ _______ _______ _____ _____    ______ ____
ROOT
ATOM      1  C   LIG    1       27.747 -21.474   6.972  0.00  0.00    +0.084 C 
ATOM      2  C   LIG    1       27.339 -21.510   8.447  0.00  0.00    +0.027 C 
ENDROOT
BRANCH   1   3
ATOM      3  N   LIG    1       29.224 -21.287   6.805  0.00  0.00    -0.305 NA
ATOM      4  H   LIG    1       29.401 -20.906   5.873  0.00  0.00    +0.123 HD
BRANCH   3   6
ATOM      5  C   LIG    1       30.787 -21.325   8.712  0.00  0.00    +0.027 C 
ATOM      6  C   LIG    1       29.889 -20.444   7.834  0.00  0.00    +0.088 C 
BRANCH   6   7
ATOM      7  C   LIG    1       30.765 -19.339   7.166  0.00  0.00    +0.247 C 
BRANCH   7   8
ATOM      8  O   LIG    1       30.392 -18.013   7.603  0.00  0.00    -0.490 OA
BRANCH   8   9
ATOM      9  C   LIG    1       30.863 -17.627   8.839  0.00  0.00    +0.121 A 
ATOM     10  C   LIG    1       32.207 -17.229   8.920  0.00  0.00    +0.045 A 
ATOM     11  C   LIG    1       32.703 -16.674  10.103  0.00  0.00    +0.004 A 
ATOM     12  C   LIG    1       31.877 -16.552  11.224  0.00  0.00    +0.000 A 
ATOM     13  C   LIG    1       30.577 -17.043  11.172  0.00  0.00    +0.004 A 
ATOM     14  C   LIG    1       30.083 -17.598   9.991  0.00  0.00    +0.045 A 
ENDBRANCH   8   9
ENDBRANCH   7   8
ENDBRANCH   6   7
ENDBRANCH   3   6
ENDBRANCH   1   3
BRANCH   1  15
ATOM     15  C   LIG    1       27.014 -20.302   6.213  0.00  0.00    +0.161 C 
BRANCH  15  16
ATOM     16  C   LIG    1       25.561 -20.547   5.852  0.00  0.00    -0.018 A 
ATOM     17  C   LIG    1       25.158 -20.636   4.512  0.00  0.00    +0.010 A 
ATOM     18  C   LIG    1       23.821 -20.888   4.176  0.00  0.00    +0.046 A 
ATOM     19  C   LIG    1       22.876 -21.053   5.186  0.00  0.00    +0.117 A 
ATOM     20  C   LIG    1       23.250 -20.980   6.519  0.00  0.00    +0.046 A 
ATOM     21  C   LIG    1       24.587 -20.730   6.853  0.00  0.00    +0.010 A 
BRANCH  19  22
ATOM     22  O   LIG    1       21.588 -21.292   4.819  0.00  0.00    -0.507 OA
ATOM     23  H   LIG    1       21.501 -22.226   4.570  0.00  0.00    +0.292 HD
ENDBRANCH  19  22
ENDBRANCH  15  16
BRANCH  15  24
ATOM     24  O   LIG    1       27.725 -20.055   4.987  0.00  0.00    -0.386 OA
ATOM     25  H   LIG    1       27.583 -20.868   4.459  0.00  0.00    +0.210 HD
ENDBRANCH  15  24
ENDBRANCH   1  15
TORSDOF 9
ENDMDL
MODEL 7
REMARK VINA RESULT:      -8.6      3.490      5.371
REMARK  Name = *****
REMARK                            x       y       z     vdW  Elec       q    Type
REMARK                         _______ _______ _______ _____ _____    ______ ____
ROOT
ATOM      1  C   LIG    1       23.701 -21.881   6.517  0.00  0.00    +0.084 C 
ATOM      2  C   LIG    1       23.314 -20.839   7.570  0.00  0.00    +0.027 C 
ENDROOT
BRANCH   1   3
ATOM      3  N   LIG    1       23.074 -21.592   5.188  0.00  0.00    -0.305 NA
ATOM      4  H   LIG    1       22.247 -21.010   5.337  0.00  0.00    +0.123 HD
BRANCH   3   6
ATOM      5  C   LIG    1       23.681 -19.456   4.117  0.00  0.00    +0.027 C 
ATOM      6  C   LIG    1       23.963 -20.963   4.177  0.00  0.00    +0.088 C 
BRANCH   6   7
ATOM      7  C   LIG    1       25.464 -21.181   4.542  0.00  0.00    +0.247 C 
BRANCH   7   8
ATOM      8  O   LIG    1       26.115 -19.948   4.922  0.00  0.00    -0.490 OA
BRANCH   8   9
ATOM      9  C   LIG    1       27.178 -20.067   5.792  0.00  0.00    +0.121 A 
ATOM     10  C   LIG    1       27.048 -20.986   6.845  0.00  0.00    +0.045 A 
ATOM     11  C   LIG    1       28.144 -21.273   7.664  0.00  0.00    +0.004 A 
ATOM     12  C   LIG    1       29.361 -20.616   7.466  0.00  0.00    +0.000 A 
ATOM     13  C   LIG    1       29.456 -19.631   6.489  0.00  0.00    +0.004 A 
ATOM     14  C   LIG    1       28.360 -19.344   5.673  0.00  0.00    +0.045 A 
ENDBRANCH   8   9
ENDBRANCH   7   8
ENDBRANCH   6   7
ENDBRANCH   3   6
ENDBRANCH   1   3
BRANCH   1  15
ATOM     15  C   LIG    1       23.259 -23.326   6.966  0.00  0.00    +0.161 C 
BRANCH  15  16
ATOM     16  C   LIG    1       24.177 -24.463   6.555  0.00  0.00    -0.018 A 
ATOM     17  C   LIG    1       23.663 -25.616   5.944  0.00  0.00    +0.010 A 
ATOM     18  C   LIG    1       24.511 -26.656   5.540  0.00  0.00    +0.046 A 
ATOM     19  C   LIG    1       25.885 -26.544   5.746  0.00  0.00    +0.117 A 
ATOM     20  C   LIG    1       26.419 -25.411   6.338  0.00  0.00    +0.046 A 
ATOM     21  C   LIG    1       25.569 -24.372   6.741  0.00  0.00    +0.010 A 
BRANCH  19  22
ATOM     22  O   LIG    1       26.674 -27.578   5.344  0.00  0.00    -0.507 OA
ATOM     23  H   LIG    1       27.359 -27.728   6.015  0.00  0.00    +0.292 HD
ENDBRANCH  19  22
ENDBRANCH  15  16
BRANCH  15  24
ATOM     24  O   LIG    1       21.965 -23.591   6.396  0.00  0.00    -0.386 OA
ATOM     25  H   LIG    1       21.386 -22.905   6.788  0.00  0.00    +0.210 HD
ENDBRANCH  15  24
ENDBRANCH   1  15
TORSDOF 9
ENDMDL
MODEL 8
REMARK VINA RESULT:      -8.5      2.120      2.876
REMARK  Name = *****
REMARK                            x       y       z     vdW  Elec       q    Type
REMARK                         _______ _______ _______ _____ _____    ______ ____
ROOT
ATOM      1  C   LIG    1       26.900 -21.148   7.464  0.00  0.00    +0.084 C 
ATOM      2  C   LIG    1       26.106 -20.847   8.737  0.00  0.00    +0.027 C 
ENDROOT
BRANCH   1   3
ATOM      3  N   LIG    1       27.503 -19.910   6.875  0.00  0.00    -0.305 NA
ATOM      4  H   LIG    1       27.291 -19.120   7.488  0.00  0.00    +0.123 HD
BRANCH   3   6
ATOM      5  C   LIG    1       29.373 -18.765   5.747  0.00  0.00    +0.027 C 
ATOM      6  C   LIG    1       28.965 -19.968   6.608  0.00  0.00    +0.088 C 
BRANCH   6   7
ATOM      7  C   LIG    1       29.775 -19.933   7.940  0.00  0.00    +0.247 C 
BRANCH   7   8
ATOM      8  O   LIG    1       29.292 -18.913   8.843  0.00  0.00    -0.490 OA
BRANCH   8   9
ATOM      9  C   LIG    1       30.254 -18.119   9.430  0.00  0.00    +0.121 A 
ATOM     10  C   LIG    1       31.430 -17.886   8.700  0.00  0.00    +0.045 A 
ATOM     11  C   LIG    1       32.371 -16.962   9.164  0.00  0.00    +0.004 A 
ATOM     12  C   LIG    1       32.168 -16.300  10.377  0.00  0.00    +0.000 A 
ATOM     13  C   LIG    1       31.053 -16.610  11.148  0.00  0.00    +0.004 A 
ATOM     14  C   LIG    1       30.115 -17.534  10.685  0.00  0.00    +0.045 A 
ENDBRANCH   8   9
ENDBRANCH   7   8
ENDBRANCH   6   7
ENDBRANCH   3   6
ENDBRANCH   1   3
BRANCH   1  15
ATOM     15  C   LIG    1       25.979 -21.814   6.370  0.00  0.00    +0.161 C 
BRANCH  15  16
ATOM     16  C   LIG    1       24.921 -20.918   5.753  0.00  0.00    -0.018 A 
ATOM     17  C   LIG    1       25.165 -20.242   4.549  0.00  0.00    +0.010 A 
ATOM     18  C   LIG    1       24.180 -19.434   3.964  0.00  0.00    +0.046 A 
ATOM     19  C   LIG    1       22.940 -19.300   4.585  0.00  0.00    +0.117 A 
ATOM     20  C   LIG    1       22.670 -19.965   5.770  0.00  0.00    +0.046 A 
ATOM     21  C   LIG    1       23.655 -20.773   6.353  0.00  0.00    +0.010 A 
BRANCH  19  22
ATOM     22  O   LIG    1       22.013 -18.503   3.987  0.00  0.00    -0.507 OA
ATOM     23  H   LIG    1       22.235 -18.417   3.046  0.00  0.00    +0.292 HD
ENDBRANCH  19  22
ENDBRANCH  15  16
BRANCH  15  24
ATOM     24  O   LIG    1       25.299 -22.925   6.979  0.00  0.00    -0.386 OA
ATOM     25  H   LIG    1       25.477 -23.676   6.375  0.00  0.00    +0.210 HD
ENDBRANCH  15  24
ENDBRANCH   1  15
TORSDOF 9
ENDMDL
MODEL 9
REMARK VINA RESULT:      -8.5      2.962      4.823
REMARK  Name = *****
REMARK                            x       y       z     vdW  Elec       q    Type
REMARK                         _______ _______ _______ _____ _____    ______ ____
ROOT
ATOM      1  C   LIG    1       24.063 -21.929   6.579  0.00  0.00    +0.084 C 
ATOM      2  C   LIG    1       23.274 -20.843   7.314  0.00  0.00    +0.027 C 
ENDROOT
BRANCH   1   3
ATOM      3  N   LIG    1       24.056 -21.718   5.096  0.00  0.00    -0.305 NA
ATOM      4  H   LIG    1       23.152 -21.325   4.827  0.00  0.00    +0.123 HD
BRANCH   3   6
ATOM      5  C   LIG    1       24.562 -19.649   3.854  0.00  0.00    +0.027 C 
ATOM      6  C   LIG    1       25.157 -20.876   4.558  0.00  0.00    +0.088 C 
BRANCH   6   7
ATOM      7  C   LIG    1       26.099 -20.393   5.703  0.00  0.00    +0.247 C 
BRANCH   7   8
ATOM      8  O   LIG    1       27.352 -19.882   5.196  0.00  0.00    -0.490 OA
BRANCH   8   9
ATOM      9  C   LIG    1       28.406 -19.870   6.085  0.00  0.00    +0.121 A 
ATOM     10  C   LIG    1       28.476 -20.920   7.014  0.00  0.00    +0.045 A 
ATOM     11  C   LIG    1       29.600 -21.057   7.833  0.00  0.00    +0.004 A 
ATOM     12  C   LIG    1       30.640 -20.125   7.763  0.00  0.00    +0.000 A 
ATOM     13  C   LIG    1       30.520 -19.030   6.915  0.00  0.00    +0.004 A 
ATOM     14  C   LIG    1       29.396 -18.893   6.099  0.00  0.00    +0.045 A 
ENDBRANCH   8   9
ENDBRANCH   7   8
ENDBRANCH   6   7
ENDBRANCH   3   6
ENDBRANCH   1   3
BRANCH   1  15
ATOM     15  C   LIG    1       23.465 -23.358   6.876  0.00  0.00    +0.161 C 
BRANCH  15  16
ATOM     16  C   LIG    1       24.313 -24.539   6.441  0.00  0.00    -0.018 A 
ATOM     17  C   LIG    1       25.699 -24.546   6.656  0.00  0.00    +0.010 A 
ATOM     18  C   LIG    1       26.481 -25.646   6.279  0.00  0.00    +0.046 A 
ATOM     19  C   LIG    1       25.875 -26.750   5.683  0.00  0.00    +0.117 A 
ATOM     20  C   LIG    1       24.507 -26.773   5.469  0.00  0.00    +0.046 A 
ATOM     21  C   LIG    1       23.726 -25.672   5.847  0.00  0.00    +0.010 A 
BRANCH  19  22
ATOM     22  O   LIG    1       26.670 -27.796   5.328  0.00  0.00    -0.507 OA
ATOM     23  H   LIG    1       26.342 -28.169   4.493  0.00  0.00    +0.292 HD
ENDBRANCH  19  22
ENDBRANCH  15  16
BRANCH  15  24
ATOM     24  O   LIG    1       22.203 -23.461   6.193  0.00  0.00    -0.386 OA
ATOM     25  H   LIG    1       22.276 -22.819   5.457  0.00  0.00    +0.210 HD
ENDBRANCH  15  24
ENDBRANCH   1  15
TORSDOF 9
ENDMDL
