MODEL 1
REMARK VINA RESULT:      -5.6      0.000      0.000
REMARK  Name = *****
REMARK                            x       y       z     vdW  Elec       q    Type
REMARK                         _______ _______ _______ _____ _____    ______ ____
ROOT
ATOM      1  C   LIG    1       24.380 -21.253   4.627  0.00  0.00    +0.068 C 
ENDROOT
BRANCH   1   2
ATOM      2  C   LIG    1       25.700 -20.894   5.281  0.00  0.00    -0.041 A 
ATOM      3  C   LIG    1       26.498 -19.863   4.762  0.00  0.00    +0.052 A 
ATOM      4  C   LIG    1       27.709 -19.552   5.373  0.00  0.00    +0.159 A 
ATOM      5  C   LIG    1       28.129 -20.225   6.516  0.00  0.00    +0.158 A 
ATOM      6  C   LIG    1       27.341 -21.230   7.062  0.00  0.00    +0.049 A 
ATOM      7  C   LIG    1       26.132 -21.567   6.438  0.00  0.00    +0.007 A 
BRANCH   4   8
ATOM      8  O   LIG    1       28.497 -18.578   4.829  0.00  0.00    -0.503 OA
ATOM      9  H   LIG    1       27.944 -18.177   4.129  0.00  0.00    +0.292 HD
ENDBRANCH   4   8
BRANCH   5  10
ATOM     10  O   LIG    1       29.330 -19.867   7.062  0.00  0.00    -0.503 OA
ATOM     11  H   LIG    1       29.654 -19.076   6.597  0.00  0.00    +0.292 HD
ENDBRANCH   5  10
ENDBRANCH   1   2
BRANCH   1  13
ATOM     12  C   LIG    1       23.111 -20.391   6.696  0.00  0.00    +0.040 C 
ATOM     13  C   LIG    1       23.105 -20.554   5.171  0.00  0.00    +0.116 C 
BRANCH  13  14
ATOM     14  N   LIG    1       21.944 -21.454   4.871  0.00  0.00    -0.316 NA
ATOM     15  H   LIG    1       21.254 -21.357   5.621  0.00  0.00    +0.119 HD
ATOM     16  H   LIG    1       21.457 -21.069   4.054  0.00  0.00    +0.119 HD
ENDBRANCH  13  14
BRANCH  13  17
ATOM     17  C   LIG    1       22.847 -19.205   4.445  0.00  0.00    +0.325 C 
ATOM     18  O   LIG    1       22.013 -18.388   4.834  0.00  0.00    -0.249 OA
BRANCH  17  19
ATOM     19  O   LIG    1       23.591 -18.964   3.346  0.00  0.00    -0.479 OA
ATOM     20  H   LIG    1       23.248 -18.273   2.748  0.00  0.00    +0.295 HD
ENDBRANCH  17  19
ENDBRANCH  13  17
ENDBRANCH   1  13
TORSDOF 7
ENDMDL
MODEL 2
REMARK VINA RESULT:      -4.2      1.332      2.293
REMARK  Name = *****
REMARK                            x       y       z     vdW  Elec       q    Type
REMARK                         _______ _______ _______ _____ _____    ______ ____
ROOT
ATOM      1  C   LIG    1       23.838 -20.482   3.892  0.00  0.00    +0.068 C 
ENDROOT
BRANCH   1   2
ATOM      2  C   LIG    1       25.148 -19.748   4.105  0.00  0.00    -0.041 A 
ATOM      3  C   LIG    1       26.135 -20.276   4.951  0.00  0.00    +0.052 A 
ATOM      4  C   LIG    1       27.328 -19.585   5.137  0.00  0.00    +0.159 A 
ATOM      5  C   LIG    1       27.576 -18.390   4.470  0.00  0.00    +0.158 A 
ATOM      6  C   LIG    1       26.624 -17.864   3.606  0.00  0.00    +0.049 A 
ATOM      7  C   LIG    1       25.409 -18.540   3.432  0.00  0.00    +0.007 A 
BRANCH   4   8
ATOM      8  O   LIG    1       28.260 -20.087   6.001  0.00  0.00    -0.503 OA
ATOM      9  H   LIG    1       28.125 -21.056   5.970  0.00  0.00    +0.292 HD
ENDBRANCH   4   8
BRANCH   5  10
ATOM     10  O   LIG    1       28.770 -17.765   4.702  0.00  0.00    -0.503 OA
ATOM     11  H   LIG    1       29.052 -17.330   3.879  0.00  0.00    +0.292 HD
ENDBRANCH   5  10
ENDBRANCH   1   2
BRANCH   1  13
ATOM     12  C   LIG    1       23.099 -20.171   6.340  0.00  0.00    +0.040 C 
ATOM     13  C   LIG    1       22.675 -20.154   4.866  0.00  0.00    +0.116 C 
BRANCH  13  14
ATOM     14  N   LIG    1       21.662 -21.251   4.731  0.00  0.00    -0.316 NA
ATOM     15  H   LIG    1       21.199 -21.158   3.823  0.00  0.00    +0.119 HD
ATOM     16  H   LIG    1       22.174 -22.136   4.642  0.00  0.00    +0.119 HD
ENDBRANCH  13  14
BRANCH  13  17
ATOM     17  C   LIG    1       21.973 -18.823   4.481  0.00  0.00    +0.325 C 
ATOM     18  O   LIG    1       22.358 -17.725   4.885  0.00  0.00    -0.249 OA
BRANCH  17  19
ATOM     19  O   LIG    1       20.902 -18.923   3.667  0.00  0.00    -0.479 OA
ATOM     20  H   LIG    1       20.966 -18.436   2.824  0.00  0.00    +0.295 HD
ENDBRANCH  17  19
ENDBRANCH  13  17
ENDBRANCH   1  13
TORSDOF 7
ENDMDL
MODEL 3
REMARK VINA RESULT:      -3.6      3.150      4.572
REMARK  Name = *****
REMARK                            x       y       z     vdW  Elec       q    Type
REMARK                         _______ _______ _______ _____ _____    ______ ____
ROOT
ATOM      1  C   LIG    1       23.781 -19.205   3.511  0.00  0.00    +0.068 C 
ENDROOT
BRANCH   1   2
ATOM      2  C   LIG    1       24.108 -17.735   3.690  0.00  0.00    -0.041 A 
ATOM      3  C   LIG    1       25.353 -17.225   3.291  0.00  0.00    +0.052 A 
ATOM      4  C   LIG    1       25.636 -15.874   3.468  0.00  0.00    +0.159 A 
ATOM      5  C   LIG    1       24.689 -15.008   4.006  0.00  0.00    +0.158 A 
ATOM      6  C   LIG    1       23.441 -15.487   4.381  0.00  0.00    +0.049 A 
ATOM      7  C   LIG    1       23.156 -16.851   4.230  0.00  0.00    +0.007 A 
BRANCH   4   8
ATOM      8  O   LIG    1       26.869 -15.402   3.119  0.00  0.00    -0.503 OA
ATOM      9  H   LIG    1       27.216 -16.064   2.488  0.00  0.00    +0.292 HD
ENDBRANCH   4   8
BRANCH   5  10
ATOM     10  O   LIG    1       25.037 -13.694   4.152  0.00  0.00    -0.503 OA
ATOM     11  H   LIG    1       24.247 -13.198   4.430  0.00  0.00    +0.292 HD
ENDBRANCH   5  10
ENDBRANCH   1   2
BRANCH   1  13
ATOM     12  C   LIG    1       25.895 -19.983   4.758  0.00  0.00    +0.040 C 
ATOM     13  C   LIG    1       24.394 -20.198   4.535  0.00  0.00    +0.116 C 
BRANCH  13  14
ATOM     14  N   LIG    1       24.271 -21.572   3.947  0.00  0.00    -0.316 NA
ATOM     15  H   LIG    1       23.802 -22.177   4.626  0.00  0.00    +0.119 HD
ATOM     16  H   LIG    1       23.595 -21.519   3.176  0.00  0.00    +0.119 HD
ENDBRANCH  13  14
BRANCH  13  17
ATOM     17  C   LIG    1       23.602 -20.192   5.871  0.00  0.00    +0.325 C 
ATOM     18  O   LIG    1       22.453 -19.759   5.962  0.00  0.00    -0.249 OA
BRANCH  17  19
ATOM     19  O   LIG    1       24.241 -20.689   6.949  0.00  0.00    -0.479 OA
ATOM     20  H   LIG    1       23.839 -20.478   7.813  0.00  0.00    +0.295 HD
ENDBRANCH  17  19
ENDBRANCH  13  17
ENDBRANCH   1  13
TORSDOF 7
ENDMDL
MODEL 4
REMARK VINA RESULT:      -3.5      5.034      6.380
REMARK  Name = *****
REMARK                            x       y       z     vdW  Elec       q    Type
REMARK                         _______ _______ _______ _____ _____    ______ ____
ROOT
ATOM      1  C   LIG    1       23.850 -14.459   4.102  0.00  0.00    +0.068 C 
ENDROOT
BRANCH   1   2
ATOM      2  C   LIG    1       24.323 -15.883   3.881  0.00  0.00    -0.041 A 
ATOM      3  C   LIG    1       23.448 -16.964   4.066  0.00  0.00    +0.052 A 
ATOM      4  C   LIG    1       23.902 -18.264   3.863  0.00  0.00    +0.159 A 
ATOM      5  C   LIG    1       25.205 -18.510   3.445  0.00  0.00    +0.158 A 
ATOM      6  C   LIG    1       26.079 -17.453   3.228  0.00  0.00    +0.049 A 
ATOM      7  C   LIG    1       25.638 -16.142   3.454  0.00  0.00    +0.007 A 
BRANCH   4   8
ATOM      8  O   LIG    1       23.052 -19.308   4.094  0.00  0.00    -0.503 OA
ATOM      9  H   LIG    1       22.327 -19.182   3.449  0.00  0.00    +0.292 HD
ENDBRANCH   4   8
BRANCH   5  10
ATOM     10  O   LIG    1       25.582 -19.813   3.267  0.00  0.00    -0.503 OA
ATOM     11  H   LIG    1       26.520 -19.896   3.514  0.00  0.00    +0.292 HD
ENDBRANCH   5  10
ENDBRANCH   1   2
BRANCH   1  13
ATOM     12  C   LIG    1       26.112 -13.708   5.078  0.00  0.00    +0.040 C 
ATOM     13  C   LIG    1       24.937 -13.352   4.159  0.00  0.00    +0.116 C 
BRANCH  13  14
ATOM     14  N   LIG    1       24.303 -12.141   4.777  0.00  0.00    -0.316 NA
ATOM     15  H   LIG    1       23.300 -12.158   4.571  0.00  0.00    +0.119 HD
ATOM     16  H   LIG    1       24.333 -12.262   5.796  0.00  0.00    +0.119 HD
ENDBRANCH  13  14
BRANCH  13  17
ATOM     17  C   LIG    1       25.413 -12.953   2.736  0.00  0.00    +0.325 C 
ATOM     18  O   LIG    1       24.632 -12.685   1.823  0.00  0.00    -0.249 OA
BRANCH  17  19
ATOM     19  O   LIG    1       26.746 -12.914   2.539  0.00  0.00    -0.479 OA
ATOM     20  H   LIG    1       27.126 -12.026   2.393  0.00  0.00    +0.295 HD
ENDBRANCH  17  19
ENDBRANCH  13  17
ENDBRANCH   1  13
TORSDOF 7
ENDMDL
MODEL 5
REMARK VINA RESULT:      -3.5      3.986      5.665
REMARK  Name = *****
REMARK                            x       y       z     vdW  Elec       q    Type
REMARK                         _______ _______ _______ _____ _____    ______ ____
ROOT
ATOM      1  C   LIG    1       26.458 -16.601   3.192  0.00  0.00    +0.068 C 
ENDROOT
BRANCH   1   2
ATOM      2  C   LIG    1       25.497 -17.708   3.579  0.00  0.00    -0.041 A 
ATOM      3  C   LIG    1       25.976 -18.969   3.966  0.00  0.00    +0.052 A 
ATOM      4  C   LIG    1       25.079 -19.973   4.313  0.00  0.00    +0.159 A 
ATOM      5  C   LIG    1       23.708 -19.739   4.315  0.00  0.00    +0.158 A 
ATOM      6  C   LIG    1       23.213 -18.491   3.962  0.00  0.00    +0.049 A 
ATOM      7  C   LIG    1       24.109 -17.480   3.587  0.00  0.00    +0.007 A 
BRANCH   4   8
ATOM      8  O   LIG    1       25.559 -21.209   4.641  0.00  0.00    -0.503 OA
ATOM      9  H   LIG    1       25.481 -21.730   3.816  0.00  0.00    +0.292 HD
ENDBRANCH   4   8
BRANCH   5  10
ATOM     10  O   LIG    1       22.885 -20.774   4.666  0.00  0.00    -0.503 OA
ATOM     11  H   LIG    1       23.439 -21.535   4.911  0.00  0.00    +0.292 HD
ENDBRANCH   5  10
ENDBRANCH   1   2
BRANCH   1  13
ATOM     12  C   LIG    1       24.573 -15.047   4.007  0.00  0.00    +0.040 C 
ATOM     13  C   LIG    1       25.994 -15.140   3.440  0.00  0.00    +0.116 C 
BRANCH  13  14
ATOM     14  N   LIG    1       25.934 -14.462   2.104  0.00  0.00    -0.316 NA
ATOM     15  H   LIG    1       26.665 -14.855   1.505  0.00  0.00    +0.119 HD
ATOM     16  H   LIG    1       25.068 -14.764   1.642  0.00  0.00    +0.119 HD
ENDBRANCH  13  14
BRANCH  13  17
ATOM     17  C   LIG    1       27.018 -14.362   4.310  0.00  0.00    +0.325 C 
ATOM     18  O   LIG    1       26.691 -13.710   5.301  0.00  0.00    -0.249 OA
BRANCH  17  19
ATOM     19  O   LIG    1       28.309 -14.432   3.925  0.00  0.00    -0.479 OA
ATOM     20  H   LIG    1       28.823 -15.171   4.302  0.00  0.00    +0.295 HD
ENDBRANCH  17  19
ENDBRANCH  13  17
ENDBRANCH   1  13
TORSDOF 7
ENDMDL
MODEL 6
REMARK VINA RESULT:      -3.5      4.612      5.767
REMARK  Name = *****
REMARK                            x       y       z     vdW  Elec       q    Type
REMARK                         _______ _______ _______ _____ _____    ______ ____
ROOT
ATOM      1  C   LIG    1       26.470 -15.136   2.811  0.00  0.00    +0.068 C 
ENDROOT
BRANCH   1   2
ATOM      2  C   LIG    1       26.532 -16.546   3.364  0.00  0.00    -0.041 A 
ATOM      3  C   LIG    1       27.660 -16.988   4.073  0.00  0.00    +0.052 A 
ATOM      4  C   LIG    1       27.700 -18.287   4.569  0.00  0.00    +0.159 A 
ATOM      5  C   LIG    1       26.622 -19.150   4.404  0.00  0.00    +0.158 A 
ATOM      6  C   LIG    1       25.485 -18.725   3.729  0.00  0.00    +0.049 A 
ATOM      7  C   LIG    1       25.446 -17.426   3.205  0.00  0.00    +0.007 A 
BRANCH   4   8
ATOM      8  O   LIG    1       28.824 -18.717   5.216  0.00  0.00    -0.503 OA
ATOM      9  H   LIG    1       29.050 -17.987   5.826  0.00  0.00    +0.292 HD
ENDBRANCH   4   8
BRANCH   5  10
ATOM     10  O   LIG    1       26.732 -20.414   4.917  0.00  0.00    -0.503 OA
ATOM     11  H   LIG    1       27.553 -20.461   5.437  0.00  0.00    +0.292 HD
ENDBRANCH   5  10
ENDBRANCH   1   2
BRANCH   1  13
ATOM     12  C   LIG    1       24.684 -14.416   4.521  0.00  0.00    +0.040 C 
ATOM     13  C   LIG    1       25.957 -14.022   3.762  0.00  0.00    +0.116 C 
BRANCH  13  14
ATOM     14  N   LIG    1       25.565 -12.855   2.906  0.00  0.00    -0.316 NA
ATOM     15  H   LIG    1       26.178 -12.066   3.130  0.00  0.00    +0.119 HD
ATOM     16  H   LIG    1       25.820 -13.081   1.938  0.00  0.00    +0.119 HD
ENDBRANCH  13  14
BRANCH  13  17
ATOM     17  C   LIG    1       27.078 -13.538   4.722  0.00  0.00    +0.325 C 
ATOM     18  O   LIG    1       28.220 -13.284   4.339  0.00  0.00    -0.249 OA
BRANCH  17  19
ATOM     19  O   LIG    1       26.741 -13.409   6.021  0.00  0.00    -0.479 OA
ATOM     20  H   LIG    1       25.810 -13.606   6.238  0.00  0.00    +0.295 HD
ENDBRANCH  17  19
ENDBRANCH  13  17
ENDBRANCH   1  13
TORSDOF 7
ENDMDL
MODEL 7
REMARK VINA RESULT:      -3.4      4.844      6.254
REMARK  Name = *****
REMARK                            x       y       z     vdW  Elec       q    Type
REMARK                         _______ _______ _______ _____ _____    ______ ____
ROOT
ATOM      1  C   LIG    1       23.444 -14.422   4.443  0.00  0.00    +0.068 C 
ENDROOT
BRANCH   1   2
ATOM      2  C   LIG    1       23.621 -15.907   4.198  0.00  0.00    -0.041 A 
ATOM      3  C   LIG    1       24.835 -16.412   3.709  0.00  0.00    +0.052 A 
ATOM      4  C   LIG    1       24.977 -17.778   3.486  0.00  0.00    +0.159 A 
ATOM      5  C   LIG    1       23.942 -18.662   3.774  0.00  0.00    +0.158 A 
ATOM      6  C   LIG    1       22.741 -18.187   4.285  0.00  0.00    +0.049 A 
ATOM      7  C   LIG    1       22.581 -16.810   4.489  0.00  0.00    +0.007 A 
BRANCH   4   8
ATOM      8  O   LIG    1       26.148 -18.249   2.964  0.00  0.00    -0.503 OA
ATOM      9  H   LIG    1       26.521 -18.816   3.669  0.00  0.00    +0.292 HD
ENDBRANCH   4   8
BRANCH   5  10
ATOM     10  O   LIG    1       24.151 -19.991   3.528  0.00  0.00    -0.503 OA
ATOM     11  H   LIG    1       24.650 -20.073   2.697  0.00  0.00    +0.292 HD
ENDBRANCH   5  10
ENDBRANCH   1   2
BRANCH   1  13
ATOM     12  C   LIG    1       25.944 -13.925   4.807  0.00  0.00    +0.040 C 
ATOM     13  C   LIG    1       24.647 -13.499   4.110  0.00  0.00    +0.116 C 
BRANCH  13  14
ATOM     14  N   LIG    1       24.328 -12.140   4.658  0.00  0.00    -0.316 NA
ATOM     15  H   LIG    1       23.522 -12.222   5.285  0.00  0.00    +0.119 HD
ATOM     16  H   LIG    1       25.090 -11.876   5.293  0.00  0.00    +0.119 HD
ENDBRANCH  13  14
BRANCH  13  17
ATOM     17  C   LIG    1       24.836 -13.348   2.576  0.00  0.00    +0.325 C 
ATOM     18  O   LIG    1       25.883 -13.644   2.001  0.00  0.00    -0.249 OA
BRANCH  17  19
ATOM     19  O   LIG    1       23.781 -12.868   1.886  0.00  0.00    -0.479 OA
ATOM     20  H   LIG    1       23.137 -12.350   2.405  0.00  0.00    +0.295 HD
ENDBRANCH  17  19
ENDBRANCH  13  17
ENDBRANCH   1  13
TORSDOF 7
ENDMDL
MODEL 8
REMARK VINA RESULT:      -3.4      4.770      5.580
REMARK  Name = *****
REMARK                            x       y       z     vdW  Elec       q    Type
REMARK                         _______ _______ _______ _____ _____    ______ ____
ROOT
ATOM      1  C   LIG    1       25.999 -14.874   2.865  0.00  0.00    +0.068 C 
ENDROOT
BRANCH   1   2
ATOM      2  C   LIG    1       26.282 -16.281   3.353  0.00  0.00    -0.041 A 
ATOM      3  C   LIG    1       27.508 -16.596   3.959  0.00  0.00    +0.052 A 
ATOM      4  C   LIG    1       27.751 -17.894   4.396  0.00  0.00    +0.159 A 
ATOM      5  C   LIG    1       26.782 -18.885   4.273  0.00  0.00    +0.158 A 
ATOM      6  C   LIG    1       25.551 -18.589   3.701  0.00  0.00    +0.049 A 
ATOM      7  C   LIG    1       25.307 -17.290   3.236  0.00  0.00    +0.007 A 
BRANCH   4   8
ATOM      8  O   LIG    1       28.967 -18.196   4.940  0.00  0.00    -0.503 OA
ATOM      9  H   LIG    1       29.506 -18.500   4.182  0.00  0.00    +0.292 HD
ENDBRANCH   4   8
BRANCH   5  10
ATOM     10  O   LIG    1       27.090 -20.139   4.723  0.00  0.00    -0.503 OA
ATOM     11  H   LIG    1       27.720 -20.052   5.460  0.00  0.00    +0.292 HD
ENDBRANCH   5  10
ENDBRANCH   1   2
BRANCH   1  13
ATOM     12  C   LIG    1       26.093 -13.486   5.032  0.00  0.00    +0.040 C 
ATOM     13  C   LIG    1       25.243 -13.926   3.834  0.00  0.00    +0.116 C 
BRANCH  13  14
ATOM     14  N   LIG    1       24.104 -14.706   4.420  0.00  0.00    -0.316 NA
ATOM     15  H   LIG    1       23.580 -15.141   3.655  0.00  0.00    +0.119 HD
ATOM     16  H   LIG    1       24.504 -15.512   4.915  0.00  0.00    +0.119 HD
ENDBRANCH  13  14
BRANCH  13  17
ATOM     17  C   LIG    1       24.635 -12.713   3.078  0.00  0.00    +0.325 C 
ATOM     18  O   LIG    1       24.910 -12.453   1.906  0.00  0.00    -0.249 OA
BRANCH  17  19
ATOM     19  O   LIG    1       23.777 -11.941   3.774  0.00  0.00    -0.479 OA
ATOM     20  H   LIG    1       22.931 -12.363   4.018  0.00  0.00    +0.295 HD
ENDBRANCH  17  19
ENDBRANCH  13  17
ENDBRANCH   1  13
TORSDOF 7
ENDMDL
MODEL 9
REMARK VINA RESULT:      -3.3      5.092      6.564
REMARK  Name = *****
REMARK                            x       y       z     vdW  Elec       q    Type
REMARK                         _______ _______ _______ _____ _____    ______ ____
ROOT
ATOM      1  C   LIG    1       26.876 -15.185   3.325  0.00  0.00    +0.068 C 
ENDROOT
BRANCH   1   2
ATOM      2  C   LIG    1       25.798 -16.234   3.508  0.00  0.00    -0.041 A 
ATOM      3  C   LIG    1       26.085 -17.595   3.324  0.00  0.00    +0.052 A 
ATOM      4  C   LIG    1       25.081 -18.543   3.492  0.00  0.00    +0.159 A 
ATOM      5  C   LIG    1       23.798 -18.167   3.875  0.00  0.00    +0.158 A 
ATOM      6  C   LIG    1       23.499 -16.828   4.090  0.00  0.00    +0.049 A 
ATOM      7  C   LIG    1       24.498 -15.864   3.898  0.00  0.00    +0.007 A 
BRANCH   4   8
ATOM      8  O   LIG    1       25.364 -19.860   3.263  0.00  0.00    -0.503 OA
ATOM      9  H   LIG    1       26.182 -20.027   3.773  0.00  0.00    +0.292 HD
ENDBRANCH   4   8
BRANCH   5  10
ATOM     10  O   LIG    1       22.861 -19.153   4.020  0.00  0.00    -0.503 OA
ATOM     11  H   LIG    1       22.897 -19.726   3.235  0.00  0.00    +0.292 HD
ENDBRANCH   5  10
ENDBRANCH   1   2
BRANCH   1  13
ATOM     12  C   LIG    1       25.384 -13.413   2.200  0.00  0.00    +0.040 C 
ATOM     13  C   LIG    1       26.423 -13.700   3.290  0.00  0.00    +0.116 C 
BRANCH  13  14
ATOM     14  N   LIG    1       27.623 -12.879   2.922  0.00  0.00    -0.316 NA
ATOM     15  H   LIG    1       27.347 -11.894   2.893  0.00  0.00    +0.119 HD
ATOM     16  H   LIG    1       28.276 -12.915   3.713  0.00  0.00    +0.119 HD
ENDBRANCH  13  14
BRANCH  13  17
ATOM     17  C   LIG    1       25.944 -13.223   4.688  0.00  0.00    +0.325 C 
ATOM     18  O   LIG    1       24.861 -12.665   4.867  0.00  0.00    -0.249 OA
BRANCH  17  19
ATOM     19  O   LIG    1       26.783 -13.449   5.719  0.00  0.00    -0.479 OA
ATOM     20  H   LIG    1       27.667 -13.042   5.642  0.00  0.00    +0.295 HD
ENDBRANCH  17  19
ENDBRANCH  13  17
ENDBRANCH   1  13
TORSDOF 7
ENDMDL
