MODEL 1
REMARK VINA RESULT:      -3.3      0.000      0.000
REMARK  Name = *****
REMARK                            x       y       z     vdW  Elec       q    Type
REMARK                         _______ _______ _______ _____ _____    ______ ____
ROOT
ATOM      1  N   LIG    1       26.846 -13.776   2.689  0.00  0.00    -0.290 NA
ATOM      2  C   LIG    1       26.712 -14.656   3.899  0.00  0.00    +0.113 C 
ATOM      3  C   LIG    1       25.665 -14.195   4.950  0.00  0.00    +0.165 C 
ATOM      4  C   LIG    1       24.300 -13.826   4.335  0.00  0.00    +0.174 C 
ATOM      5  C   LIG    1       24.473 -12.899   3.122  0.00  0.00    +0.159 C 
ATOM      6  C   LIG    1       25.513 -13.466   2.131  0.00  0.00    +0.119 C 
ENDROOT
BRANCH   3   7
ATOM      7  O   LIG    1       26.181 -13.083   5.703  0.00  0.00    -0.388 OA
ATOM      8  H   LIG    1       25.485 -12.823   6.338  0.00  0.00    +0.210 HD
ENDBRANCH   3   7
BRANCH   4   9
ATOM      9  O   LIG    1       23.582 -15.003   3.966  0.00  0.00    -0.387 OA
ATOM     10  H   LIG    1       22.740 -14.992   4.463  0.00  0.00    +0.210 HD
ENDBRANCH   4   9
BRANCH   5  11
ATOM     11  O   LIG    1       24.828 -11.587   3.571  0.00  0.00    -0.388 OA
ATOM     12  H   LIG    1       25.183 -11.683   4.475  0.00  0.00    +0.210 HD
ENDBRANCH   5  11
BRANCH   1  13
ATOM     13  C   LIG    1       27.680 -12.588   2.971  0.00  0.00    +0.112 C 
BRANCH  13  14
ATOM     14  C   LIG    1       28.952 -12.826   3.798  0.00  0.00    +0.171 C 
BRANCH  14  15
ATOM     15  O   LIG    1       28.993 -12.002   4.954  0.00  0.00    -0.394 OA
ATOM     16  H   LIG    1       28.069 -11.903   5.223  0.00  0.00    +0.209 HD
ENDBRANCH  14  15
ENDBRANCH  13  14
ENDBRANCH   1  13
BRANCH   2  17
ATOM     17  C   LIG    1       26.442 -16.113   3.441  0.00  0.00    +0.177 C 
BRANCH  17  18
ATOM     18  O   LIG    1       27.579 -16.930   3.740  0.00  0.00    -0.393 OA
ATOM     19  H   LIG    1       28.346 -16.362   3.528  0.00  0.00    +0.209 HD
ENDBRANCH  17  18
ENDBRANCH   2  17
TORSDOF 8
ENDMDL
MODEL 2
REMARK VINA RESULT:      -2.7      1.783      3.509
REMARK  Name = *****
REMARK                            x       y       z     vdW  Elec       q    Type
REMARK                         _______ _______ _______ _____ _____    ______ ____
ROOT
ATOM      1  N   LIG    1       25.071 -13.668   4.616  0.00  0.00    -0.290 NA
ATOM      2  C   LIG    1       25.421 -14.460   3.387  0.00  0.00    +0.113 C 
ATOM      3  C   LIG    1       26.877 -14.290   2.874  0.00  0.00    +0.165 C 
ATOM      4  C   LIG    1       27.939 -14.423   3.983  0.00  0.00    +0.174 C 
ATOM      5  C   LIG    1       27.567 -13.575   5.209  0.00  0.00    +0.159 C 
ATOM      6  C   LIG    1       26.112 -13.843   5.651  0.00  0.00    +0.119 C 
ENDROOT
BRANCH   3   7
ATOM      7  O   LIG    1       27.019 -13.023   2.208  0.00  0.00    -0.388 OA
ATOM      8  H   LIG    1       26.196 -12.875   1.702  0.00  0.00    +0.210 HD
ENDBRANCH   3   7
BRANCH   4   9
ATOM      9  O   LIG    1       28.107 -15.791   4.354  0.00  0.00    -0.387 OA
ATOM     10  H   LIG    1       27.295 -16.063   4.825  0.00  0.00    +0.210 HD
ENDBRANCH   4   9
BRANCH   5  11
ATOM     11  O   LIG    1       27.785 -12.192   4.916  0.00  0.00    -0.388 OA
ATOM     12  H   LIG    1       27.927 -11.739   5.769  0.00  0.00    +0.210 HD
ENDBRANCH   5  11
BRANCH   1  13
ATOM     13  C   LIG    1       24.770 -12.259   4.286  0.00  0.00    +0.112 C 
BRANCH  13  14
ATOM     14  C   LIG    1       23.836 -12.020   3.091  0.00  0.00    +0.171 C 
BRANCH  14  15
ATOM     15  O   LIG    1       24.523 -11.447   1.988  0.00  0.00    -0.394 OA
ATOM     16  H   LIG    1       24.251 -10.519   1.979  0.00  0.00    +0.209 HD
ENDBRANCH  14  15
ENDBRANCH  13  14
ENDBRANCH   1  13
BRANCH   2  17
ATOM     17  C   LIG    1       25.084 -15.954   3.632  0.00  0.00    +0.177 C 
BRANCH  17  18
ATOM     18  O   LIG    1       26.025 -16.780   2.939  0.00  0.00    -0.393 OA
ATOM     19  H   LIG    1       26.896 -16.462   3.247  0.00  0.00    +0.209 HD
ENDBRANCH  17  18
ENDBRANCH   2  17
TORSDOF 8
ENDMDL
MODEL 3
REMARK VINA RESULT:      -2.5      1.598      3.264
REMARK  Name = *****
REMARK                            x       y       z     vdW  Elec       q    Type
REMARK                         _______ _______ _______ _____ _____    ______ ____
ROOT
ATOM      1  N   LIG    1       25.607 -15.062   3.208  0.00  0.00    -0.290 NA
ATOM      2  C   LIG    1       24.800 -14.529   4.357  0.00  0.00    +0.113 C 
ATOM      3  C   LIG    1       25.122 -13.069   4.781  0.00  0.00    +0.165 C 
ATOM      4  C   LIG    1       25.182 -12.085   3.597  0.00  0.00    +0.174 C 
ATOM      5  C   LIG    1       26.042 -12.647   2.454  0.00  0.00    +0.159 C 
ATOM      6  C   LIG    1       25.619 -14.088   2.095  0.00  0.00    +0.119 C 
ENDROOT
BRANCH   3   7
ATOM      7  O   LIG    1       26.360 -13.032   5.514  0.00  0.00    -0.388 OA
ATOM      8  H   LIG    1       26.695 -12.115   5.459  0.00  0.00    +0.210 HD
ENDBRANCH   3   7
BRANCH   4   9
ATOM      9  O   LIG    1       23.868 -11.782   3.130  0.00  0.00    -0.387 OA
ATOM     10  H   LIG    1       23.729 -12.294   2.309  0.00  0.00    +0.210 HD
ENDBRANCH   4   9
BRANCH   5  11
ATOM     11  O   LIG    1       27.424 -12.575   2.817  0.00  0.00    -0.388 OA
ATOM     12  H   LIG    1       27.918 -13.105   2.164  0.00  0.00    +0.210 HD
ENDBRANCH   5  11
BRANCH   1  13
ATOM     13  C   LIG    1       26.949 -15.505   3.644  0.00  0.00    +0.112 C 
BRANCH  13  14
ATOM     14  C   LIG    1       27.182 -17.021   3.707  0.00  0.00    +0.171 C 
BRANCH  14  15
ATOM     15  O   LIG    1       26.136 -17.744   3.074  0.00  0.00    -0.394 OA
ATOM     16  H   LIG    1       25.388 -17.687   3.685  0.00  0.00    +0.209 HD
ENDBRANCH  14  15
ENDBRANCH  13  14
ENDBRANCH   1  13
BRANCH   2  17
ATOM     17  C   LIG    1       23.292 -14.702   4.043  0.00  0.00    +0.177 C 
BRANCH  17  18
ATOM     18  O   LIG    1       22.756 -15.773   4.828  0.00  0.00    -0.393 OA
ATOM     19  H   LIG    1       23.497 -16.039   5.407  0.00  0.00    +0.209 HD
ENDBRANCH  17  18
ENDBRANCH   2  17
TORSDOF 8
ENDMDL
MODEL 4
REMARK VINA RESULT:      -2.3      1.840      2.345
REMARK  Name = *****
REMARK                            x       y       z     vdW  Elec       q    Type
REMARK                         _______ _______ _______ _____ _____    ______ ____
ROOT
ATOM      1  N   LIG    1       26.214 -14.488   3.995  0.00  0.00    -0.290 NA
ATOM      2  C   LIG    1       24.841 -14.200   4.535  0.00  0.00    +0.113 C 
ATOM      3  C   LIG    1       24.233 -12.833   4.119  0.00  0.00    +0.165 C 
ATOM      4  C   LIG    1       24.344 -12.545   2.609  0.00  0.00    +0.174 C 
ATOM      5  C   LIG    1       25.768 -12.817   2.098  0.00  0.00    +0.159 C 
ATOM      6  C   LIG    1       26.262 -14.211   2.543  0.00  0.00    +0.119 C 
ENDROOT
BRANCH   3   7
ATOM      7  O   LIG    1       24.850 -11.772   4.868  0.00  0.00    -0.388 OA
ATOM      8  H   LIG    1       25.357 -11.232   4.231  0.00  0.00    +0.210 HD
ENDBRANCH   3   7
BRANCH   4   9
ATOM      9  O   LIG    1       23.394 -13.320   1.879  0.00  0.00    -0.387 OA
ATOM     10  H   LIG    1       22.516 -12.924   2.039  0.00  0.00    +0.210 HD
ENDBRANCH   4   9
BRANCH   5  11
ATOM     11  O   LIG    1       26.642 -11.777   2.545  0.00  0.00    -0.388 OA
ATOM     12  H   LIG    1       27.066 -12.094   3.364  0.00  0.00    +0.210 HD
ENDBRANCH   5  11
BRANCH   1  13
ATOM     13  C   LIG    1       27.262 -13.803   4.781  0.00  0.00    +0.112 C 
BRANCH  13  14
ATOM     14  C   LIG    1       28.573 -13.490   4.046  0.00  0.00    +0.171 C 
BRANCH  14  15
ATOM     15  O   LIG    1       29.137 -12.257   4.472  0.00  0.00    -0.394 OA
ATOM     16  H   LIG    1       30.053 -12.467   4.701  0.00  0.00    +0.209 HD
ENDBRANCH  14  15
ENDBRANCH  13  14
ENDBRANCH   1  13
BRANCH   2  17
ATOM     17  C   LIG    1       23.894 -15.371   4.167  0.00  0.00    +0.177 C 
BRANCH  17  18
ATOM     18  O   LIG    1       22.722 -15.318   4.986  0.00  0.00    -0.393 OA
ATOM     19  H   LIG    1       22.328 -14.446   4.785  0.00  0.00    +0.209 HD
ENDBRANCH  17  18
ENDBRANCH   2  17
TORSDOF 8
ENDMDL
MODEL 5
REMARK VINA RESULT:      -2.2      1.530      4.439
REMARK  Name = *****
REMARK                            x       y       z     vdW  Elec       q    Type
REMARK                         _______ _______ _______ _____ _____    ______ ____
ROOT
ATOM      1  N   LIG    1       25.056 -14.254   3.183  0.00  0.00    -0.290 NA
ATOM      2  C   LIG    1       25.205 -12.971   3.950  0.00  0.00    +0.113 C 
ATOM      3  C   LIG    1       26.508 -12.839   4.787  0.00  0.00    +0.165 C 
ATOM      4  C   LIG    1       27.782 -13.206   4.001  0.00  0.00    +0.174 C 
ATOM      5  C   LIG    1       27.607 -14.539   3.257  0.00  0.00    +0.159 C 
ATOM      6  C   LIG    1       26.298 -14.551   2.437  0.00  0.00    +0.119 C 
ENDROOT
BRANCH   3   7
ATOM      7  O   LIG    1       26.413 -13.645   5.974  0.00  0.00    -0.388 OA
ATOM      8  H   LIG    1       27.328 -13.846   6.254  0.00  0.00    +0.210 HD
ENDBRANCH   3   7
BRANCH   4   9
ATOM      9  O   LIG    1       28.126 -12.165   3.088  0.00  0.00    -0.387 OA
ATOM     10  H   LIG    1       28.887 -11.687   3.471  0.00  0.00    +0.210 HD
ENDBRANCH   4   9
BRANCH   5  11
ATOM     11  O   LIG    1       27.655 -15.619   4.194  0.00  0.00    -0.388 OA
ATOM     12  H   LIG    1       26.740 -15.777   4.493  0.00  0.00    +0.210 HD
ENDBRANCH   5  11
BRANCH   1  13
ATOM     13  C   LIG    1       24.588 -15.355   4.051  0.00  0.00    +0.112 C 
BRANCH  13  14
ATOM     14  C   LIG    1       23.174 -15.215   4.632  0.00  0.00    +0.171 C 
BRANCH  14  15
ATOM     15  O   LIG    1       22.480 -16.454   4.639  0.00  0.00    -0.394 OA
ATOM     16  H   LIG    1       21.713 -16.307   5.211  0.00  0.00    +0.209 HD
ENDBRANCH  14  15
ENDBRANCH  13  14
ENDBRANCH   1  13
BRANCH   2  17
ATOM     17  C   LIG    1       25.039 -11.774   2.978  0.00  0.00    +0.177 C 
BRANCH  17  18
ATOM     18  O   LIG    1       23.826 -11.923   2.234  0.00  0.00    -0.393 OA
ATOM     19  H   LIG    1       23.605 -11.014   1.951  0.00  0.00    +0.209 HD
ENDBRANCH  17  18
ENDBRANCH   2  17
TORSDOF 8
ENDMDL
MODEL 6
REMARK VINA RESULT:      -2.2      1.503      3.229
REMARK  Name = *****
REMARK                            x       y       z     vdW  Elec       q    Type
REMARK                         _______ _______ _______ _____ _____    ______ ____
ROOT
ATOM      1  N   LIG    1       26.645 -13.016   4.558  0.00  0.00    -0.290 NA
ATOM      2  C   LIG    1       25.371 -12.324   4.161  0.00  0.00    +0.113 C 
ATOM      3  C   LIG    1       24.491 -13.082   3.131  0.00  0.00    +0.165 C 
ATOM      4  C   LIG    1       24.269 -14.565   3.486  0.00  0.00    +0.174 C 
ATOM      5  C   LIG    1       25.595 -15.250   3.853  0.00  0.00    +0.159 C 
ATOM      6  C   LIG    1       26.374 -14.428   4.903  0.00  0.00    +0.119 C 
ENDROOT
BRANCH   3   7
ATOM      7  O   LIG    1       25.067 -12.972   1.817  0.00  0.00    -0.388 OA
ATOM      8  H   LIG    1       24.594 -13.609   1.246  0.00  0.00    +0.210 HD
ENDBRANCH   3   7
BRANCH   4   9
ATOM      9  O   LIG    1       23.330 -14.691   4.553  0.00  0.00    -0.387 OA
ATOM     10  H   LIG    1       23.441 -15.585   4.930  0.00  0.00    +0.210 HD
ENDBRANCH   4   9
BRANCH   5  11
ATOM     11  O   LIG    1       26.367 -15.462   2.667  0.00  0.00    -0.388 OA
ATOM     12  H   LIG    1       26.512 -16.424   2.590  0.00  0.00    +0.210 HD
ENDBRANCH   5  11
BRANCH   1  13
ATOM     13  C   LIG    1       27.704 -12.829   3.543  0.00  0.00    +0.112 C 
BRANCH  13  14
ATOM     14  C   LIG    1       29.111 -12.516   4.072  0.00  0.00    +0.171 C 
BRANCH  14  15
ATOM     15  O   LIG    1       29.069 -11.859   5.331  0.00  0.00    -0.394 OA
ATOM     16  H   LIG    1       28.256 -12.175   5.750  0.00  0.00    +0.209 HD
ENDBRANCH  14  15
ENDBRANCH  13  14
ENDBRANCH   1  13
BRANCH   2  17
ATOM     17  C   LIG    1       24.565 -11.973   5.438  0.00  0.00    +0.177 C 
BRANCH  17  18
ATOM     18  O   LIG    1       23.285 -11.448   5.070  0.00  0.00    -0.393 OA
ATOM     19  H   LIG    1       23.483 -10.810   4.356  0.00  0.00    +0.209 HD
ENDBRANCH  17  18
ENDBRANCH   2  17
TORSDOF 8
ENDMDL
MODEL 7
REMARK VINA RESULT:      -2.2      5.214      7.329
REMARK  Name = *****
REMARK                            x       y       z     vdW  Elec       q    Type
REMARK                         _______ _______ _______ _____ _____    ______ ____
ROOT
ATOM      1  N   LIG    1       25.240 -19.950   5.401  0.00  0.00    -0.290 NA
ATOM      2  C   LIG    1       25.019 -19.646   3.946  0.00  0.00    +0.113 C 
ATOM      3  C   LIG    1       23.675 -20.150   3.354  0.00  0.00    +0.165 C 
ATOM      4  C   LIG    1       22.451 -19.797   4.222  0.00  0.00    +0.174 C 
ATOM      5  C   LIG    1       22.698 -20.152   5.696  0.00  0.00    +0.159 C 
ATOM      6  C   LIG    1       24.045 -19.579   6.188  0.00  0.00    +0.119 C 
ENDROOT
BRANCH   3   7
ATOM      7  O   LIG    1       23.733 -21.572   3.142  0.00  0.00    -0.388 OA
ATOM      8  H   LIG    1       22.868 -21.935   3.416  0.00  0.00    +0.210 HD
ENDBRANCH   3   7
BRANCH   4   9
ATOM      9  O   LIG    1       22.123 -18.415   4.089  0.00  0.00    -0.387 OA
ATOM     10  H   LIG    1       22.625 -17.933   4.775  0.00  0.00    +0.210 HD
ENDBRANCH   4   9
BRANCH   5  11
ATOM     11  O   LIG    1       22.634 -21.572   5.863  0.00  0.00    -0.388 OA
ATOM     12  H   LIG    1       22.962 -21.768   6.760  0.00  0.00    +0.210 HD
ENDBRANCH   5  11
BRANCH   1  13
ATOM     13  C   LIG    1       25.695 -21.342   5.602  0.00  0.00    +0.112 C 
BRANCH  13  14
ATOM     14  C   LIG    1       26.723 -21.571   6.720  0.00  0.00    +0.171 C 
BRANCH  14  15
ATOM     15  O   LIG    1       27.958 -20.928   6.442  0.00  0.00    -0.394 OA
ATOM     16  H   LIG    1       27.733 -20.205   5.839  0.00  0.00    +0.209 HD
ENDBRANCH  14  15
ENDBRANCH  13  14
ENDBRANCH   1  13
BRANCH   2  17
ATOM     17  C   LIG    1       25.200 -18.124   3.711  0.00  0.00    +0.177 C 
BRANCH  17  18
ATOM     18  O   LIG    1       26.480 -17.876   3.121  0.00  0.00    -0.393 OA
ATOM     19  H   LIG    1       26.294 -17.808   2.164  0.00  0.00    +0.209 HD
ENDBRANCH  17  18
ENDBRANCH   2  17
TORSDOF 8
ENDMDL
MODEL 8
REMARK VINA RESULT:      -2.0      1.820      4.232
REMARK  Name = *****
REMARK                            x       y       z     vdW  Elec       q    Type
REMARK                         _______ _______ _______ _____ _____    ______ ____
ROOT
ATOM      1  N   LIG    1       25.402 -13.625   4.763  0.00  0.00    -0.290 NA
ATOM      2  C   LIG    1       26.807 -13.834   5.251  0.00  0.00    +0.113 C 
ATOM      3  C   LIG    1       27.835 -14.262   4.168  0.00  0.00    +0.165 C 
ATOM      4  C   LIG    1       27.776 -13.401   2.892  0.00  0.00    +0.174 C 
ATOM      5  C   LIG    1       26.329 -13.235   2.402  0.00  0.00    +0.159 C 
ATOM      6  C   LIG    1       25.401 -12.781   3.550  0.00  0.00    +0.119 C 
ENDROOT
BRANCH   3   7
ATOM      7  O   LIG    1       27.647 -15.649   3.833  0.00  0.00    -0.388 OA
ATOM      8  H   LIG    1       26.707 -15.757   3.589  0.00  0.00    +0.210 HD
ENDBRANCH   3   7
BRANCH   4   9
ATOM      9  O   LIG    1       28.375 -12.125   3.120  0.00  0.00    -0.387 OA
ATOM     10  H   LIG    1       27.648 -11.488   3.259  0.00  0.00    +0.210 HD
ENDBRANCH   4   9
BRANCH   5  11
ATOM     11  O   LIG    1       25.882 -14.460   1.812  0.00  0.00    -0.388 OA
ATOM     12  H   LIG    1       26.435 -14.614   1.023  0.00  0.00    +0.210 HD
ENDBRANCH   5  11
BRANCH   1  13
ATOM     13  C   LIG    1       24.681 -14.908   4.614  0.00  0.00    +0.112 C 
BRANCH  13  14
ATOM     14  C   LIG    1       23.176 -14.818   4.327  0.00  0.00    +0.171 C 
BRANCH  14  15
ATOM     15  O   LIG    1       22.484 -15.979   4.764  0.00  0.00    -0.394 OA
ATOM     16  H   LIG    1       22.593 -16.619   4.047  0.00  0.00    +0.209 HD
ENDBRANCH  14  15
ENDBRANCH  13  14
ENDBRANCH   1  13
BRANCH   2  17
ATOM     17  C   LIG    1       27.280 -12.562   6.001  0.00  0.00    +0.177 C 
BRANCH  17  18
ATOM     18  O   LIG    1       28.683 -12.372   5.790  0.00  0.00    -0.393 OA
ATOM     19  H   LIG    1       28.805 -11.403   5.843  0.00  0.00    +0.209 HD
ENDBRANCH  17  18
ENDBRANCH   2  17
TORSDOF 8
ENDMDL
MODEL 9
REMARK VINA RESULT:      -1.9      1.651      4.138
REMARK  Name = *****
REMARK                            x       y       z     vdW  Elec       q    Type
REMARK                         _______ _______ _______ _____ _____    ______ ____
ROOT
ATOM      1  N   LIG    1       25.388 -14.609   3.044  0.00  0.00    -0.290 NA
ATOM      2  C   LIG    1       25.228 -13.314   3.790  0.00  0.00    +0.113 C 
ATOM      3  C   LIG    1       26.432 -12.901   4.680  0.00  0.00    +0.165 C 
ATOM      4  C   LIG    1       27.790 -13.001   3.960  0.00  0.00    +0.174 C 
ATOM      5  C   LIG    1       27.935 -14.349   3.236  0.00  0.00    +0.159 C 
ATOM      6  C   LIG    1       26.699 -14.646   2.360  0.00  0.00    +0.119 C 
ENDROOT
BRANCH   3   7
ATOM      7  O   LIG    1       26.452 -13.695   5.879  0.00  0.00    -0.388 OA
ATOM      8  H   LIG    1       26.667 -14.610   5.610  0.00  0.00    +0.210 HD
ENDBRANCH   3   7
BRANCH   4   9
ATOM      9  O   LIG    1       27.952 -11.922   3.040  0.00  0.00    -0.387 OA
ATOM     10  H   LIG    1       28.348 -12.293   2.228  0.00  0.00    +0.210 HD
ENDBRANCH   4   9
BRANCH   5  11
ATOM     11  O   LIG    1       28.164 -15.384   4.198  0.00  0.00    -0.388 OA
ATOM     12  H   LIG    1       27.527 -15.244   4.923  0.00  0.00    +0.210 HD
ENDBRANCH   5  11
BRANCH   1  13
ATOM     13  C   LIG    1       25.121 -15.774   3.914  0.00  0.00    +0.112 C 
BRANCH  13  14
ATOM     14  C   LIG    1       25.306 -17.160   3.278  0.00  0.00    +0.171 C 
BRANCH  14  15
ATOM     15  O   LIG    1       26.570 -17.723   3.594  0.00  0.00    -0.394 OA
ATOM     16  H   LIG    1       26.588 -18.572   3.130  0.00  0.00    +0.209 HD
ENDBRANCH  14  15
ENDBRANCH  13  14
ENDBRANCH   1  13
BRANCH   2  17
ATOM     17  C   LIG    1       24.861 -12.191   2.786  0.00  0.00    +0.177 C 
BRANCH  17  18
ATOM     18  O   LIG    1       23.812 -12.642   1.921  0.00  0.00    -0.393 OA
ATOM     19  H   LIG    1       24.276 -12.920   1.107  0.00  0.00    +0.209 HD
ENDBRANCH  17  18
ENDBRANCH   2  17
TORSDOF 8
ENDMDL
