MODEL 1
REMARK VINA RESULT:      -5.8      0.000      0.000
REMARK  Name = *****
REMARK                            x       y       z     vdW  Elec       q    Type
REMARK                         _______ _______ _______ _____ _____    ______ ____
ROOT
ATOM      1  C   LIG    1       24.246 -20.856   4.495  0.00  0.00    +0.056 C 
ENDROOT
BRANCH   1   2
ATOM      2  C   LIG    1       25.545 -20.738   5.260  0.00  0.00    -0.046 A 
ATOM      3  C   LIG    1       26.510 -19.797   4.876  0.00  0.00    +0.003 A 
ATOM      4  C   LIG    1       27.710 -19.680   5.580  0.00  0.00    +0.000 A 
ATOM      5  C   LIG    1       27.959 -20.506   6.674  0.00  0.00    +0.000 A 
ATOM      6  C   LIG    1       27.012 -21.451   7.061  0.00  0.00    +0.000 A 
ATOM      7  C   LIG    1       25.811 -21.569   6.357  0.00  0.00    +0.003 A 
ENDBRANCH   1   2
BRANCH   1   9
ATOM      8  C   LIG    1       22.425 -19.073   4.780  0.00  0.00    +0.027 C 
ATOM      9  C   LIG    1       22.954 -20.434   5.254  0.00  0.00    +0.015 C 
ATOM     10  C   LIG    1       23.162 -20.411   6.775  0.00  0.00    +0.027 C 
BRANCH   9  11
ATOM     11  N   LIG    1       21.910 -21.436   4.954  0.00  0.00    -0.325 NA
ATOM     12  H   LIG    1       21.163 -21.373   5.646  0.00  0.00    +0.119 HD
ATOM     13  H   LIG    1       21.477 -21.224   4.054  0.00  0.00    +0.119 HD
ENDBRANCH   9  11
ENDBRANCH   1   9
TORSDOF 3
ENDMDL
MODEL 2
REMARK VINA RESULT:      -4.1      2.272      4.641
REMARK  Name = *****
REMARK                            x       y       z     vdW  Elec       q    Type
REMARK                         _______ _______ _______ _____ _____    ______ ____
ROOT
ATOM      1  C   LIG    1       26.703 -20.474   4.529  0.00  0.00    +0.056 C 
ENDROOT
BRANCH   1   2
ATOM      2  C   LIG    1       25.233 -20.129   4.624  0.00  0.00    -0.046 A 
ATOM      3  C   LIG    1       24.378 -20.886   5.436  0.00  0.00    +0.003 A 
ATOM      4  C   LIG    1       23.022 -20.570   5.531  0.00  0.00    +0.000 A 
ATOM      5  C   LIG    1       22.505 -19.495   4.811  0.00  0.00    +0.000 A 
ATOM      6  C   LIG    1       23.342 -18.740   3.993  0.00  0.00    +0.000 A 
ATOM      7  C   LIG    1       24.699 -19.055   3.897  0.00  0.00    +0.003 A 
ENDBRANCH   1   2
BRANCH   1   9
ATOM      8  C   LIG    1       26.755 -20.072   7.062  0.00  0.00    +0.027 C 
ATOM      9  C   LIG    1       27.578 -20.122   5.767  0.00  0.00    +0.015 C 
ATOM     10  C   LIG    1       28.333 -18.797   5.579  0.00  0.00    +0.027 C 
BRANCH   9  11
ATOM     11  N   LIG    1       28.580 -21.196   5.928  0.00  0.00    -0.325 NA
ATOM     12  H   LIG    1       28.770 -21.344   6.919  0.00  0.00    +0.119 HD
ATOM     13  H   LIG    1       28.199 -22.077   5.582  0.00  0.00    +0.119 HD
ENDBRANCH   9  11
ENDBRANCH   1   9
TORSDOF 3
ENDMDL
MODEL 3
REMARK VINA RESULT:      -4.0      6.441      7.314
REMARK  Name = *****
REMARK                            x       y       z     vdW  Elec       q    Type
REMARK                         _______ _______ _______ _____ _____    ______ ____
ROOT
ATOM      1  C   LIG    1       25.420 -14.772   3.710  0.00  0.00    +0.056 C 
ENDROOT
BRANCH   1   2
ATOM      2  C   LIG    1       26.657 -13.955   4.010  0.00  0.00    -0.046 A 
ATOM      3  C   LIG    1       27.539 -13.600   2.981  0.00  0.00    +0.003 A 
ATOM      4  C   LIG    1       28.680 -12.843   3.251  0.00  0.00    +0.000 A 
ATOM      5  C   LIG    1       28.954 -12.436   4.555  0.00  0.00    +0.000 A 
ATOM      6  C   LIG    1       28.090 -12.790   5.589  0.00  0.00    +0.000 A 
ATOM      7  C   LIG    1       26.948 -13.548   5.320  0.00  0.00    +0.003 A 
ENDBRANCH   1   2
BRANCH   1   9
ATOM      8  C   LIG    1       24.189 -12.804   4.800  0.00  0.00    +0.027 C 
ATOM      9  C   LIG    1       24.052 -14.067   3.937  0.00  0.00    +0.015 C 
ATOM     10  C   LIG    1       23.013 -15.012   4.560  0.00  0.00    +0.027 C 
BRANCH   9  11
ATOM     11  N   LIG    1       23.542 -13.639   2.617  0.00  0.00    -0.325 NA
ATOM     12  H   LIG    1       22.619 -13.218   2.724  0.00  0.00    +0.119 HD
ATOM     13  H   LIG    1       24.142 -12.906   2.238  0.00  0.00    +0.119 HD
ENDBRANCH   9  11
ENDBRANCH   1   9
TORSDOF 3
ENDMDL
MODEL 4
REMARK VINA RESULT:      -4.0      6.451      7.417
REMARK  Name = *****
REMARK                            x       y       z     vdW  Elec       q    Type
REMARK                         _______ _______ _______ _____ _____    ______ ____
ROOT
ATOM      1  C   LIG    1       25.418 -14.769   3.715  0.00  0.00    +0.056 C 
ENDROOT
BRANCH   1   2
ATOM      2  C   LIG    1       26.657 -13.951   4.000  0.00  0.00    -0.046 A 
ATOM      3  C   LIG    1       26.948 -13.537   5.307  0.00  0.00    +0.003 A 
ATOM      4  C   LIG    1       28.093 -12.785   5.578  0.00  0.00    +0.000 A 
ATOM      5  C   LIG    1       28.957 -12.435   4.543  0.00  0.00    +0.000 A 
ATOM      6  C   LIG    1       28.675 -12.833   3.238  0.00  0.00    +0.000 A 
ATOM      7  C   LIG    1       27.530 -13.585   2.966  0.00  0.00    +0.003 A 
ENDBRANCH   1   2
BRANCH   1   9
ATOM      8  C   LIG    1       24.193 -12.785   4.784  0.00  0.00    +0.027 C 
ATOM      9  C   LIG    1       24.052 -14.056   3.934  0.00  0.00    +0.015 C 
ATOM     10  C   LIG    1       23.009 -14.991   4.564  0.00  0.00    +0.027 C 
BRANCH   9  11
ATOM     11  N   LIG    1       23.546 -13.640   2.609  0.00  0.00    -0.325 NA
ATOM     12  H   LIG    1       22.876 -14.328   2.264  0.00  0.00    +0.119 HD
ATOM     13  H   LIG    1       23.029 -12.765   2.697  0.00  0.00    +0.119 HD
ENDBRANCH   9  11
ENDBRANCH   1   9
TORSDOF 3
ENDMDL
MODEL 5
REMARK VINA RESULT:      -3.4      5.452      7.205
REMARK  Name = *****
REMARK                            x       y       z     vdW  Elec       q    Type
REMARK                         _______ _______ _______ _____ _____    ______ ____
ROOT
ATOM      1  C   LIG    1       26.351 -14.154   3.096  0.00  0.00    +0.056 C 
ENDROOT
BRANCH   1   2
ATOM      2  C   LIG    1       25.218 -15.061   3.524  0.00  0.00    -0.046 A 
ATOM      3  C   LIG    1       25.329 -16.450   3.376  0.00  0.00    +0.003 A 
ATOM      4  C   LIG    1       24.289 -17.292   3.773  0.00  0.00    +0.000 A 
ATOM      5  C   LIG    1       23.124 -16.754   4.317  0.00  0.00    +0.000 A 
ATOM      6  C   LIG    1       22.999 -15.374   4.461  0.00  0.00    +0.000 A 
ATOM      7  C   LIG    1       24.038 -14.530   4.064  0.00  0.00    +0.003 A 
ENDBRANCH   1   2
BRANCH   1   9
ATOM      8  C   LIG    1       27.011 -13.549   5.500  0.00  0.00    +0.027 C 
ATOM      9  C   LIG    1       27.515 -13.973   4.113  0.00  0.00    +0.015 C 
ATOM     10  C   LIG    1       28.567 -12.972   3.613  0.00  0.00    +0.027 C 
BRANCH   9  11
ATOM     11  N   LIG    1       28.179 -15.285   4.274  0.00  0.00    -0.325 NA
ATOM     12  H   LIG    1       27.548 -16.029   3.976  0.00  0.00    +0.119 HD
ATOM     13  H   LIG    1       28.988 -15.339   3.655  0.00  0.00    +0.119 HD
ENDBRANCH   9  11
ENDBRANCH   1   9
TORSDOF 3
ENDMDL
MODEL 6
REMARK VINA RESULT:      -3.4      2.751      4.211
REMARK  Name = *****
REMARK                            x       y       z     vdW  Elec       q    Type
REMARK                         _______ _______ _______ _____ _____    ______ ____
ROOT
ATOM      1  C   LIG    1       23.541 -19.191   3.659  0.00  0.00    +0.056 C 
ENDROOT
BRANCH   1   2
ATOM      2  C   LIG    1       24.188 -17.824   3.696  0.00  0.00    -0.046 A 
ATOM      3  C   LIG    1       23.464 -16.710   4.142  0.00  0.00    +0.003 A 
ATOM      4  C   LIG    1       24.057 -15.447   4.184  0.00  0.00    +0.000 A 
ATOM      5  C   LIG    1       25.379 -15.283   3.774  0.00  0.00    +0.000 A 
ATOM      6  C   LIG    1       26.106 -16.381   3.321  0.00  0.00    +0.000 A 
ATOM      7  C   LIG    1       25.514 -17.645   3.279  0.00  0.00    +0.003 A 
ENDBRANCH   1   2
BRANCH   1   9
ATOM      8  C   LIG    1       23.177 -20.187   5.994  0.00  0.00    +0.027 C 
ATOM      9  C   LIG    1       24.032 -20.219   4.719  0.00  0.00    +0.015 C 
ATOM     10  C   LIG    1       25.511 -20.013   5.079  0.00  0.00    +0.027 C 
BRANCH   9  11
ATOM     11  N   LIG    1       23.891 -21.569   4.134  0.00  0.00    -0.325 NA
ATOM     12  H   LIG    1       22.905 -21.779   3.984  0.00  0.00    +0.119 HD
ATOM     13  H   LIG    1       24.326 -21.591   3.211  0.00  0.00    +0.119 HD
ENDBRANCH   9  11
ENDBRANCH   1   9
TORSDOF 3
ENDMDL
MODEL 7
REMARK VINA RESULT:      -3.0      4.279      5.933
REMARK  Name = *****
REMARK                            x       y       z     vdW  Elec       q    Type
REMARK                         _______ _______ _______ _____ _____    ______ ____
ROOT
ATOM      1  C   LIG    1       26.171 -16.568   3.248  0.00  0.00    +0.056 C 
ENDROOT
BRANCH   1   2
ATOM      2  C   LIG    1       24.914 -17.321   3.623  0.00  0.00    -0.046 A 
ATOM      3  C   LIG    1       24.874 -18.720   3.538  0.00  0.00    +0.003 A 
ATOM      4  C   LIG    1       23.719 -19.421   3.887  0.00  0.00    +0.000 A 
ATOM      5  C   LIG    1       22.589 -18.731   4.320  0.00  0.00    +0.000 A 
ATOM      6  C   LIG    1       22.612 -17.341   4.401  0.00  0.00    +0.000 A 
ATOM      7  C   LIG    1       23.767 -16.638   4.052  0.00  0.00    +0.003 A 
ENDBRANCH   1   2
BRANCH   1   9
ATOM      8  C   LIG    1       27.214 -14.504   4.358  0.00  0.00    +0.027 C 
ATOM      9  C   LIG    1       26.124 -15.020   3.408  0.00  0.00    +0.015 C 
ATOM     10  C   LIG    1       24.747 -14.532   3.880  0.00  0.00    +0.027 C 
BRANCH   9  11
ATOM     11  N   LIG    1       26.386 -14.425   2.081  0.00  0.00    -0.325 NA
ATOM     12  H   LIG    1       25.950 -14.993   1.355  0.00  0.00    +0.119 HD
ATOM     13  H   LIG    1       25.943 -13.507   2.022  0.00  0.00    +0.119 HD
ENDBRANCH   9  11
ENDBRANCH   1   9
TORSDOF 3
ENDMDL
MODEL 8
REMARK VINA RESULT:      -2.9      5.435      6.372
REMARK  Name = *****
REMARK                            x       y       z     vdW  Elec       q    Type
REMARK                         _______ _______ _______ _____ _____    ______ ____
ROOT
ATOM      1  C   LIG    1       25.727 -13.890   2.877  0.00  0.00    +0.056 C 
ENDROOT
BRANCH   1   2
ATOM      2  C   LIG    1       26.322 -15.207   3.322  0.00  0.00    -0.046 A 
ATOM      3  C   LIG    1       25.662 -16.412   3.047  0.00  0.00    +0.003 A 
ATOM      4  C   LIG    1       26.209 -17.631   3.452  0.00  0.00    +0.000 A 
ATOM      5  C   LIG    1       27.420 -17.657   4.140  0.00  0.00    +0.000 A 
ATOM      6  C   LIG    1       28.082 -16.466   4.428  0.00  0.00    +0.000 A 
ATOM      7  C   LIG    1       27.536 -15.245   4.023  0.00  0.00    +0.003 A 
ENDBRANCH   1   2
BRANCH   1   9
ATOM      8  C   LIG    1       25.019 -12.522   4.927  0.00  0.00    +0.027 C 
ATOM      9  C   LIG    1       24.539 -13.345   3.723  0.00  0.00    +0.015 C 
ATOM     10  C   LIG    1       23.608 -14.470   4.198  0.00  0.00    +0.027 C 
BRANCH   9  11
ATOM     11  N   LIG    1       23.752 -12.438   2.861  0.00  0.00    -0.325 NA
ATOM     12  H   LIG    1       24.128 -12.451   1.913  0.00  0.00    +0.119 HD
ATOM     13  H   LIG    1       22.794 -12.780   2.787  0.00  0.00    +0.119 HD
ENDBRANCH   9  11
ENDBRANCH   1   9
TORSDOF 3
ENDMDL
MODEL 9
REMARK VINA RESULT:      -2.8      4.493      6.186
REMARK  Name = *****
REMARK                            x       y       z     vdW  Elec       q    Type
REMARK                         _______ _______ _______ _____ _____    ______ ____
ROOT
ATOM      1  C   LIG    1       23.963 -14.821   4.125  0.00  0.00    +0.056 C 
ENDROOT
BRANCH   1   2
ATOM      2  C   LIG    1       23.687 -16.308   4.112  0.00  0.00    -0.046 A 
ATOM      3  C   LIG    1       22.461 -16.805   4.574  0.00  0.00    +0.003 A 
ATOM      4  C   LIG    1       22.198 -18.175   4.561  0.00  0.00    +0.000 A 
ATOM      5  C   LIG    1       23.161 -19.065   4.090  0.00  0.00    +0.000 A 
ATOM      6  C   LIG    1       24.388 -18.585   3.637  0.00  0.00    +0.000 A 
ATOM      7  C   LIG    1       24.652 -17.214   3.650  0.00  0.00    +0.003 A 
ENDBRANCH   1   2
BRANCH   1   9
ATOM      8  C   LIG    1       26.186 -13.771   4.856  0.00  0.00    +0.027 C 
ATOM      9  C   LIG    1       25.390 -14.377   3.691  0.00  0.00    +0.015 C 
ATOM     10  C   LIG    1       25.354 -13.389   2.515  0.00  0.00    +0.027 C 
BRANCH   9  11
ATOM     11  N   LIG    1       26.120 -15.584   3.247  0.00  0.00    -0.325 NA
ATOM     12  H   LIG    1       26.833 -15.828   3.933  0.00  0.00    +0.119 HD
ATOM     13  H   LIG    1       25.480 -16.379   3.211  0.00  0.00    +0.119 HD
ENDBRANCH   9  11
ENDBRANCH   1   9
TORSDOF 3
ENDMDL
