MODEL 1
REMARK VINA RESULT:      -5.9      0.000      0.000
REMARK  Name = *****
REMARK                            x       y       z     vdW  Elec       q    Type
REMARK                         _______ _______ _______ _____ _____    ______ ____
ROOT
ATOM      1  C   LIG    1       24.994 -31.766  11.425  0.00  0.00    +0.132 C 
ATOM      2  C   LIG    1       25.208 -30.222  11.282  0.00  0.00    +0.014 C 
ATOM      3  C   LIG    1       24.040 -29.617  12.138  0.00  0.00    +0.002 C 
ATOM      4  C   LIG    1       24.368 -29.050  13.549  0.00  0.00    -0.003 C 
ATOM      5  C   LIG    1       25.757 -28.379  13.643  0.00  0.00    -0.000 C 
ATOM      6  C   LIG    1       26.796 -29.410  13.198  0.00  0.00    +0.005 C 
ATOM      7  C   LIG    1       25.785 -27.023  12.883  0.00  0.00    +0.019 C 
ATOM      8  C   LIG    1       24.692 -26.139  13.461  0.00  0.00    -0.064 C 
ATOM      9  C   LIG    1       24.914 -24.969  14.083  0.00  0.00    +0.026 C 
ATOM     10  C   LIG    1       26.305 -24.501  14.341  0.00  0.00    +0.080 C 
ATOM     11  C   LIG    1       27.409 -25.522  14.143  0.00  0.00    +0.059 C 
ATOM     12  N   LIG    1       26.649 -23.322  14.765  0.00  0.00    -0.092 NA
ATOM     13  C   LIG    1       23.305 -26.712  13.344  0.00  0.00    +0.031 C 
ATOM     14  C   LIG    1       27.149 -26.309  12.869  0.00  0.00    +0.014 C 
ATOM     15  C   LIG    1       23.259 -28.082  14.030  0.00  0.00    +0.008 C 
ATOM     16  C   LIG    1       22.968 -30.731  12.260  0.00  0.00    +0.008 C 
ATOM     17  C   LIG    1       26.638 -29.792  11.735  0.00  0.00    +0.011 C 
ATOM     18  C   LIG    1       23.478 -31.952  11.504  0.00  0.00    +0.049 C 
ENDROOT
BRANCH   1  20
ATOM     19  C   LIG    1       26.057 -33.206   9.438  0.00  0.00    +0.007 C 
ATOM     20  C   LIG    1       25.577 -32.559  10.330  0.00  0.00    -0.070 C 
ENDBRANCH   1  20
BRANCH   1  21
ATOM     21  O   LIG    1       25.563 -32.250  12.642  0.00  0.00    -0.376 OA
ATOM     22  H   LIG    1       25.170 -33.113  12.847  0.00  0.00    +0.211 HD
ENDBRANCH   1  21
BRANCH  12  23
ATOM     23  O   LIG    1       25.544 -22.475  14.916  0.00  0.00    -0.409 OA
ATOM     24  H   LIG    1       25.483 -22.059  14.036  0.00  0.00    +0.328 HD
ENDBRANCH  12  23
BRANCH   2  25
ATOM     25  C   LIG    1       25.083 -29.693   9.799  0.00  0.00    +0.007 C 
ATOM     26  C   LIG    1       26.220 -28.885   9.188  0.00  0.00    +0.004 C 
ENDBRANCH   2  25
TORSDOF 4
ENDMDL
MODEL 2
REMARK VINA RESULT:      -5.4      3.092      4.491
REMARK  Name = *****
REMARK                            x       y       z     vdW  Elec       q    Type
REMARK                         _______ _______ _______ _____ _____    ______ ____
ROOT
ATOM      1  C   LIG    1       24.671 -32.952   6.440  0.00  0.00    +0.132 C 
ATOM      2  C   LIG    1       24.706 -31.536   7.107  0.00  0.00    +0.014 C 
ATOM      3  C   LIG    1       23.835 -31.725   8.399  0.00  0.00    +0.002 C 
ATOM      4  C   LIG    1       24.558 -31.862   9.769  0.00  0.00    -0.003 C 
ATOM      5  C   LIG    1       25.846 -31.015   9.883  0.00  0.00    -0.000 C 
ATOM      6  C   LIG    1       26.761 -31.415   8.723  0.00  0.00    +0.005 C 
ATOM      7  C   LIG    1       25.519 -29.500   9.992  0.00  0.00    +0.019 C 
ATOM      8  C   LIG    1       24.607 -29.301  11.191  0.00  0.00    -0.064 C 
ATOM      9  C   LIG    1       24.927 -28.572  12.274  0.00  0.00    +0.026 C 
ATOM     10  C   LIG    1       26.286 -27.974  12.409  0.00  0.00    +0.080 C 
ATOM     11  C   LIG    1       27.341 -28.471  11.441  0.00  0.00    +0.059 C 
ATOM     12  N   LIG    1       26.655 -27.112  13.307  0.00  0.00    -0.092 NA
ATOM     13  C   LIG    1       23.307 -30.055  11.112  0.00  0.00    +0.031 C 
ATOM     14  C   LIG    1       26.744 -28.569  10.047  0.00  0.00    +0.014 C 
ATOM     15  C   LIG    1       23.593 -31.551  10.939  0.00  0.00    +0.008 C 
ATOM     16  C   LIG    1       22.951 -32.975   8.148  0.00  0.00    +0.008 C 
ATOM     17  C   LIG    1       26.167 -31.056   7.370  0.00  0.00    +0.011 C 
ATOM     18  C   LIG    1       23.282 -33.507   6.758  0.00  0.00    +0.049 C 
ENDROOT
BRANCH   1  20
ATOM     19  C   LIG    1       25.133 -32.938   3.807  0.00  0.00    +0.007 C 
ATOM     20  C   LIG    1       24.927 -32.941   4.990  0.00  0.00    -0.070 C 
ENDBRANCH   1  20
BRANCH   1  21
ATOM     21  O   LIG    1       25.640 -33.818   7.031  0.00  0.00    -0.376 OA
ATOM     22  H   LIG    1       26.304 -34.043   6.361  0.00  0.00    +0.211 HD
ENDBRANCH   1  21
BRANCH  12  23
ATOM     23  O   LIG    1       25.596 -26.738  14.144  0.00  0.00    -0.409 OA
ATOM     24  H   LIG    1       24.832 -26.778  13.539  0.00  0.00    +0.328 HD
ENDBRANCH  12  23
BRANCH   2  25
ATOM     25  C   LIG    1       24.065 -30.395   6.221  0.00  0.00    +0.007 C 
ATOM     26  C   LIG    1       24.420 -28.940   6.494  0.00  0.00    +0.004 C 
ENDBRANCH   2  25
TORSDOF 4
ENDMDL
MODEL 3
REMARK VINA RESULT:      -5.3      3.235      5.213
REMARK  Name = *****
REMARK                            x       y       z     vdW  Elec       q    Type
REMARK                         _______ _______ _______ _____ _____    ______ ____
ROOT
ATOM      1  C   LIG    1       20.774 -28.359  14.079  0.00  0.00    +0.132 C 
ATOM      2  C   LIG    1       22.058 -28.972  13.426  0.00  0.00    +0.014 C 
ATOM      3  C   LIG    1       22.973 -27.719  13.189  0.00  0.00    +0.002 C 
ATOM      4  C   LIG    1       24.163 -27.473  14.160  0.00  0.00    -0.003 C 
ATOM      5  C   LIG    1       24.831 -28.770  14.669  0.00  0.00    -0.000 C 
ATOM      6  C   LIG    1       23.740 -29.621  15.323  0.00  0.00    +0.005 C 
ATOM      7  C   LIG    1       25.645 -29.468  13.543  0.00  0.00    +0.019 C 
ATOM      8  C   LIG    1       26.670 -28.474  13.021  0.00  0.00    -0.064 C 
ATOM      9  C   LIG    1       28.001 -28.648  13.097  0.00  0.00    +0.026 C 
ATOM     10  C   LIG    1       28.571 -29.824  13.814  0.00  0.00    +0.080 C 
ATOM     11  C   LIG    1       27.612 -30.617  14.680  0.00  0.00    +0.059 C 
ATOM     12  N   LIG    1       29.815 -30.196  13.803  0.00  0.00    -0.092 NA
ATOM     13  C   LIG    1       26.077 -27.212  12.455  0.00  0.00    +0.031 C 
ATOM     14  C   LIG    1       26.297 -30.805  13.940  0.00  0.00    +0.014 C 
ATOM     15  C   LIG    1       25.214 -26.530  13.522  0.00  0.00    +0.008 C 
ATOM     16  C   LIG    1       22.032 -26.486  13.196  0.00  0.00    +0.008 C 
ATOM     17  C   LIG    1       22.691 -30.081  14.324  0.00  0.00    +0.011 C 
ATOM     18  C   LIG    1       20.611 -26.987  13.425  0.00  0.00    +0.049 C 
ENDROOT
BRANCH   1  20
ATOM     19  C   LIG    1       18.578 -29.856  13.777  0.00  0.00    +0.007 C 
ATOM     20  C   LIG    1       19.563 -29.181  13.913  0.00  0.00    -0.070 C 
ENDBRANCH   1  20
BRANCH   1  21
ATOM     21  O   LIG    1       20.958 -28.162  15.482  0.00  0.00    -0.376 OA
ATOM     22  H   LIG    1       21.587 -28.824  15.807  0.00  0.00    +0.211 HD
ENDBRANCH   1  21
BRANCH  12  23
ATOM     23  O   LIG    1       30.600 -29.383  12.976  0.00  0.00    -0.409 OA
ATOM     24  H   LIG    1       30.211 -29.548  12.097  0.00  0.00    +0.328 HD
ENDBRANCH  12  23
BRANCH   2  25
ATOM     25  C   LIG    1       21.795 -29.682  12.039  0.00  0.00    +0.007 C 
ATOM     26  C   LIG    1       22.960 -29.946  11.095  0.00  0.00    +0.004 C 
ENDBRANCH   2  25
TORSDOF 4
ENDMDL
MODEL 4
REMARK VINA RESULT:      -5.3      1.733      2.432
REMARK  Name = *****
REMARK                            x       y       z     vdW  Elec       q    Type
REMARK                         _______ _______ _______ _____ _____    ______ ____
ROOT
ATOM      1  C   LIG    1       26.021 -32.166   8.720  0.00  0.00    +0.132 C 
ATOM      2  C   LIG    1       25.736 -30.695   9.173  0.00  0.00    +0.014 C 
ATOM      3  C   LIG    1       24.650 -30.870  10.293  0.00  0.00    +0.002 C 
ATOM      4  C   LIG    1       25.087 -30.737  11.780  0.00  0.00    -0.003 C 
ATOM      5  C   LIG    1       26.203 -29.694  12.011  0.00  0.00    -0.000 C 
ATOM      6  C   LIG    1       27.381 -30.076  11.112  0.00  0.00    +0.005 C 
ATOM      7  C   LIG    1       25.668 -28.244  11.841  0.00  0.00    +0.019 C 
ATOM      8  C   LIG    1       24.511 -28.054  12.808  0.00  0.00    -0.064 C 
ATOM      9  C   LIG    1       24.504 -27.166  13.817  0.00  0.00    +0.026 C 
ATOM     10  C   LIG    1       25.717 -26.354  14.118  0.00  0.00    +0.080 C 
ATOM     11  C   LIG    1       27.005 -26.788  13.445  0.00  0.00    +0.059 C 
ATOM     12  N   LIG    1       25.780 -25.349  14.938  0.00  0.00    -0.092 NA
ATOM     13  C   LIG    1       23.363 -29.004  12.594  0.00  0.00    +0.031 C 
ATOM     14  C   LIG    1       26.725 -27.135  11.992  0.00  0.00    +0.014 C 
ATOM     15  C   LIG    1       23.869 -30.448  12.692  0.00  0.00    +0.008 C 
ATOM     16  C   LIG    1       24.005 -32.262  10.061  0.00  0.00    +0.008 C 
ATOM     17  C   LIG    1       27.037 -29.969   9.635  0.00  0.00    +0.011 C 
ATOM     18  C   LIG    1       24.681 -32.890   8.847  0.00  0.00    +0.049 C 
ENDROOT
BRANCH   1  20
ATOM     19  C   LIG    1       27.016 -32.377   6.246  0.00  0.00    +0.007 C 
ATOM     20  C   LIG    1       26.567 -32.281   7.357  0.00  0.00    -0.070 C 
ENDBRANCH   1  20
BRANCH   1  21
ATOM     21  O   LIG    1       26.952 -32.800   9.599  0.00  0.00    -0.376 OA
ATOM     22  H   LIG    1       26.473 -33.435  10.152  0.00  0.00    +0.211 HD
ENDBRANCH   1  21
BRANCH  12  23
ATOM     23  O   LIG    1       24.532 -25.051  15.500  0.00  0.00    -0.409 OA
ATOM     24  H   LIG    1       23.956 -25.013  14.714  0.00  0.00    +0.328 HD
ENDBRANCH  12  23
BRANCH   2  25
ATOM     25  C   LIG    1       25.149 -29.775   8.030  0.00  0.00    +0.007 C 
ATOM     26  C   LIG    1       25.699 -28.369   7.839  0.00  0.00    +0.004 C 
ENDBRANCH   2  25
TORSDOF 4
ENDMDL
MODEL 5
REMARK VINA RESULT:      -5.2      4.261      7.833
REMARK  Name = *****
REMARK                            x       y       z     vdW  Elec       q    Type
REMARK                         _______ _______ _______ _____ _____    ______ ____
ROOT
ATOM      1  C   LIG    1       23.887 -30.243  11.942  0.00  0.00    +0.132 C 
ATOM      2  C   LIG    1       24.828 -30.156  10.694  0.00  0.00    +0.014 C 
ATOM      3  C   LIG    1       25.571 -31.539  10.707  0.00  0.00    +0.002 C 
ATOM      4  C   LIG    1       25.123 -32.633   9.698  0.00  0.00    -0.003 C 
ATOM      5  C   LIG    1       24.664 -32.073   8.333  0.00  0.00    -0.000 C 
ATOM      6  C   LIG    1       23.543 -31.068   8.604  0.00  0.00    +0.005 C 
ATOM      7  C   LIG    1       25.867 -31.535   7.508  0.00  0.00    +0.019 C 
ATOM      8  C   LIG    1       26.868 -32.667   7.344  0.00  0.00    -0.064 C 
ATOM      9  C   LIG    1       27.225 -33.197   6.162  0.00  0.00    +0.026 C 
ATOM     10  C   LIG    1       26.560 -32.756   4.903  0.00  0.00    +0.080 C 
ATOM     11  C   LIG    1       25.298 -31.931   5.059  0.00  0.00    +0.059 C 
ATOM     12  N   LIG    1       26.934 -33.056   3.696  0.00  0.00    -0.092 NA
ATOM     13  C   LIG    1       27.399 -33.217   8.640  0.00  0.00    +0.031 C 
ATOM     14  C   LIG    1       25.499 -30.898   6.155  0.00  0.00    +0.014 C 
ATOM     15  C   LIG    1       26.231 -33.699   9.508  0.00  0.00    +0.008 C 
ATOM     16  C   LIG    1       25.449 -32.083  12.155  0.00  0.00    +0.008 C 
ATOM     17  C   LIG    1       24.029 -29.858   9.386  0.00  0.00    +0.011 C 
ATOM     18  C   LIG    1       24.666 -31.061  12.971  0.00  0.00    +0.049 C 
ENDROOT
BRANCH   1  20
ATOM     19  C   LIG    1       23.158 -27.866  12.926  0.00  0.00    +0.007 C 
ATOM     20  C   LIG    1       23.487 -28.934  12.486  0.00  0.00    -0.070 C 
ENDBRANCH   1  20
BRANCH   1  21
ATOM     21  O   LIG    1       22.687 -30.951  11.628  0.00  0.00    -0.376 OA
ATOM     22  H   LIG    1       22.162 -30.415  11.014  0.00  0.00    +0.211 HD
ENDBRANCH   1  21
BRANCH  12  23
ATOM     23  O   LIG    1       28.104 -33.825   3.684  0.00  0.00    -0.409 OA
ATOM     24  H   LIG    1       28.502 -33.581   2.827  0.00  0.00    +0.328 HD
ENDBRANCH  12  23
BRANCH   2  25
ATOM     25  C   LIG    1       25.900 -28.998  10.779  0.00  0.00    +0.007 C 
ATOM     26  C   LIG    1       26.651 -28.573   9.524  0.00  0.00    +0.004 C 
ENDBRANCH   2  25
TORSDOF 4
ENDMDL
MODEL 6
REMARK VINA RESULT:      -5.2      2.733      4.679
REMARK  Name = *****
REMARK                            x       y       z     vdW  Elec       q    Type
REMARK                         _______ _______ _______ _____ _____    ______ ____
ROOT
ATOM      1  C   LIG    1       20.036 -31.228  13.065  0.00  0.00    +0.132 C 
ATOM      2  C   LIG    1       21.243 -30.511  13.759  0.00  0.00    +0.014 C 
ATOM      3  C   LIG    1       22.393 -30.638  12.698  0.00  0.00    +0.002 C 
ATOM      4  C   LIG    1       22.759 -29.391  11.844  0.00  0.00    -0.003 C 
ATOM      5  C   LIG    1       22.621 -28.052  12.604  0.00  0.00    -0.000 C 
ATOM      6  C   LIG    1       21.186 -27.970  13.131  0.00  0.00    +0.005 C 
ATOM      7  C   LIG    1       23.741 -27.887  13.669  0.00  0.00    +0.019 C 
ATOM      8  C   LIG    1       25.081 -27.997  12.962  0.00  0.00    -0.064 C 
ATOM      9  C   LIG    1       25.991 -27.010  12.904  0.00  0.00    +0.026 C 
ATOM     10  C   LIG    1       25.683 -25.664  13.466  0.00  0.00    +0.080 C 
ATOM     11  C   LIG    1       24.234 -25.395  13.819  0.00  0.00    +0.059 C 
ATOM     12  N   LIG    1       26.530 -24.693  13.631  0.00  0.00    -0.092 NA
ATOM     13  C   LIG    1       25.301 -29.306  12.252  0.00  0.00    +0.031 C 
ATOM     14  C   LIG    1       23.649 -26.609  14.522  0.00  0.00    +0.014 C 
ATOM     15  C   LIG    1       24.176 -29.531  11.236  0.00  0.00    +0.008 C 
ATOM     16  C   LIG    1       21.995 -31.812  11.765  0.00  0.00    +0.008 C 
ATOM     17  C   LIG    1       20.890 -29.046  14.164  0.00  0.00    +0.011 C 
ATOM     18  C   LIG    1       20.661 -32.362  12.253  0.00  0.00    +0.049 C 
ENDROOT
BRANCH   1  20
ATOM     19  C   LIG    1       18.185 -32.148  14.762  0.00  0.00    +0.007 C 
ATOM     20  C   LIG    1       19.018 -31.735  14.002  0.00  0.00    -0.070 C 
ENDBRANCH   1  20
BRANCH   1  21
ATOM     21  O   LIG    1       19.371 -30.348  12.159  0.00  0.00    -0.376 OA
ATOM     22  H   LIG    1       19.937 -30.215  11.384  0.00  0.00    +0.211 HD
ENDBRANCH   1  21
BRANCH  12  23
ATOM     23  O   LIG    1       27.830 -25.061  13.263  0.00  0.00    -0.409 OA
ATOM     24  H   LIG    1       28.337 -24.253  13.466  0.00  0.00    +0.328 HD
ENDBRANCH  12  23
BRANCH   2  25
ATOM     25  C   LIG    1       21.709 -31.196  15.104  0.00  0.00    +0.007 C 
ATOM     26  C   LIG    1       23.179 -31.160  15.498  0.00  0.00    +0.004 C 
ENDBRANCH   2  25
TORSDOF 4
ENDMDL
MODEL 7
REMARK VINA RESULT:      -5.1      3.371      6.133
REMARK  Name = *****
REMARK                            x       y       z     vdW  Elec       q    Type
REMARK                         _______ _______ _______ _____ _____    ______ ____
ROOT
ATOM      1  C   LIG    1       27.509 -27.420  14.524  0.00  0.00    +0.132 C 
ATOM      2  C   LIG    1       26.371 -28.481  14.351  0.00  0.00    +0.014 C 
ATOM      3  C   LIG    1       25.060 -27.622  14.452  0.00  0.00    +0.002 C 
ATOM      4  C   LIG    1       24.290 -27.284  13.144  0.00  0.00    -0.003 C 
ATOM      5  C   LIG    1       24.339 -28.406  12.083  0.00  0.00    -0.000 C 
ATOM      6  C   LIG    1       25.812 -28.710  11.804  0.00  0.00    +0.005 C 
ATOM      7  C   LIG    1       23.469 -29.623  12.506  0.00  0.00    +0.019 C 
ATOM      8  C   LIG    1       22.050 -29.128  12.738  0.00  0.00    -0.064 C 
ATOM      9  C   LIG    1       20.982 -29.531  12.029  0.00  0.00    +0.026 C 
ATOM     10  C   LIG    1       21.148 -30.446  10.864  0.00  0.00    +0.080 C 
ATOM     11  C   LIG    1       22.563 -30.645  10.358  0.00  0.00    +0.059 C 
ATOM     12  N   LIG    1       20.192 -31.042  10.218  0.00  0.00    -0.092 NA
ATOM     13  C   LIG    1       21.929 -28.074  13.805  0.00  0.00    +0.031 C 
ATOM     14  C   LIG    1       23.504 -30.820  11.539  0.00  0.00    +0.014 C 
ATOM     15  C   LIG    1       22.826 -26.882  13.450  0.00  0.00    +0.008 C 
ATOM     16  C   LIG    1       25.456 -26.310  15.179  0.00  0.00    +0.008 C 
ATOM     17  C   LIG    1       26.524 -29.281  13.020  0.00  0.00    +0.011 C 
ATOM     18  C   LIG    1       26.944 -26.387  15.500  0.00  0.00    +0.049 C 
ENDROOT
BRANCH   1  20
ATOM     19  C   LIG    1       29.824 -28.427  15.405  0.00  0.00    +0.007 C 
ATOM     20  C   LIG    1       28.783 -27.977  15.008  0.00  0.00    -0.070 C 
ENDBRANCH   1  20
BRANCH   1  21
ATOM     21  O   LIG    1       27.783 -26.758  13.288  0.00  0.00    -0.376 OA
ATOM     22  H   LIG    1       27.201 -27.125  12.605  0.00  0.00    +0.211 HD
ENDBRANCH   1  21
BRANCH  12  23
ATOM     23  O   LIG    1       18.935 -30.774  10.775  0.00  0.00    -0.409 OA
ATOM     24  H   LIG    1       18.957 -31.301  11.596  0.00  0.00    +0.328 HD
ENDBRANCH  12  23
BRANCH   2  25
ATOM     25  C   LIG    1       26.347 -29.585  15.481  0.00  0.00    +0.007 C 
ATOM     26  C   LIG    1       25.462 -30.813  15.316  0.00  0.00    +0.004 C 
ENDBRANCH   2  25
TORSDOF 4
ENDMDL
MODEL 8
REMARK VINA RESULT:      -5.0      4.985      8.224
REMARK  Name = *****
REMARK                            x       y       z     vdW  Elec       q    Type
REMARK                         _______ _______ _______ _____ _____    ______ ____
ROOT
ATOM      1  C   LIG    1       24.917 -31.392  11.460  0.00  0.00    +0.132 C 
ATOM      2  C   LIG    1       24.704 -32.151  10.108  0.00  0.00    +0.014 C 
ATOM      3  C   LIG    1       24.368 -30.998   9.098  0.00  0.00    +0.002 C 
ATOM      4  C   LIG    1       25.474 -30.530   8.110  0.00  0.00    -0.003 C 
ATOM      5  C   LIG    1       26.402 -31.667   7.627  0.00  0.00    -0.000 C 
ATOM      6  C   LIG    1       27.003 -32.328   8.869  0.00  0.00    +0.005 C 
ATOM      7  C   LIG    1       25.664 -32.621   6.646  0.00  0.00    +0.019 C 
ATOM      8  C   LIG    1       25.141 -31.790   5.486  0.00  0.00    -0.064 C 
ATOM      9  C   LIG    1       25.525 -31.947   4.208  0.00  0.00    +0.026 C 
ATOM     10  C   LIG    1       26.602 -32.915   3.854  0.00  0.00    +0.080 C 
ATOM     11  C   LIG    1       27.417 -33.469   5.007  0.00  0.00    +0.059 C 
ATOM     12  N   LIG    1       26.933 -33.285   2.654  0.00  0.00    -0.092 NA
ATOM     13  C   LIG    1       24.183 -30.701   5.887  0.00  0.00    +0.031 C 
ATOM     14  C   LIG    1       26.491 -33.825   6.158  0.00  0.00    +0.014 C 
ATOM     15  C   LIG    1       24.859 -29.775   6.905  0.00  0.00    +0.008 C 
ATOM     16  C   LIG    1       23.890 -29.796   9.954  0.00  0.00    +0.008 C 
ATOM     17  C   LIG    1       25.948 -33.012   9.725  0.00  0.00    +0.011 C 
ATOM     18  C   LIG    1       23.937 -30.220  11.417  0.00  0.00    +0.049 C 
ENDROOT
BRANCH   1  20
ATOM     19  C   LIG    1       24.539 -32.898  13.637  0.00  0.00    +0.007 C 
ATOM     20  C   LIG    1       24.708 -32.224  12.658  0.00  0.00    -0.070 C 
ENDBRANCH   1  20
BRANCH   1  21
ATOM     21  O   LIG    1       26.240 -30.861  11.545  0.00  0.00    -0.376 OA
ATOM     22  H   LIG    1       26.371 -30.494  12.432  0.00  0.00    +0.211 HD
ENDBRANCH   1  21
BRANCH  12  23
ATOM     23  O   LIG    1       26.115 -32.701   1.680  0.00  0.00    -0.409 OA
ATOM     24  H   LIG    1       26.480 -31.799   1.618  0.00  0.00    +0.328 HD
ENDBRANCH  12  23
BRANCH   2  25
ATOM     25  C   LIG    1       23.502 -33.177  10.132  0.00  0.00    +0.007 C 
ATOM     26  C   LIG    1       22.450 -33.130   9.032  0.00  0.00    +0.004 C 
ENDBRANCH   2  25
TORSDOF 4
ENDMDL
MODEL 9
REMARK VINA RESULT:      -5.0      4.096      5.669
REMARK  Name = *****
REMARK                            x       y       z     vdW  Elec       q    Type
REMARK                         _______ _______ _______ _____ _____    ______ ____
ROOT
ATOM      1  C   LIG    1       25.538 -29.161  13.372  0.00  0.00    +0.132 C 
ATOM      2  C   LIG    1       24.069 -28.988  12.859  0.00  0.00    +0.014 C 
ATOM      3  C   LIG    1       23.240 -29.903  13.828  0.00  0.00    +0.002 C 
ATOM      4  C   LIG    1       22.417 -29.231  14.963  0.00  0.00    -0.003 C 
ATOM      5  C   LIG    1       21.817 -27.861  14.572  0.00  0.00    -0.000 C 
ATOM      6  C   LIG    1       22.972 -26.969  14.113  0.00  0.00    +0.005 C 
ATOM      7  C   LIG    1       20.648 -28.024  13.561  0.00  0.00    +0.019 C 
ATOM      8  C   LIG    1       19.607 -28.936  14.189  0.00  0.00    -0.064 C 
ATOM      9  C   LIG    1       18.348 -28.563  14.477  0.00  0.00    +0.026 C 
ATOM     10  C   LIG    1       17.914 -27.151  14.282  0.00  0.00    +0.080 C 
ATOM     11  C   LIG    1       19.011 -26.134  14.039  0.00  0.00    +0.059 C 
ATOM     12  N   LIG    1       16.694 -26.710  14.352  0.00  0.00    -0.092 NA
ATOM     13  C   LIG    1       20.116 -30.308  14.538  0.00  0.00    +0.031 C 
ATOM     14  C   LIG    1       20.026 -26.706  13.063  0.00  0.00    +0.014 C 
ATOM     15  C   LIG    1       21.314 -30.183  15.487  0.00  0.00    +0.008 C 
ATOM     16  C   LIG    1       24.248 -30.912  14.441  0.00  0.00    +0.008 C 
ATOM     17  C   LIG    1       23.634 -27.489  12.847  0.00  0.00    +0.011 C 
ATOM     18  C   LIG    1       25.622 -30.609  13.856  0.00  0.00    +0.049 C 
ENDROOT
BRANCH   1  20
ATOM     19  C   LIG    1       27.404 -28.634  11.530  0.00  0.00    +0.007 C 
ATOM     20  C   LIG    1       26.568 -28.873  12.359  0.00  0.00    -0.070 C 
ENDBRANCH   1  20
BRANCH   1  21
ATOM     21  O   LIG    1       25.795 -28.305  14.486  0.00  0.00    -0.376 OA
ATOM     22  H   LIG    1       25.353 -27.457  14.333  0.00  0.00    +0.211 HD
ENDBRANCH   1  21
BRANCH  12  23
ATOM     23  O   LIG    1       15.775 -27.741  14.587  0.00  0.00    -0.409 OA
ATOM     24  H   LIG    1       15.882 -27.897  15.544  0.00  0.00    +0.328 HD
ENDBRANCH  12  23
BRANCH   2  25
ATOM     25  C   LIG    1       23.847 -29.480  11.374  0.00  0.00    +0.007 C 
ATOM     26  C   LIG    1       22.518 -30.113  10.982  0.00  0.00    +0.004 C 
ENDBRANCH   2  25
TORSDOF 4
ENDMDL
