MODEL 1
REMARK VINA RESULT:      -8.8      0.000      0.000
REMARK  Name = *****
REMARK                            x       y       z     vdW  Elec       q    Type
REMARK                         _______ _______ _______ _____ _____    ______ ____
ROOT
ATOM      1  C   LIG    1       26.575 -20.348   7.626  0.00  0.00    +0.097 C 
ENDROOT
BRANCH   1   8
ATOM      2  C   LIG    1       31.179 -21.453   8.922  0.00  0.00    +0.009 C 
ATOM      3  C   LIG    1       30.393 -20.834   7.759  0.00  0.00    +0.010 C 
ATOM      4  C   LIG    1       30.829 -19.376   7.377  0.00  0.00    -0.002 C 
ATOM      5  C   LIG    1       32.222 -19.500   6.678  0.00  0.00    +0.016 C 
ATOM      6  C   LIG    1       29.837 -18.902   6.287  0.00  0.00    +0.027 C 
ATOM      7  C   LIG    1       28.373 -19.003   6.717  0.00  0.00    +0.085 C 
ATOM      8  N   LIG    1       27.961 -20.369   7.070  0.00  0.00    -0.301 NA
ATOM      9  C   LIG    1       28.882 -21.044   7.991  0.00  0.00    +0.088 C 
BRANCH   4  10
ATOM     10  C   LIG    1       30.917 -18.319   8.514  0.00  0.00    -0.038 A 
ATOM     11  C   LIG    1       31.906 -17.323   8.564  0.00  0.00    +0.049 A 
ATOM     12  C   LIG    1       31.941 -16.372   9.591  0.00  0.00    +0.117 A 
ATOM     13  C   LIG    1       31.006 -16.382  10.614  0.00  0.00    +0.045 A 
ATOM     14  C   LIG    1       30.033 -17.370  10.613  0.00  0.00    +0.004 A 
ATOM     15  C   LIG    1       29.999 -18.326   9.588  0.00  0.00    +0.004 A 
BRANCH  12  16
ATOM     16  O   LIG    1       32.927 -15.429   9.549  0.00  0.00    -0.507 OA
ATOM     17  H   LIG    1       32.893 -14.988   8.685  0.00  0.00    +0.292 HD
ENDBRANCH  12  16
ENDBRANCH   4  10
ENDBRANCH   1   8
BRANCH   1  18
ATOM     18  C   LIG    1       25.660 -21.508   7.154  0.00  0.00    +0.093 C 
BRANCH  18  19
ATOM     19  C   LIG    1       25.842 -22.749   8.046  0.00  0.00    +0.218 C 
ATOM     20  N   LIG    1       25.719 -24.001   7.500  0.00  0.00    -0.305 N 
ATOM     21  H   LIG    1       25.751 -24.736   8.204  0.00  0.00    +0.149 HD
ATOM     22  O   LIG    1       26.197 -22.689   9.223  0.00  0.00    -0.275 OA
BRANCH  20  23
ATOM     23  C   LIG    1       25.289 -24.347   6.149  0.00  0.00    +0.224 C 
BRANCH  23  24
ATOM     24  C   LIG    1       23.993 -25.116   6.138  0.00  0.00    +0.322 C 
ATOM     25  O   LIG    1       23.919 -26.335   5.977  0.00  0.00    -0.249 OA
BRANCH  24  26
ATOM     26  O   LIG    1       22.920 -24.361   6.456  0.00  0.00    -0.479 OA
ATOM     27  H   LIG    1       22.934 -23.499   5.987  0.00  0.00    +0.295 HD
ENDBRANCH  24  26
ENDBRANCH  23  24
ENDBRANCH  20  23
ENDBRANCH  18  19
BRANCH  18  28
ATOM     28  C   LIG    1       24.187 -21.080   6.937  0.00  0.00    +0.049 C 
BRANCH  28  29
ATOM     29  C   LIG    1       23.839 -20.271   5.708  0.00  0.00    -0.047 A 
ATOM     30  C   LIG    1       24.710 -20.154   4.618  0.00  0.00    +0.003 A 
ATOM     31  C   LIG    1       24.408 -19.318   3.542  0.00  0.00    +0.000 A 
ATOM     32  C   LIG    1       23.205 -18.619   3.520  0.00  0.00    +0.000 A 
ATOM     33  C   LIG    1       22.282 -18.806   4.544  0.00  0.00    +0.000 A 
ATOM     34  C   LIG    1       22.589 -19.643   5.618  0.00  0.00    +0.003 A 
ENDBRANCH  28  29
ENDBRANCH  18  28
ENDBRANCH   1  18
TORSDOF 10
ENDMDL
MODEL 2
REMARK VINA RESULT:      -8.5      2.192      8.210
REMARK  Name = *****
REMARK                            x       y       z     vdW  Elec       q    Type
REMARK                         _______ _______ _______ _____ _____    ______ ____
ROOT
ATOM      1  C   LIG    1       28.936 -19.631   6.292  0.00  0.00    +0.097 C 
ENDROOT
BRANCH   1   8
ATOM      2  C   LIG    1       25.523 -21.389   9.350  0.00  0.00    +0.009 C 
ATOM      3  C   LIG    1       25.645 -20.587   8.047  0.00  0.00    +0.010 C 
ATOM      4  C   LIG    1       24.897 -21.215   6.819  0.00  0.00    -0.002 C 
ATOM      5  C   LIG    1       23.370 -21.008   7.078  0.00  0.00    +0.016 C 
ATOM      6  C   LIG    1       25.255 -20.331   5.599  0.00  0.00    +0.027 C 
ATOM      7  C   LIG    1       26.761 -20.182   5.381  0.00  0.00    +0.085 C 
ATOM      8  N   LIG    1       27.463 -19.589   6.528  0.00  0.00    -0.301 NA
ATOM      9  C   LIG    1       27.123 -20.211   7.812  0.00  0.00    +0.088 C 
BRANCH   4  10
ATOM     10  C   LIG    1       25.164 -22.710   6.489  0.00  0.00    -0.038 A 
ATOM     11  C   LIG    1       24.822 -23.301   5.262  0.00  0.00    +0.049 A 
ATOM     12  C   LIG    1       25.099 -24.646   4.990  0.00  0.00    +0.117 A 
ATOM     13  C   LIG    1       25.711 -25.459   5.929  0.00  0.00    +0.045 A 
ATOM     14  C   LIG    1       26.036 -24.918   7.164  0.00  0.00    +0.004 A 
ATOM     15  C   LIG    1       25.756 -23.572   7.440  0.00  0.00    +0.004 A 
BRANCH  12  16
ATOM     16  O   LIG    1       24.747 -25.131   3.762  0.00  0.00    -0.507 OA
ATOM     17  H   LIG    1       25.528 -25.100   3.186  0.00  0.00    +0.292 HD
ENDBRANCH  12  16
ENDBRANCH   4  10
ENDBRANCH   1   8
BRANCH   1  18
ATOM     18  C   LIG    1       29.810 -19.323   7.536  0.00  0.00    +0.093 C 
BRANCH  18  19
ATOM     19  C   LIG    1       31.291 -19.640   7.259  0.00  0.00    +0.218 C 
ATOM     20  N   LIG    1       32.010 -20.369   8.171  0.00  0.00    -0.305 N 
ATOM     21  H   LIG    1       32.999 -20.421   7.933  0.00  0.00    +0.149 HD
ATOM     22  O   LIG    1       31.855 -19.361   6.202  0.00  0.00    -0.275 OA
BRANCH  20  23
ATOM     23  C   LIG    1       31.589 -20.801   9.499  0.00  0.00    +0.224 C 
BRANCH  23  24
ATOM     24  C   LIG    1       31.210 -22.260   9.535  0.00  0.00    +0.322 C 
ATOM     25  O   LIG    1       30.256 -22.705  10.175  0.00  0.00    -0.249 OA
BRANCH  24  26
ATOM     26  O   LIG    1       31.936 -23.023   8.692  0.00  0.00    -0.479 OA
ATOM     27  H   LIG    1       31.389 -23.364   7.951  0.00  0.00    +0.295 HD
ENDBRANCH  24  26
ENDBRANCH  23  24
ENDBRANCH  20  23
ENDBRANCH  18  19
BRANCH  18  28
ATOM     28  C   LIG    1       29.553 -17.917   8.136  0.00  0.00    +0.049 C 
BRANCH  28  29
ATOM     29  C   LIG    1       30.480 -17.409   9.216  0.00  0.00    -0.047 A 
ATOM     30  C   LIG    1       31.677 -16.746   8.925  0.00  0.00    +0.003 A 
ATOM     31  C   LIG    1       32.563 -16.379   9.939  0.00  0.00    +0.000 A 
ATOM     32  C   LIG    1       32.242 -16.631  11.269  0.00  0.00    +0.000 A 
ATOM     33  C   LIG    1       31.009 -17.194  11.583  0.00  0.00    +0.000 A 
ATOM     34  C   LIG    1       30.126 -17.560  10.565  0.00  0.00    +0.003 A 
ENDBRANCH  28  29
ENDBRANCH  18  28
ENDBRANCH   1  18
TORSDOF 10
ENDMDL
MODEL 3
REMARK VINA RESULT:      -8.4      1.976      3.801
REMARK  Name = *****
REMARK                            x       y       z     vdW  Elec       q    Type
REMARK                         _______ _______ _______ _____ _____    ______ ____
ROOT
ATOM      1  C   LIG    1       26.643 -20.821   8.432  0.00  0.00    +0.097 C 
ENDROOT
BRANCH   1   8
ATOM      2  C   LIG    1       31.472 -21.478   9.017  0.00  0.00    +0.009 C 
ATOM      3  C   LIG    1       30.466 -20.946   7.987  0.00  0.00    +0.010 C 
ATOM      4  C   LIG    1       30.701 -19.457   7.551  0.00  0.00    -0.002 C 
ATOM      5  C   LIG    1       31.979 -19.457   6.650  0.00  0.00    +0.016 C 
ATOM      6  C   LIG    1       29.517 -19.088   6.625  0.00  0.00    +0.027 C 
ATOM      7  C   LIG    1       28.150 -19.322   7.269  0.00  0.00    +0.085 C 
ATOM      8  N   LIG    1       27.925 -20.717   7.674  0.00  0.00    -0.301 NA
ATOM      9  C   LIG    1       29.033 -21.294   8.443  0.00  0.00    +0.088 C 
BRANCH   4  10
ATOM     10  C   LIG    1       30.859 -18.386   8.666  0.00  0.00    -0.038 A 
ATOM     11  C   LIG    1       31.839 -17.380   8.635  0.00  0.00    +0.049 A 
ATOM     12  C   LIG    1       31.937 -16.417   9.645  0.00  0.00    +0.117 A 
ATOM     13  C   LIG    1       31.077 -16.422  10.732  0.00  0.00    +0.045 A 
ATOM     14  C   LIG    1       30.116 -17.419  10.812  0.00  0.00    +0.004 A 
ATOM     15  C   LIG    1       30.019 -18.388   9.803  0.00  0.00    +0.004 A 
BRANCH  12  16
ATOM     16  O   LIG    1       32.909 -15.465   9.523  0.00  0.00    -0.507 OA
ATOM     17  H   LIG    1       32.596 -14.787   8.903  0.00  0.00    +0.292 HD
ENDBRANCH  12  16
ENDBRANCH   4  10
ENDBRANCH   1   8
BRANCH   1  18
ATOM     18  C   LIG    1       25.623 -21.842   7.863  0.00  0.00    +0.093 C 
BRANCH  18  19
ATOM     19  C   LIG    1       24.364 -21.126   7.342  0.00  0.00    +0.218 C 
ATOM     20  N   LIG    1       24.368 -20.576   6.086  0.00  0.00    -0.305 N 
ATOM     21  H   LIG    1       23.524 -20.038   5.895  0.00  0.00    +0.149 HD
ATOM     22  O   LIG    1       23.298 -21.103   7.955  0.00  0.00    -0.275 OA
BRANCH  20  23
ATOM     23  C   LIG    1       25.497 -20.450   5.170  0.00  0.00    +0.224 C 
BRANCH  23  24
ATOM     24  C   LIG    1       25.084 -19.929   3.817  0.00  0.00    +0.322 C 
ATOM     25  O   LIG    1       24.118 -20.356   3.184  0.00  0.00    -0.249 OA
BRANCH  24  26
ATOM     26  O   LIG    1       25.795 -18.853   3.417  0.00  0.00    -0.479 OA
ATOM     27  H   LIG    1       26.751 -18.961   3.611  0.00  0.00    +0.295 HD
ENDBRANCH  24  26
ENDBRANCH  23  24
ENDBRANCH  20  23
ENDBRANCH  18  19
BRANCH  18  28
ATOM     28  C   LIG    1       26.251 -22.850   6.868  0.00  0.00    +0.049 C 
BRANCH  28  29
ATOM     29  C   LIG    1       25.580 -24.188   6.670  0.00  0.00    -0.047 A 
ATOM     30  C   LIG    1       26.277 -25.398   6.769  0.00  0.00    +0.003 A 
ATOM     31  C   LIG    1       25.655 -26.614   6.480  0.00  0.00    +0.000 A 
ATOM     32  C   LIG    1       24.309 -26.641   6.129  0.00  0.00    +0.000 A 
ATOM     33  C   LIG    1       23.575 -25.460   6.128  0.00  0.00    +0.000 A 
ATOM     34  C   LIG    1       24.201 -24.246   6.417  0.00  0.00    +0.003 A 
ENDBRANCH  28  29
ENDBRANCH  18  28
ENDBRANCH   1  18
TORSDOF 10
ENDMDL
MODEL 4
REMARK VINA RESULT:      -8.1      6.511      9.542
REMARK  Name = *****
REMARK                            x       y       z     vdW  Elec       q    Type
REMARK                         _______ _______ _______ _____ _____    ______ ____
ROOT
ATOM      1  C   LIG    1       24.899 -28.601   7.770  0.00  0.00    +0.097 C 
ENDROOT
BRANCH   1   8
ATOM      2  C   LIG    1       24.084 -30.678  12.142  0.00  0.00    +0.009 C 
ATOM      3  C   LIG    1       25.244 -30.256  11.230  0.00  0.00    +0.010 C 
ATOM      4  C   LIG    1       26.249 -29.240  11.878  0.00  0.00    -0.002 C 
ATOM      5  C   LIG    1       27.068 -30.044  12.939  0.00  0.00    +0.016 C 
ATOM      6  C   LIG    1       27.248 -28.852  10.760  0.00  0.00    +0.027 C 
ATOM      7  C   LIG    1       26.569 -28.313   9.502  0.00  0.00    +0.085 C 
ATOM      8  N   LIG    1       25.630 -29.265   8.890  0.00  0.00    -0.301 NA
ATOM      9  C   LIG    1       24.690 -29.861   9.845  0.00  0.00    +0.088 C 
BRANCH   4  10
ATOM     10  C   LIG    1       25.668 -27.960  12.540  0.00  0.00    -0.038 A 
ATOM     11  C   LIG    1       26.435 -26.814  12.806  0.00  0.00    +0.049 A 
ATOM     12  C   LIG    1       25.873 -25.669  13.382  0.00  0.00    +0.117 A 
ATOM     13  C   LIG    1       24.533 -25.621  13.730  0.00  0.00    +0.045 A 
ATOM     14  C   LIG    1       23.750 -26.746  13.510  0.00  0.00    +0.004 A 
ATOM     15  C   LIG    1       24.313 -27.895  12.937  0.00  0.00    +0.004 A 
BRANCH  12  16
ATOM     16  O   LIG    1       26.691 -24.594  13.588  0.00  0.00    -0.507 OA
ATOM     17  H   LIG    1       27.089 -24.346  12.738  0.00  0.00    +0.292 HD
ENDBRANCH  12  16
ENDBRANCH   4  10
ENDBRANCH   1   8
BRANCH   1  18
ATOM     18  C   LIG    1       25.338 -29.040   6.348  0.00  0.00    +0.093 C 
BRANCH  18  19
ATOM     19  C   LIG    1       24.384 -30.111   5.787  0.00  0.00    +0.218 C 
ATOM     20  N   LIG    1       24.859 -31.371   5.527  0.00  0.00    -0.305 N 
ATOM     21  H   LIG    1       24.169 -31.956   5.059  0.00  0.00    +0.149 HD
ATOM     22  O   LIG    1       23.175 -29.933   5.648  0.00  0.00    -0.275 OA
BRANCH  20  23
ATOM     23  C   LIG    1       26.241 -31.834   5.586  0.00  0.00    +0.224 C 
BRANCH  23  24
ATOM     24  C   LIG    1       26.565 -32.509   6.895  0.00  0.00    +0.322 C 
ATOM     25  O   LIG    1       26.517 -33.727   7.069  0.00  0.00    -0.249 OA
BRANCH  24  26
ATOM     26  O   LIG    1       27.045 -31.662   7.830  0.00  0.00    -0.479 OA
ATOM     27  H   LIG    1       27.030 -30.732   7.516  0.00  0.00    +0.295 HD
ENDBRANCH  24  26
ENDBRANCH  23  24
ENDBRANCH  20  23
ENDBRANCH  18  19
BRANCH  18  28
ATOM     28  C   LIG    1       25.606 -27.850   5.392  0.00  0.00    +0.049 C 
BRANCH  28  29
ATOM     29  C   LIG    1       25.292 -26.451   5.869  0.00  0.00    -0.047 A 
ATOM     30  C   LIG    1       26.285 -25.572   6.316  0.00  0.00    +0.003 A 
ATOM     31  C   LIG    1       25.957 -24.324   6.847  0.00  0.00    +0.000 A 
ATOM     32  C   LIG    1       24.628 -23.917   6.897  0.00  0.00    +0.000 A 
ATOM     33  C   LIG    1       23.638 -24.734   6.360  0.00  0.00    +0.000 A 
ATOM     34  C   LIG    1       23.971 -25.982   5.831  0.00  0.00    +0.003 A 
ENDBRANCH  28  29
ENDBRANCH  18  28
ENDBRANCH   1  18
TORSDOF 10
ENDMDL
MODEL 5
REMARK VINA RESULT:      -7.9      6.821      9.741
REMARK  Name = *****
REMARK                            x       y       z     vdW  Elec       q    Type
REMARK                         _______ _______ _______ _____ _____    ______ ____
ROOT
ATOM      1  C   LIG    1       24.832 -28.691   7.833  0.00  0.00    +0.097 C 
ENDROOT
BRANCH   1   8
ATOM      2  C   LIG    1       24.215 -30.645  12.293  0.00  0.00    +0.009 C 
ATOM      3  C   LIG    1       25.333 -30.221  11.330  0.00  0.00    +0.010 C 
ATOM      4  C   LIG    1       26.330 -29.158  11.912  0.00  0.00    -0.002 C 
ATOM      5  C   LIG    1       27.204 -29.905  12.971  0.00  0.00    +0.016 C 
ATOM      6  C   LIG    1       27.282 -28.781  10.751  0.00  0.00    +0.027 C 
ATOM      7  C   LIG    1       26.548 -28.301   9.499  0.00  0.00    +0.085 C 
ATOM      8  N   LIG    1       25.617 -29.297   8.949  0.00  0.00    -0.301 NA
ATOM      9  C   LIG    1       24.725 -29.888   9.952  0.00  0.00    +0.088 C 
BRANCH   4  10
ATOM     10  C   LIG    1       25.734 -27.873  12.552  0.00  0.00    -0.038 A 
ATOM     11  C   LIG    1       24.384 -27.750  12.918  0.00  0.00    +0.049 A 
ATOM     12  C   LIG    1       23.887 -26.585  13.514  0.00  0.00    +0.117 A 
ATOM     13  C   LIG    1       24.705 -25.494  13.757  0.00  0.00    +0.045 A 
ATOM     14  C   LIG    1       26.039 -25.569  13.381  0.00  0.00    +0.004 A 
ATOM     15  C   LIG    1       26.538 -26.733  12.779  0.00  0.00    +0.004 A 
BRANCH  12  16
ATOM     16  O   LIG    1       22.564 -26.560  13.853  0.00  0.00    -0.507 OA
ATOM     17  H   LIG    1       22.041 -26.466  13.041  0.00  0.00    +0.292 HD
ENDBRANCH  12  16
ENDBRANCH   4  10
ENDBRANCH   1   8
BRANCH   1  18
ATOM     18  C   LIG    1       25.315 -29.070   6.408  0.00  0.00    +0.093 C 
BRANCH  18  19
ATOM     19  C   LIG    1       24.363 -30.091   5.760  0.00  0.00    +0.218 C 
ATOM     20  N   LIG    1       24.827 -31.341   5.437  0.00  0.00    -0.305 N 
ATOM     21  H   LIG    1       24.142 -31.887   4.918  0.00  0.00    +0.149 HD
ATOM     22  O   LIG    1       23.160 -29.888   5.602  0.00  0.00    -0.275 OA
BRANCH  20  23
ATOM     23  C   LIG    1       26.201 -31.827   5.503  0.00  0.00    +0.224 C 
BRANCH  23  24
ATOM     24  C   LIG    1       26.503 -32.521   6.806  0.00  0.00    +0.322 C 
ATOM     25  O   LIG    1       26.398 -33.737   6.976  0.00  0.00    -0.249 OA
BRANCH  24  26
ATOM     26  O   LIG    1       27.030 -31.702   7.740  0.00  0.00    -0.479 OA
ATOM     27  H   LIG    1       28.010 -31.746   7.748  0.00  0.00    +0.295 HD
ENDBRANCH  24  26
ENDBRANCH  23  24
ENDBRANCH  20  23
ENDBRANCH  18  19
BRANCH  18  28
ATOM     28  C   LIG    1       25.643 -27.842   5.522  0.00  0.00    +0.049 C 
BRANCH  28  29
ATOM     29  C   LIG    1       25.259 -26.467   6.016  0.00  0.00    -0.047 A 
ATOM     30  C   LIG    1       23.937 -26.008   5.999  0.00  0.00    +0.003 A 
ATOM     31  C   LIG    1       23.624 -24.697   6.365  0.00  0.00    +0.000 A 
ATOM     32  C   LIG    1       24.628 -23.837   6.798  0.00  0.00    +0.000 A 
ATOM     33  C   LIG    1       25.931 -24.309   6.922  0.00  0.00    +0.000 A 
ATOM     34  C   LIG    1       26.239 -25.620   6.554  0.00  0.00    +0.003 A 
ENDBRANCH  28  29
ENDBRANCH  18  28
ENDBRANCH   1  18
TORSDOF 10
ENDMDL
MODEL 6
REMARK VINA RESULT:      -7.7      4.609      8.284
REMARK  Name = *****
REMARK                            x       y       z     vdW  Elec       q    Type
REMARK                         _______ _______ _______ _____ _____    ______ ____
ROOT
ATOM      1  C   LIG    1       24.491 -25.995   5.898  0.00  0.00    +0.097 C 
ENDROOT
BRANCH   1   8
ATOM      2  C   LIG    1       22.697 -21.745   7.573  0.00  0.00    +0.009 C 
ATOM      3  C   LIG    1       23.992 -22.568   7.581  0.00  0.00    +0.010 C 
ATOM      4  C   LIG    1       25.241 -21.829   6.984  0.00  0.00    -0.002 C 
ATOM      5  C   LIG    1       25.650 -20.740   8.028  0.00  0.00    +0.016 C 
ATOM      6  C   LIG    1       26.388 -22.868   6.967  0.00  0.00    +0.027 C 
ATOM      7  C   LIG    1       26.030 -24.152   6.219  0.00  0.00    +0.085 C 
ATOM      8  N   LIG    1       24.864 -24.849   6.780  0.00  0.00    -0.301 NA
ATOM      9  C   LIG    1       23.710 -23.974   7.012  0.00  0.00    +0.088 C 
BRANCH   4  10
ATOM     10  C   LIG    1       25.098 -21.170   5.583  0.00  0.00    -0.038 A 
ATOM     11  C   LIG    1       25.805 -20.018   5.199  0.00  0.00    +0.049 A 
ATOM     12  C   LIG    1       25.669 -19.465   3.920  0.00  0.00    +0.117 A 
ATOM     13  C   LIG    1       24.819 -20.023   2.980  0.00  0.00    +0.045 A 
ATOM     14  C   LIG    1       24.082 -21.144   3.335  0.00  0.00    +0.004 A 
ATOM     15  C   LIG    1       24.213 -21.697   4.616  0.00  0.00    +0.004 A 
BRANCH  12  16
ATOM     16  O   LIG    1       26.409 -18.355   3.627  0.00  0.00    -0.507 OA
ATOM     17  H   LIG    1       26.513 -17.833   4.439  0.00  0.00    +0.292 HD
ENDBRANCH  12  16
ENDBRANCH   4  10
ENDBRANCH   1   8
BRANCH   1  18
ATOM     18  C   LIG    1       25.139 -27.354   6.277  0.00  0.00    +0.093 C 
BRANCH  18  19
ATOM     19  C   LIG    1       26.025 -27.876   5.132  0.00  0.00    +0.218 C 
ATOM     20  N   LIG    1       25.937 -29.191   4.752  0.00  0.00    -0.305 N 
ATOM     21  H   LIG    1       26.645 -29.445   4.065  0.00  0.00    +0.149 HD
ATOM     22  O   LIG    1       26.752 -27.150   4.455  0.00  0.00    -0.275 OA
BRANCH  20  23
ATOM     23  C   LIG    1       25.176 -30.257   5.396  0.00  0.00    +0.224 C 
BRANCH  23  24
ATOM     24  C   LIG    1       25.966 -31.536   5.512  0.00  0.00    +0.322 C 
ATOM     25  O   LIG    1       26.025 -32.388   4.625  0.00  0.00    -0.249 OA
BRANCH  24  26
ATOM     26  O   LIG    1       26.715 -31.602   6.633  0.00  0.00    -0.479 OA
ATOM     27  H   LIG    1       26.276 -31.155   7.388  0.00  0.00    +0.295 HD
ENDBRANCH  24  26
ENDBRANCH  23  24
ENDBRANCH  20  23
ENDBRANCH  18  19
BRANCH  18  28
ATOM     28  C   LIG    1       25.820 -27.344   7.668  0.00  0.00    +0.049 C 
BRANCH  28  29
ATOM     29  C   LIG    1       25.730 -28.583   8.529  0.00  0.00    -0.047 A 
ATOM     30  C   LIG    1       26.748 -28.955   9.414  0.00  0.00    +0.003 A 
ATOM     31  C   LIG    1       26.684 -30.158  10.120  0.00  0.00    +0.000 A 
ATOM     32  C   LIG    1       25.576 -30.987   9.984  0.00  0.00    +0.000 A 
ATOM     33  C   LIG    1       24.507 -30.582   9.191  0.00  0.00    +0.000 A 
ATOM     34  C   LIG    1       24.576 -29.379   8.486  0.00  0.00    +0.003 A 
ENDBRANCH  28  29
ENDBRANCH  18  28
ENDBRANCH   1  18
TORSDOF 10
ENDMDL
MODEL 7
REMARK VINA RESULT:      -7.6      5.802      8.999
REMARK  Name = *****
REMARK                            x       y       z     vdW  Elec       q    Type
REMARK                         _______ _______ _______ _____ _____    ______ ____
ROOT
ATOM      1  C   LIG    1       24.682 -28.463   7.431  0.00  0.00    +0.097 C 
ENDROOT
BRANCH   1   8
ATOM      2  C   LIG    1       24.435 -31.007  11.622  0.00  0.00    +0.009 C 
ATOM      3  C   LIG    1       25.465 -30.328  10.708  0.00  0.00    +0.010 C 
ATOM      4  C   LIG    1       26.332 -29.223  11.407  0.00  0.00    -0.002 C 
ATOM      5  C   LIG    1       27.322 -29.972  12.357  0.00  0.00    +0.016 C 
ATOM      6  C   LIG    1       27.198 -28.587  10.292  0.00  0.00    +0.027 C 
ATOM      7  C   LIG    1       26.376 -28.059   9.116  0.00  0.00    +0.085 C 
ATOM      8  N   LIG    1       25.567 -29.093   8.456  0.00  0.00    -0.301 NA
ATOM      9  C   LIG    1       24.783 -29.912   9.388  0.00  0.00    +0.088 C 
BRANCH   4  10
ATOM     10  C   LIG    1       25.594 -28.113  12.207  0.00  0.00    -0.038 A 
ATOM     11  C   LIG    1       26.203 -26.907  12.592  0.00  0.00    +0.049 A 
ATOM     12  C   LIG    1       25.501 -25.919  13.291  0.00  0.00    +0.117 A 
ATOM     13  C   LIG    1       24.174 -26.094  13.648  0.00  0.00    +0.045 A 
ATOM     14  C   LIG    1       23.548 -27.285  13.310  0.00  0.00    +0.004 A 
ATOM     15  C   LIG    1       24.251 -28.278  12.614  0.00  0.00    +0.004 A 
BRANCH  12  16
ATOM     16  O   LIG    1       26.168 -24.770  13.608  0.00  0.00    -0.507 OA
ATOM     17  H   LIG    1       26.794 -24.967  14.324  0.00  0.00    +0.292 HD
ENDBRANCH  12  16
ENDBRANCH   4  10
ENDBRANCH   1   8
BRANCH   1  18
ATOM     18  C   LIG    1       25.276 -27.213   6.730  0.00  0.00    +0.093 C 
BRANCH  18  19
ATOM     19  C   LIG    1       26.286 -27.623   5.643  0.00  0.00    +0.218 C 
ATOM     20  N   LIG    1       26.136 -28.824   4.997  0.00  0.00    -0.305 N 
ATOM     21  H   LIG    1       26.920 -29.034   4.382  0.00  0.00    +0.149 HD
ATOM     22  O   LIG    1       27.180 -26.882   5.237  0.00  0.00    -0.275 OA
BRANCH  20  23
ATOM     23  C   LIG    1       25.182 -29.886   5.298  0.00  0.00    +0.224 C 
BRANCH  23  24
ATOM     24  C   LIG    1       25.841 -31.238   5.405  0.00  0.00    +0.322 C 
ATOM     25  O   LIG    1       25.890 -32.052   4.482  0.00  0.00    -0.249 OA
BRANCH  24  26
ATOM     26  O   LIG    1       26.495 -31.423   6.571  0.00  0.00    -0.479 OA
ATOM     27  H   LIG    1       27.379 -31.825   6.430  0.00  0.00    +0.295 HD
ENDBRANCH  24  26
ENDBRANCH  23  24
ENDBRANCH  20  23
ENDBRANCH  18  19
BRANCH  18  28
ATOM     28  C   LIG    1       24.201 -26.200   6.263  0.00  0.00    +0.049 C 
BRANCH  28  29
ATOM     29  C   LIG    1       24.363 -24.745   6.639  0.00  0.00    -0.047 A 
ATOM     30  C   LIG    1       25.611 -24.181   6.925  0.00  0.00    +0.003 A 
ATOM     31  C   LIG    1       25.720 -22.862   7.370  0.00  0.00    +0.000 A 
ATOM     32  C   LIG    1       24.582 -22.072   7.492  0.00  0.00    +0.000 A 
ATOM     33  C   LIG    1       23.346 -22.584   7.110  0.00  0.00    +0.000 A 
ATOM     34  C   LIG    1       23.241 -23.904   6.667  0.00  0.00    +0.003 A 
ENDBRANCH  28  29
ENDBRANCH  18  28
ENDBRANCH   1  18
TORSDOF 10
ENDMDL
MODEL 8
REMARK VINA RESULT:      -7.6      7.592     11.142
REMARK  Name = *****
REMARK                            x       y       z     vdW  Elec       q    Type
REMARK                         _______ _______ _______ _____ _____    ______ ____
ROOT
ATOM      1  C   LIG    1       24.362 -29.259   7.868  0.00  0.00    +0.097 C 
ENDROOT
BRANCH   1   8
ATOM      2  C   LIG    1       21.389 -31.151  11.286  0.00  0.00    +0.009 C 
ATOM      3  C   LIG    1       22.883 -31.002  10.967  0.00  0.00    +0.010 C 
ATOM      4  C   LIG    1       23.718 -30.266  12.073  0.00  0.00    -0.002 C 
ATOM      5  C   LIG    1       23.833 -31.259  13.274  0.00  0.00    +0.016 C 
ATOM      6  C   LIG    1       25.148 -30.110  11.499  0.00  0.00    +0.027 C 
ATOM      7  C   LIG    1       25.182 -29.404  10.143  0.00  0.00    +0.085 C 
ATOM      8  N   LIG    1       24.404 -30.095   9.105  0.00  0.00    -0.301 NA
ATOM      9  C   LIG    1       23.050 -30.466   9.530  0.00  0.00    +0.088 C 
BRANCH   4  10
ATOM     10  C   LIG    1       23.198 -28.894  12.587  0.00  0.00    -0.038 A 
ATOM     11  C   LIG    1       21.851 -28.503  12.509  0.00  0.00    +0.049 A 
ATOM     12  C   LIG    1       21.414 -27.269  13.004  0.00  0.00    +0.117 A 
ATOM     13  C   LIG    1       22.296 -26.371  13.583  0.00  0.00    +0.045 A 
ATOM     14  C   LIG    1       23.640 -26.712  13.650  0.00  0.00    +0.004 A 
ATOM     15  C   LIG    1       24.081 -27.945  13.150  0.00  0.00    +0.004 A 
BRANCH  12  16
ATOM     16  O   LIG    1       20.083 -26.980  12.902  0.00  0.00    -0.507 OA
ATOM     17  H   LIG    1       19.770 -27.279  12.033  0.00  0.00    +0.292 HD
ENDBRANCH  12  16
ENDBRANCH   4  10
ENDBRANCH   1   8
BRANCH   1  18
ATOM     18  C   LIG    1       25.092 -29.863   6.640  0.00  0.00    +0.093 C 
BRANCH  18  19
ATOM     19  C   LIG    1       24.500 -31.236   6.273  0.00  0.00    +0.218 C 
ATOM     20  N   LIG    1       25.188 -32.378   6.596  0.00  0.00    -0.305 N 
ATOM     21  H   LIG    1       24.755 -33.215   6.207  0.00  0.00    +0.149 HD
ATOM     22  O   LIG    1       23.380 -31.381   5.787  0.00  0.00    -0.275 OA
BRANCH  20  23
ATOM     23  C   LIG    1       26.533 -32.484   7.151  0.00  0.00    +0.224 C 
BRANCH  23  24
ATOM     24  C   LIG    1       26.524 -32.871   8.608  0.00  0.00    +0.322 C 
ATOM     25  O   LIG    1       27.531 -32.900   9.317  0.00  0.00    -0.249 OA
BRANCH  24  26
ATOM     26  O   LIG    1       25.283 -33.057   9.105  0.00  0.00    -0.479 OA
ATOM     27  H   LIG    1       25.283 -33.060  10.086  0.00  0.00    +0.295 HD
ENDBRANCH  24  26
ENDBRANCH  23  24
ENDBRANCH  20  23
ENDBRANCH  18  19
BRANCH  18  28
ATOM     28  C   LIG    1       25.219 -28.877   5.453  0.00  0.00    +0.049 C 
BRANCH  28  29
ATOM     29  C   LIG    1       25.225 -27.393   5.739  0.00  0.00    -0.047 A 
ATOM     30  C   LIG    1       26.388 -26.706   6.103  0.00  0.00    +0.003 A 
ATOM     31  C   LIG    1       26.346 -25.357   6.462  0.00  0.00    +0.000 A 
ATOM     32  C   LIG    1       25.141 -24.663   6.418  0.00  0.00    +0.000 A 
ATOM     33  C   LIG    1       23.995 -25.303   5.958  0.00  0.00    +0.000 A 
ATOM     34  C   LIG    1       24.042 -26.652   5.600  0.00  0.00    +0.003 A 
ENDBRANCH  28  29
ENDBRANCH  18  28
ENDBRANCH   1  18
TORSDOF 10
ENDMDL
MODEL 9
REMARK VINA RESULT:      -7.5      2.554      8.151
REMARK  Name = *****
REMARK                            x       y       z     vdW  Elec       q    Type
REMARK                         _______ _______ _______ _____ _____    ______ ____
ROOT
ATOM      1  C   LIG    1       28.667 -20.510   6.928  0.00  0.00    +0.097 C 
ENDROOT
BRANCH   1   8
ATOM      2  C   LIG    1       25.218 -23.796   5.743  0.00  0.00    +0.009 C 
ATOM      3  C   LIG    1       25.529 -22.739   6.811  0.00  0.00    +0.010 C 
ATOM      4  C   LIG    1       24.439 -21.620   6.961  0.00  0.00    -0.002 C 
ATOM      5  C   LIG    1       23.207 -22.292   7.649  0.00  0.00    +0.016 C 
ATOM      6  C   LIG    1       25.005 -20.603   7.982  0.00  0.00    +0.027 C 
ATOM      7  C   LIG    1       26.382 -20.061   7.596  0.00  0.00    +0.085 C 
ATOM      8  N   LIG    1       27.405 -21.107   7.460  0.00  0.00    -0.301 NA
ATOM      9  C   LIG    1       26.980 -22.244   6.637  0.00  0.00    +0.088 C 
BRANCH   4  10
ATOM     10  C   LIG    1       23.971 -20.881   5.677  0.00  0.00    -0.038 A 
ATOM     11  C   LIG    1       22.984 -19.881   5.681  0.00  0.00    +0.049 A 
ATOM     12  C   LIG    1       22.604 -19.219   4.508  0.00  0.00    +0.117 A 
ATOM     13  C   LIG    1       23.175 -19.533   3.285  0.00  0.00    +0.045 A 
ATOM     14  C   LIG    1       24.131 -20.537   3.239  0.00  0.00    +0.004 A 
ATOM     15  C   LIG    1       24.510 -21.205   4.411  0.00  0.00    +0.004 A 
BRANCH  12  16
ATOM     16  O   LIG    1       21.650 -18.246   4.609  0.00  0.00    -0.507 OA
ATOM     17  H   LIG    1       21.862 -17.688   5.374  0.00  0.00    +0.292 HD
ENDBRANCH  12  16
ENDBRANCH   4  10
ENDBRANCH   1   8
BRANCH   1  18
ATOM     18  C   LIG    1       29.636 -19.956   8.005  0.00  0.00    +0.093 C 
BRANCH  18  19
ATOM     19  C   LIG    1       31.080 -19.913   7.471  0.00  0.00    +0.218 C 
ATOM     20  N   LIG    1       32.085 -20.510   8.189  0.00  0.00    -0.305 N 
ATOM     21  H   LIG    1       33.007 -20.322   7.796  0.00  0.00    +0.149 HD
ATOM     22  O   LIG    1       31.380 -19.454   6.370  0.00  0.00    -0.275 OA
BRANCH  20  23
ATOM     23  C   LIG    1       32.003 -21.100   9.521  0.00  0.00    +0.224 C 
BRANCH  23  24
ATOM     24  C   LIG    1       31.283 -22.424   9.518  0.00  0.00    +0.322 C 
ATOM     25  O   LIG    1       30.274 -22.658  10.185  0.00  0.00    -0.249 OA
BRANCH  24  26
ATOM     26  O   LIG    1       31.771 -23.297   8.612  0.00  0.00    -0.479 OA
ATOM     27  H   LIG    1       31.994 -22.852   7.766  0.00  0.00    +0.295 HD
ENDBRANCH  24  26
ENDBRANCH  23  24
ENDBRANCH  20  23
ENDBRANCH  18  19
BRANCH  18  28
ATOM     28  C   LIG    1       29.148 -18.636   8.653  0.00  0.00    +0.049 C 
BRANCH  28  29
ATOM     29  C   LIG    1       30.133 -17.810   9.446  0.00  0.00    -0.047 A 
ATOM     30  C   LIG    1       31.020 -16.914   8.837  0.00  0.00    +0.003 A 
ATOM     31  C   LIG    1       31.989 -16.241   9.583  0.00  0.00    +0.000 A 
ATOM     32  C   LIG    1       32.055 -16.419  10.961  0.00  0.00    +0.000 A 
ATOM     33  C   LIG    1       31.114 -17.223  11.596  0.00  0.00    +0.000 A 
ATOM     34  C   LIG    1       30.148 -17.896  10.845  0.00  0.00    +0.003 A 
ENDBRANCH  28  29
ENDBRANCH  18  28
ENDBRANCH   1  18
TORSDOF 10
ENDMDL
