MODEL 1
REMARK VINA RESULT:      -4.4      0.000      0.000
REMARK  Name = *****
REMARK                            x       y       z     vdW  Elec       q    Type
REMARK                         _______ _______ _______ _____ _____    ______ ____
ROOT
ATOM      1  O   LIG    1       21.545 -20.261   5.052  0.00  0.00    -0.226 OA
ATOM      2  C   LIG    1       22.763 -20.131   5.037  0.00  0.00    +0.406 C 
ATOM      3  O   LIG    1       23.371 -19.186   4.287  0.00  0.00    -0.417 OA
ATOM      4  C   LIG    1       24.761 -19.332   3.904  0.00  0.00    +0.296 C 
ATOM      5  C   LIG    1       25.592 -19.930   5.030  0.00  0.00    +0.040 A 
ATOM      6  C   LIG    1       24.936 -20.734   5.958  0.00  0.00    +0.045 A 
ATOM      7  C   LIG    1       25.633 -21.397   6.968  0.00  0.00    +0.025 A 
ATOM      8  C   LIG    1       27.017 -21.247   7.062  0.00  0.00    +0.022 A 
ATOM      9  C   LIG    1       27.689 -20.449   6.139  0.00  0.00    +0.042 A 
ATOM     10 CL   LIG    1       29.397 -20.278   6.242  0.00  0.00    -0.084 Cl
ATOM     11  C   LIG    1       26.989 -19.799   5.122  0.00  0.00    +0.030 A 
ATOM     12  N   LIG    1       23.561 -20.881   5.851  0.00  0.00    -0.251 N 
ATOM     13  H   LIG    1       23.060 -21.498   6.477  0.00  0.00    +0.158 HD
ENDROOT
BRANCH   4  14
ATOM     14  C   LIG    1       24.841 -20.239   2.644  0.00  0.00    +0.446 C 
ATOM     15  F   LIG    1       25.958 -19.998   1.910  0.00  0.00    -0.165 F 
ATOM     16  F   LIG    1       23.781 -20.062   1.817  0.00  0.00    -0.165 F 
ATOM     17  F   LIG    1       24.865 -21.556   2.970  0.00  0.00    -0.165 F 
ENDBRANCH   4  14
BRANCH   4  18
ATOM     18  C   LIG    1       25.227 -17.958   3.583  0.00  0.00    -0.041 C 
ATOM     19  C   LIG    1       25.633 -16.855   3.332  0.00  0.00    -0.094 C 
BRANCH  19  20
ATOM     20  C   LIG    1       26.144 -15.549   3.042  0.00  0.00    +0.064 C 
ATOM     21  C   LIG    1       25.948 -14.461   4.067  0.00  0.00    +0.017 C 
ATOM     22  C   LIG    1       27.316 -15.034   3.834  0.00  0.00    +0.017 C 
ENDBRANCH  19  20
ENDBRANCH   4  18
TORSDOF 3
ENDMDL
MODEL 2
REMARK VINA RESULT:      -2.0      1.354      1.514
REMARK  Name = *****
REMARK                            x       y       z     vdW  Elec       q    Type
REMARK                         _______ _______ _______ _____ _____    ______ ____
ROOT
ATOM      1  O   LIG    1       22.291 -21.529   6.566  0.00  0.00    -0.226 OA
ATOM      2  C   LIG    1       23.282 -20.930   6.167  0.00  0.00    +0.406 C 
ATOM      3  O   LIG    1       23.185 -19.828   5.391  0.00  0.00    -0.417 OA
ATOM      4  C   LIG    1       24.294 -19.417   4.554  0.00  0.00    +0.296 C 
ATOM      5  C   LIG    1       25.630 -19.629   5.252  0.00  0.00    +0.040 A 
ATOM      6  C   LIG    1       25.697 -20.618   6.228  0.00  0.00    +0.045 A 
ATOM      7  C   LIG    1       26.901 -20.944   6.853  0.00  0.00    +0.025 A 
ATOM      8  C   LIG    1       28.065 -20.259   6.503  0.00  0.00    +0.022 A 
ATOM      9  C   LIG    1       28.016 -19.268   5.525  0.00  0.00    +0.042 A 
ATOM     10 CL   LIG    1       29.454 -18.436   5.079  0.00  0.00    -0.084 Cl
ATOM     11  C   LIG    1       26.812 -18.957   4.893  0.00  0.00    +0.030 A 
ATOM     12  N   LIG    1       24.535 -21.297   6.564  0.00  0.00    -0.251 N 
ATOM     13  H   LIG    1       24.558 -22.056   7.232  0.00  0.00    +0.158 HD
ENDROOT
BRANCH   4  14
ATOM     14  C   LIG    1       24.251 -20.229   3.230  0.00  0.00    +0.446 C 
ATOM     15  F   LIG    1       25.227 -19.852   2.365  0.00  0.00    -0.165 F 
ATOM     16  F   LIG    1       23.071 -20.084   2.578  0.00  0.00    -0.165 F 
ATOM     17  F   LIG    1       24.415 -21.559   3.447  0.00  0.00    -0.165 F 
ENDBRANCH   4  14
BRANCH   4  18
ATOM     18  C   LIG    1       24.069 -17.973   4.283  0.00  0.00    -0.041 C 
ATOM     19  C   LIG    1       23.902 -16.809   4.037  0.00  0.00    -0.094 C 
BRANCH  19  20
ATOM     20  C   LIG    1       23.719 -15.424   3.718  0.00  0.00    +0.064 C 
ATOM     21  C   LIG    1       23.971 -14.403   4.797  0.00  0.00    +0.017 C 
ATOM     22  C   LIG    1       24.927 -14.528   3.646  0.00  0.00    +0.017 C 
ENDBRANCH  19  20
ENDBRANCH   4  18
TORSDOF 3
ENDMDL
