MODEL 1
REMARK VINA RESULT:      -9.4      0.000      0.000
REMARK  Name = *****
REMARK                            x       y       z     vdW  Elec       q    Type
REMARK                         _______ _______ _______ _____ _____    ______ ____
ROOT
ATOM      1  C   LIG    1       26.918 -20.941   6.703  0.00  0.00    +0.136 A 
ATOM      2  C   LIG    1       27.945 -20.076   6.349  0.00  0.00    +0.094 A 
ATOM      3  C   LIG    1       27.670 -19.237   5.294  0.00  0.00    +0.131 A 
ATOM      4  N   LIG    1       26.511 -19.262   4.598  0.00  0.00    -0.222 NA
ATOM      5  C   LIG    1       25.577 -20.146   4.969  0.00  0.00    +0.220 A 
ATOM      6  N   LIG    1       25.766 -20.987   6.003  0.00  0.00    -0.199 NA
ENDROOT
BRANCH   5   7
ATOM      7  N   LIG    1       24.377 -20.215   4.258  0.00  0.00    -0.294 N 
ATOM      8  C   LIG    1       23.155 -20.211   5.100  0.00  0.00    +0.102 C 
ATOM      9  C   LIG    1       22.286 -19.078   4.528  0.00  0.00    +0.026 C 
ATOM     10  C   LIG    1       23.248 -18.223   3.721  0.00  0.00    +0.021 C 
ATOM     11  C   LIG    1       24.229 -19.245   3.168  0.00  0.00    +0.108 C 
BRANCH   8  12
ATOM     12  C   LIG    1       22.450 -21.576   5.020  0.00  0.00    +0.178 C 
BRANCH  12  13
ATOM     13  O   LIG    1       21.086 -21.434   4.618  0.00  0.00    -0.393 OA
ATOM     14  H   LIG    1       20.623 -21.119   5.419  0.00  0.00    +0.209 HD
ENDBRANCH  12  13
ENDBRANCH   8  12
ENDBRANCH   5   7
BRANCH   1  15
ATOM     15  N   LIG    1       27.079 -21.837   7.797  0.00  0.00    -0.324 N 
ATOM     16  H   LIG    1       27.573 -21.340   8.541  0.00  0.00    +0.148 HD
BRANCH  15  17
ATOM     17  C   LIG    1       25.812 -22.387   8.304  0.00  0.00    +0.138 C 
BRANCH  17  22
ATOM     18  C   LIG    1       24.545 -25.825   5.978  0.00  0.00    +0.138 A 
ATOM     19  C   LIG    1       25.905 -25.587   6.213  0.00  0.00    +0.083 A 
ATOM     20 CL   LIG    1       27.124 -26.675   5.647  0.00  0.00    -0.080 Cl
ATOM     21  C   LIG    1       26.314 -24.462   6.939  0.00  0.00    +0.028 A 
ATOM     22  C   LIG    1       25.371 -23.548   7.436  0.00  0.00    -0.029 A 
ATOM     23  C   LIG    1       24.023 -23.735   7.101  0.00  0.00    +0.009 A 
ATOM     24  C   LIG    1       23.617 -24.856   6.367  0.00  0.00    +0.047 A 
BRANCH  18  26
ATOM     25  C   LIG    1       24.203 -28.177   6.123  0.00  0.00    +0.277 C 
ATOM     26  O   LIG    1       24.191 -26.984   5.340  0.00  0.00    -0.494 OA
ENDBRANCH  18  26
ENDBRANCH  17  22
ENDBRANCH  15  17
ENDBRANCH   1  15
BRANCH   2  27
ATOM     27  C   LIG    1       29.311 -20.076   6.921  0.00  0.00    +0.220 C 
ATOM     28  N   LIG    1       29.595 -20.521   8.086  0.00  0.00    -0.242 NA
BRANCH  27  29
ATOM     29  O   LIG    1       30.239 -19.482   6.135  0.00  0.00    -0.492 OA
ATOM     30  H   LIG    1       30.521 -18.602   6.468  0.00  0.00    +0.294 HD
ENDBRANCH  27  29
BRANCH  28  31
ATOM     31  C   LIG    1       30.995 -20.322   8.543  0.00  0.00    +0.221 C 
BRANCH  31  32
ATOM     32  C   LIG    1       31.287 -18.991   9.223  0.00  0.00    +0.150 A 
ATOM     33  N   LIG    1       30.823 -18.780  10.473  0.00  0.00    -0.238 NA
ATOM     34  C   LIG    1       31.072 -17.574  11.014  0.00  0.00    +0.114 A 
ATOM     35  C   LIG    1       31.741 -16.567  10.362  0.00  0.00    +0.039 A 
ATOM     36  C   LIG    1       32.160 -16.866   9.088  0.00  0.00    +0.114 A 
ATOM     37  N   LIG    1       31.946 -18.057   8.497  0.00  0.00    -0.238 NA
ENDBRANCH  31  32
ENDBRANCH  28  31
ENDBRANCH   2  27
TORSDOF 11
ENDMDL
MODEL 2
REMARK VINA RESULT:      -9.3      1.717      2.168
REMARK  Name = *****
REMARK                            x       y       z     vdW  Elec       q    Type
REMARK                         _______ _______ _______ _____ _____    ______ ____
ROOT
ATOM      1  C   LIG    1       27.604 -20.293   6.806  0.00  0.00    +0.136 A 
ATOM      2  C   LIG    1       28.685 -19.465   6.529  0.00  0.00    +0.094 A 
ATOM      3  C   LIG    1       28.579 -18.726   5.375  0.00  0.00    +0.131 A 
ATOM      4  N   LIG    1       27.533 -18.811   4.523  0.00  0.00    -0.222 NA
ATOM      5  C   LIG    1       26.542 -19.655   4.831  0.00  0.00    +0.220 A 
ATOM      6  N   LIG    1       26.565 -20.400   5.952  0.00  0.00    -0.199 NA
ENDROOT
BRANCH   5   7
ATOM      7  N   LIG    1       25.457 -19.786   3.962  0.00  0.00    -0.294 N 
ATOM      8  C   LIG    1       24.276 -20.475   4.541  0.00  0.00    +0.102 C 
ATOM      9  C   LIG    1       23.099 -19.517   4.289  0.00  0.00    +0.026 C 
ATOM     10  C   LIG    1       23.747 -18.172   4.014  0.00  0.00    +0.021 C 
ATOM     11  C   LIG    1       25.030 -18.554   3.291  0.00  0.00    +0.108 C 
BRANCH   8  12
ATOM     12  C   LIG    1       24.069 -21.838   3.859  0.00  0.00    +0.178 C 
BRANCH  12  13
ATOM     13  O   LIG    1       23.580 -21.682   2.525  0.00  0.00    -0.393 OA
ATOM     14  H   LIG    1       23.436 -20.721   2.423  0.00  0.00    +0.209 HD
ENDBRANCH  12  13
ENDBRANCH   8  12
ENDBRANCH   5   7
BRANCH   1  15
ATOM     15  N   LIG    1       27.591 -21.087   7.987  0.00  0.00    -0.324 N 
ATOM     16  H   LIG    1       28.212 -20.646   8.670  0.00  0.00    +0.148 HD
BRANCH  15  17
ATOM     17  C   LIG    1       26.250 -21.272   8.562  0.00  0.00    +0.138 C 
BRANCH  17  22
ATOM     18  C   LIG    1       24.317 -24.562   6.495  0.00  0.00    +0.138 A 
ATOM     19  C   LIG    1       23.574 -23.453   6.917  0.00  0.00    +0.083 A 
ATOM     20 CL   LIG    1       21.884 -23.316   6.581  0.00  0.00    -0.080 Cl
ATOM     21  C   LIG    1       24.194 -22.405   7.609  0.00  0.00    +0.028 A 
ATOM     22  C   LIG    1       25.566 -22.452   7.902  0.00  0.00    -0.029 A 
ATOM     23  C   LIG    1       26.276 -23.615   7.574  0.00  0.00    +0.009 A 
ATOM     24  C   LIG    1       25.653 -24.665   6.889  0.00  0.00    +0.047 A 
BRANCH  18  26
ATOM     25  C   LIG    1       24.370 -26.757   5.574  0.00  0.00    +0.277 C 
ATOM     26  O   LIG    1       23.684 -25.518   5.746  0.00  0.00    -0.494 OA
ENDBRANCH  18  26
ENDBRANCH  17  22
ENDBRANCH  15  17
ENDBRANCH   1  15
BRANCH   2  27
ATOM     27  C   LIG    1       29.954 -19.417   7.293  0.00  0.00    +0.220 C 
ATOM     28  N   LIG    1       30.551 -18.333   7.615  0.00  0.00    -0.242 NA
BRANCH  27  29
ATOM     29  O   LIG    1       30.486 -20.633   7.554  0.00  0.00    -0.492 OA
ATOM     30  H   LIG    1       31.464 -20.617   7.640  0.00  0.00    +0.294 HD
ENDBRANCH  27  29
BRANCH  28  31
ATOM     31  C   LIG    1       31.877 -18.481   8.268  0.00  0.00    +0.221 C 
BRANCH  31  32
ATOM     32  C   LIG    1       32.216 -17.437   9.324  0.00  0.00    +0.150 A 
ATOM     33  N   LIG    1       32.620 -16.212   8.926  0.00  0.00    -0.238 NA
ATOM     34  C   LIG    1       32.946 -15.339   9.896  0.00  0.00    +0.114 A 
ATOM     35  C   LIG    1       32.907 -15.635  11.236  0.00  0.00    +0.039 A 
ATOM     36  C   LIG    1       32.502 -16.911  11.545  0.00  0.00    +0.114 A 
ATOM     37  N   LIG    1       32.157 -17.826  10.620  0.00  0.00    -0.238 NA
ENDBRANCH  31  32
ENDBRANCH  28  31
ENDBRANCH   2  27
TORSDOF 11
ENDMDL
MODEL 3
REMARK VINA RESULT:      -8.5      2.931      8.145
REMARK  Name = *****
REMARK                            x       y       z     vdW  Elec       q    Type
REMARK                         _______ _______ _______ _____ _____    ______ ____
ROOT
ATOM      1  C   LIG    1       25.433 -23.496   6.516  0.00  0.00    +0.136 A 
ATOM      2  C   LIG    1       24.052 -23.348   6.493  0.00  0.00    +0.094 A 
ATOM      3  C   LIG    1       23.333 -24.520   6.525  0.00  0.00    +0.131 A 
ATOM      4  N   LIG    1       23.900 -25.747   6.530  0.00  0.00    -0.222 NA
ATOM      5  C   LIG    1       25.237 -25.820   6.514  0.00  0.00    +0.220 A 
ATOM      6  N   LIG    1       26.008 -24.716   6.500  0.00  0.00    -0.199 NA
ENDROOT
BRANCH   5   7
ATOM      7  N   LIG    1       25.856 -27.071   6.494  0.00  0.00    -0.294 N 
ATOM      8  C   LIG    1       25.307 -28.052   7.463  0.00  0.00    +0.102 C 
ATOM      9  C   LIG    1       24.978 -29.297   6.621  0.00  0.00    +0.026 C 
ATOM     10  C   LIG    1       24.921 -28.791   5.191  0.00  0.00    +0.021 C 
ATOM     11  C   LIG    1       25.978 -27.697   5.174  0.00  0.00    +0.108 C 
BRANCH   8  12
ATOM     12  C   LIG    1       26.343 -28.352   8.559  0.00  0.00    +0.178 C 
BRANCH  12  13
ATOM     13  O   LIG    1       26.606 -29.754   8.656  0.00  0.00    -0.393 OA
ATOM     14  H   LIG    1       27.245 -29.937   7.940  0.00  0.00    +0.209 HD
ENDBRANCH  12  13
ENDBRANCH   8  12
ENDBRANCH   5   7
BRANCH   1  15
ATOM     15  N   LIG    1       26.278 -22.352   6.512  0.00  0.00    -0.324 N 
ATOM     16  H   LIG    1       25.716 -21.545   6.233  0.00  0.00    +0.148 HD
BRANCH  15  17
ATOM     17  C   LIG    1       26.933 -22.094   7.804  0.00  0.00    +0.138 C 
BRANCH  17  22
ATOM     18  C   LIG    1       30.398 -19.526   7.322  0.00  0.00    +0.138 A 
ATOM     19  C   LIG    1       29.283 -19.380   6.487  0.00  0.00    +0.083 A 
ATOM     20 CL   LIG    1       29.212 -18.143   5.281  0.00  0.00    -0.080 Cl
ATOM     21  C   LIG    1       28.178 -20.228   6.625  0.00  0.00    +0.028 A 
ATOM     22  C   LIG    1       28.169 -21.245   7.594  0.00  0.00    -0.029 A 
ATOM     23  C   LIG    1       29.332 -21.453   8.348  0.00  0.00    +0.009 A 
ATOM     24  C   LIG    1       30.440 -20.609   8.203  0.00  0.00    +0.047 A 
BRANCH  18  26
ATOM     25  C   LIG    1       31.961 -18.106   8.423  0.00  0.00    +0.277 C 
ATOM     26  O   LIG    1       31.416 -18.616   7.207  0.00  0.00    -0.494 OA
ENDBRANCH  18  26
ENDBRANCH  17  22
ENDBRANCH  15  17
ENDBRANCH   1  15
BRANCH   2  27
ATOM     27  C   LIG    1       23.323 -22.070   6.315  0.00  0.00    +0.220 C 
ATOM     28  N   LIG    1       22.738 -21.729   5.231  0.00  0.00    -0.242 NA
BRANCH  27  29
ATOM     29  O   LIG    1       23.398 -21.240   7.381  0.00  0.00    -0.492 OA
ATOM     30  H   LIG    1       22.970 -20.370   7.224  0.00  0.00    +0.294 HD
ENDBRANCH  27  29
BRANCH  28  31
ATOM     31  C   LIG    1       22.169 -20.356   5.193  0.00  0.00    +0.221 C 
BRANCH  31  32
ATOM     32  C   LIG    1       23.054 -19.290   4.562  0.00  0.00    +0.150 A 
ATOM     33  N   LIG    1       24.269 -19.644   4.091  0.00  0.00    -0.238 NA
ATOM     34  C   LIG    1       25.029 -18.658   3.580  0.00  0.00    +0.114 A 
ATOM     35  C   LIG    1       24.644 -17.341   3.535  0.00  0.00    +0.039 A 
ATOM     36  C   LIG    1       23.400 -17.073   4.052  0.00  0.00    +0.114 A 
ATOM     37  N   LIG    1       22.592 -18.017   4.571  0.00  0.00    -0.238 NA
ENDBRANCH  31  32
ENDBRANCH  28  31
ENDBRANCH   2  27
TORSDOF 11
ENDMDL
MODEL 4
REMARK VINA RESULT:      -8.3      5.407      9.664
REMARK  Name = *****
REMARK                            x       y       z     vdW  Elec       q    Type
REMARK                         _______ _______ _______ _____ _____    ______ ____
ROOT
ATOM      1  C   LIG    1       25.432 -28.759   7.563  0.00  0.00    +0.136 A 
ATOM      2  C   LIG    1       24.902 -28.007   6.522  0.00  0.00    +0.094 A 
ATOM      3  C   LIG    1       23.954 -28.648   5.758  0.00  0.00    +0.131 A 
ATOM      4  N   LIG    1       23.579 -29.932   5.950  0.00  0.00    -0.222 NA
ATOM      5  C   LIG    1       24.156 -30.611   6.948  0.00  0.00    +0.220 A 
ATOM      6  N   LIG    1       25.079 -30.047   7.750  0.00  0.00    -0.199 NA
ENDROOT
BRANCH   5   7
ATOM      7  N   LIG    1       23.810 -31.947   7.160  0.00  0.00    -0.294 N 
ATOM      8  C   LIG    1       24.830 -32.931   6.720  0.00  0.00    +0.102 C 
ATOM      9  C   LIG    1       25.071 -33.825   7.949  0.00  0.00    +0.026 C 
ATOM     10  C   LIG    1       24.538 -33.021   9.121  0.00  0.00    +0.021 C 
ATOM     11  C   LIG    1       23.357 -32.277   8.515  0.00  0.00    +0.108 C 
BRANCH   8  12
ATOM     12  C   LIG    1       24.310 -33.733   5.515  0.00  0.00    +0.178 C 
BRANCH  12  13
ATOM     13  O   LIG    1       23.251 -33.043   4.849  0.00  0.00    -0.393 OA
ATOM     14  H   LIG    1       23.404 -33.210   3.898  0.00  0.00    +0.209 HD
ENDBRANCH  12  13
ENDBRANCH   8  12
ENDBRANCH   5   7
BRANCH   1  15
ATOM     15  N   LIG    1       26.402 -28.192   8.436  0.00  0.00    -0.324 N 
ATOM     16  H   LIG    1       26.010 -27.332   8.828  0.00  0.00    +0.148 HD
BRANCH  15  17
ATOM     17  C   LIG    1       26.829 -29.096   9.516  0.00  0.00    +0.138 C 
BRANCH  17  22
ATOM     18  C   LIG    1       25.116 -27.588  13.208  0.00  0.00    +0.138 A 
ATOM     19  C   LIG    1       26.311 -27.055  12.708  0.00  0.00    +0.083 A 
ATOM     20 CL   LIG    1       27.116 -25.744  13.497  0.00  0.00    -0.080 Cl
ATOM     21  C   LIG    1       26.877 -27.562  11.532  0.00  0.00    +0.028 A 
ATOM     22  C   LIG    1       26.266 -28.618  10.839  0.00  0.00    -0.029 A 
ATOM     23  C   LIG    1       25.133 -29.217  11.406  0.00  0.00    +0.009 A 
ATOM     24  C   LIG    1       24.573 -28.715  12.586  0.00  0.00    +0.047 A 
BRANCH  18  26
ATOM     25  C   LIG    1       23.518 -26.050  14.074  0.00  0.00    +0.277 C 
ATOM     26  O   LIG    1       24.557 -27.000  14.311  0.00  0.00    -0.494 OA
ENDBRANCH  18  26
ENDBRANCH  17  22
ENDBRANCH  15  17
ENDBRANCH   1  15
BRANCH   2  27
ATOM     27  C   LIG    1       25.357 -26.659   6.111  0.00  0.00    +0.220 C 
ATOM     28  N   LIG    1       24.574 -25.660   5.954  0.00  0.00    -0.242 NA
BRANCH  27  29
ATOM     29  O   LIG    1       26.678 -26.586   5.828  0.00  0.00    -0.492 OA
ATOM     30  H   LIG    1       26.889 -25.915   5.143  0.00  0.00    +0.294 HD
ENDBRANCH  27  29
BRANCH  28  31
ATOM     31  C   LIG    1       25.189 -24.420   5.414  0.00  0.00    +0.221 C 
BRANCH  31  32
ATOM     32  C   LIG    1       24.612 -23.112   5.939  0.00  0.00    +0.150 A 
ATOM     33  N   LIG    1       23.724 -23.151   6.955  0.00  0.00    -0.238 NA
ATOM     34  C   LIG    1       23.212 -21.973   7.356  0.00  0.00    +0.114 A 
ATOM     35  C   LIG    1       23.528 -20.767   6.780  0.00  0.00    +0.039 A 
ATOM     36  C   LIG    1       24.426 -20.827   5.741  0.00  0.00    +0.114 A 
ATOM     37  N   LIG    1       24.976 -21.974   5.301  0.00  0.00    -0.238 NA
ENDBRANCH  31  32
ENDBRANCH  28  31
ENDBRANCH   2  27
TORSDOF 11
ENDMDL
MODEL 5
REMARK VINA RESULT:      -8.2      5.779     10.066
REMARK  Name = *****
REMARK                            x       y       z     vdW  Elec       q    Type
REMARK                         _______ _______ _______ _____ _____    ______ ____
ROOT
ATOM      1  C   LIG    1       25.524 -29.266   7.963  0.00  0.00    +0.136 A 
ATOM      2  C   LIG    1       24.857 -28.686   6.891  0.00  0.00    +0.094 A 
ATOM      3  C   LIG    1       23.991 -29.516   6.218  0.00  0.00    +0.131 A 
ATOM      4  N   LIG    1       23.815 -30.821   6.521  0.00  0.00    -0.222 NA
ATOM      5  C   LIG    1       24.516 -31.327   7.543  0.00  0.00    +0.220 A 
ATOM      6  N   LIG    1       25.370 -30.573   8.261  0.00  0.00    -0.199 NA
ENDROOT
BRANCH   5   7
ATOM      7  N   LIG    1       24.377 -32.677   7.869  0.00  0.00    -0.294 N 
ATOM      8  C   LIG    1       24.593 -32.996   9.302  0.00  0.00    +0.102 C 
ATOM      9  C   LIG    1       23.339 -33.779   9.726  0.00  0.00    +0.026 C 
ATOM     10  C   LIG    1       22.304 -33.455   8.663  0.00  0.00    +0.021 C 
ATOM     11  C   LIG    1       23.143 -33.318   7.402  0.00  0.00    +0.108 C 
BRANCH   8  12
ATOM     12  C   LIG    1       25.878 -33.825   9.474  0.00  0.00    +0.178 C 
BRANCH  12  13
ATOM     13  O   LIG    1       27.038 -32.991   9.480  0.00  0.00    -0.393 OA
ATOM     14  H   LIG    1       27.772 -33.588   9.727  0.00  0.00    +0.209 HD
ENDBRANCH  12  13
ENDBRANCH   8  12
ENDBRANCH   5   7
BRANCH   1  15
ATOM     15  N   LIG    1       26.426 -28.497   8.749  0.00  0.00    -0.324 N 
ATOM     16  H   LIG    1       25.965 -27.615   8.985  0.00  0.00    +0.148 HD
BRANCH  15  17
ATOM     17  C   LIG    1       26.878 -29.179   9.971  0.00  0.00    +0.138 C 
BRANCH  17  22
ATOM     18  C   LIG    1       25.101 -27.097  13.339  0.00  0.00    +0.138 A 
ATOM     19  C   LIG    1       26.356 -26.715  12.848  0.00  0.00    +0.083 A 
ATOM     20 CL   LIG    1       27.217 -25.371  13.514  0.00  0.00    -0.080 Cl
ATOM     21  C   LIG    1       26.941 -27.406  11.780  0.00  0.00    +0.028 A 
ATOM     22  C   LIG    1       26.287 -28.499  11.189  0.00  0.00    -0.029 A 
ATOM     23  C   LIG    1       25.085 -28.941  11.758  0.00  0.00    +0.009 A 
ATOM     24  C   LIG    1       24.506 -28.254  12.831  0.00  0.00    +0.047 A 
BRANCH  18  26
ATOM     25  C   LIG    1       23.109 -26.363  14.417  0.00  0.00    +0.277 C 
ATOM     26  O   LIG    1       24.533 -26.335  14.325  0.00  0.00    -0.494 OA
ENDBRANCH  18  26
ENDBRANCH  17  22
ENDBRANCH  15  17
ENDBRANCH   1  15
BRANCH   2  27
ATOM     27  C   LIG    1       25.096 -27.324   6.360  0.00  0.00    +0.220 C 
ATOM     28  N   LIG    1       24.163 -26.503   6.057  0.00  0.00    -0.242 NA
BRANCH  27  29
ATOM     29  O   LIG    1       26.400 -27.040   6.138  0.00  0.00    -0.492 OA
ATOM     30  H   LIG    1       26.946 -27.063   6.954  0.00  0.00    +0.294 HD
ENDBRANCH  27  29
BRANCH  28  31
ATOM     31  C   LIG    1       24.587 -25.231   5.418  0.00  0.00    +0.221 C 
BRANCH  31  32
ATOM     32  C   LIG    1       24.745 -24.040   6.355  0.00  0.00    +0.150 A 
ATOM     33  N   LIG    1       23.686 -23.230   6.567  0.00  0.00    -0.238 NA
ATOM     34  C   LIG    1       23.887 -22.170   7.370  0.00  0.00    +0.114 A 
ATOM     35  C   LIG    1       25.094 -21.870   7.952  0.00  0.00    +0.039 A 
ATOM     36  C   LIG    1       26.119 -22.739   7.664  0.00  0.00    +0.114 A 
ATOM     37  N   LIG    1       25.976 -23.820   6.874  0.00  0.00    -0.238 NA
ENDBRANCH  31  32
ENDBRANCH  28  31
ENDBRANCH   2  27
TORSDOF 11
ENDMDL
MODEL 6
REMARK VINA RESULT:      -7.9      5.143      9.585
REMARK  Name = *****
REMARK                            x       y       z     vdW  Elec       q    Type
REMARK                         _______ _______ _______ _____ _____    ______ ____
ROOT
ATOM      1  C   LIG    1       25.858 -26.865   6.669  0.00  0.00    +0.136 A 
ATOM      2  C   LIG    1       24.890 -27.408   5.833  0.00  0.00    +0.094 A 
ATOM      3  C   LIG    1       24.154 -26.494   5.114  0.00  0.00    +0.131 A 
ATOM      4  N   LIG    1       24.304 -25.155   5.227  0.00  0.00    -0.222 NA
ATOM      5  C   LIG    1       25.230 -24.698   6.078  0.00  0.00    +0.220 A 
ATOM      6  N   LIG    1       26.001 -25.530   6.803  0.00  0.00    -0.199 NA
ENDROOT
BRANCH   5   7
ATOM      7  N   LIG    1       25.396 -23.321   6.237  0.00  0.00    -0.294 N 
ATOM      8  C   LIG    1       24.133 -22.556   6.389  0.00  0.00    +0.102 C 
ATOM      9  C   LIG    1       24.324 -21.732   7.674  0.00  0.00    +0.026 C 
ATOM     10  C   LIG    1       25.462 -22.419   8.408  0.00  0.00    +0.021 C 
ATOM     11  C   LIG    1       26.348 -22.913   7.275  0.00  0.00    +0.108 C 
BRANCH   8  12
ATOM     12  C   LIG    1       23.902 -21.663   5.158  0.00  0.00    +0.178 C 
BRANCH  12  13
ATOM     13  O   LIG    1       24.236 -22.347   3.949  0.00  0.00    -0.393 OA
ATOM     14  H   LIG    1       23.522 -23.003   3.829  0.00  0.00    +0.209 HD
ENDBRANCH  12  13
ENDBRANCH   8  12
ENDBRANCH   5   7
BRANCH   1  15
ATOM     15  N   LIG    1       26.697 -27.715   7.442  0.00  0.00    -0.324 N 
ATOM     16  H   LIG    1       27.656 -27.366   7.366  0.00  0.00    +0.148 HD
BRANCH  15  17
ATOM     17  C   LIG    1       26.301 -27.813   8.855  0.00  0.00    +0.138 C 
BRANCH  17  22
ATOM     18  C   LIG    1       25.375 -31.977   9.653  0.00  0.00    +0.138 A 
ATOM     19  C   LIG    1       24.350 -31.031   9.531  0.00  0.00    +0.083 A 
ATOM     20 CL   LIG    1       22.684 -31.486   9.627  0.00  0.00    -0.080 Cl
ATOM     21  C   LIG    1       24.651 -29.683   9.301  0.00  0.00    +0.028 A 
ATOM     22  C   LIG    1       25.984 -29.253   9.201  0.00  0.00    -0.029 A 
ATOM     23  C   LIG    1       27.003 -30.187   9.436  0.00  0.00    +0.009 A 
ATOM     24  C   LIG    1       26.699 -31.533   9.673  0.00  0.00    +0.047 A 
BRANCH  18  26
ATOM     25  C   LIG    1       25.021 -33.824  11.114  0.00  0.00    +0.277 C 
ATOM     26  O   LIG    1       25.027 -33.295   9.788  0.00  0.00    -0.494 OA
ENDBRANCH  18  26
ENDBRANCH  17  22
ENDBRANCH  15  17
ENDBRANCH   1  15
BRANCH   2  27
ATOM     27  C   LIG    1       24.519 -28.839   5.756  0.00  0.00    +0.220 C 
ATOM     28  N   LIG    1       25.322 -29.799   6.023  0.00  0.00    -0.242 NA
BRANCH  27  29
ATOM     29  O   LIG    1       23.268 -29.061   5.291  0.00  0.00    -0.492 OA
ATOM     30  H   LIG    1       22.601 -29.151   6.005  0.00  0.00    +0.294 HD
ENDBRANCH  27  29
BRANCH  28  31
ATOM     31  C   LIG    1       24.816 -31.172   5.767  0.00  0.00    +0.221 C 
BRANCH  31  32
ATOM     32  C   LIG    1       25.823 -32.150   5.175  0.00  0.00    +0.150 A 
ATOM     33  N   LIG    1       26.779 -32.666   5.977  0.00  0.00    -0.238 NA
ATOM     34  C   LIG    1       27.670 -33.493   5.399  0.00  0.00    +0.114 A 
ATOM     35  C   LIG    1       27.663 -33.809   4.063  0.00  0.00    +0.039 A 
ATOM     36  C   LIG    1       26.665 -33.222   3.323  0.00  0.00    +0.114 A 
ATOM     37  N   LIG    1       25.742 -32.393   3.846  0.00  0.00    -0.238 NA
ENDBRANCH  31  32
ENDBRANCH  28  31
ENDBRANCH   2  27
TORSDOF 11
ENDMDL
MODEL 7
REMARK VINA RESULT:      -7.8      5.331      9.626
REMARK  Name = *****
REMARK                            x       y       z     vdW  Elec       q    Type
REMARK                         _______ _______ _______ _____ _____    ______ ____
ROOT
ATOM      1  C   LIG    1       25.845 -26.797   6.776  0.00  0.00    +0.136 A 
ATOM      2  C   LIG    1       25.158 -27.344   5.700  0.00  0.00    +0.094 A 
ATOM      3  C   LIG    1       24.666 -26.434   4.793  0.00  0.00    +0.131 A 
ATOM      4  N   LIG    1       24.784 -25.095   4.934  0.00  0.00    -0.222 NA
ATOM      5  C   LIG    1       25.426 -24.633   6.014  0.00  0.00    +0.220 A 
ATOM      6  N   LIG    1       25.950 -25.462   6.937  0.00  0.00    -0.199 NA
ENDROOT
BRANCH   5   7
ATOM      7  N   LIG    1       25.546 -23.256   6.204  0.00  0.00    -0.294 N 
ATOM      8  C   LIG    1       24.261 -22.543   6.413  0.00  0.00    +0.102 C 
ATOM      9  C   LIG    1       24.459 -21.745   7.713  0.00  0.00    +0.026 C 
ATOM     10  C   LIG    1       25.643 -22.407   8.395  0.00  0.00    +0.021 C 
ATOM     11  C   LIG    1       26.513 -22.838   7.225  0.00  0.00    +0.108 C 
BRANCH   8  12
ATOM     12  C   LIG    1       23.960 -21.628   5.214  0.00  0.00    +0.178 C 
BRANCH  12  13
ATOM     13  O   LIG    1       24.169 -22.308   3.974  0.00  0.00    -0.393 OA
ATOM     14  H   LIG    1       23.831 -23.212   4.127  0.00  0.00    +0.209 HD
ENDBRANCH  12  13
ENDBRANCH   8  12
ENDBRANCH   5   7
BRANCH   1  15
ATOM     15  N   LIG    1       26.420 -27.643   7.765  0.00  0.00    -0.324 N 
ATOM     16  H   LIG    1       26.839 -27.048   8.484  0.00  0.00    +0.148 HD
BRANCH  15  17
ATOM     17  C   LIG    1       25.464 -28.581   8.373  0.00  0.00    +0.138 C 
BRANCH  17  22
ATOM     18  C   LIG    1       27.019 -29.942  12.189  0.00  0.00    +0.138 A 
ATOM     19  C   LIG    1       25.958 -30.616  11.572  0.00  0.00    +0.083 A 
ATOM     20 CL   LIG    1       25.270 -32.044  12.263  0.00  0.00    -0.080 Cl
ATOM     21  C   LIG    1       25.439 -30.159  10.354  0.00  0.00    +0.028 A 
ATOM     22  C   LIG    1       25.962 -29.013   9.736  0.00  0.00    -0.029 A 
ATOM     23  C   LIG    1       26.947 -28.283  10.416  0.00  0.00    +0.009 A 
ATOM     24  C   LIG    1       27.459 -28.737  11.637  0.00  0.00    +0.047 A 
BRANCH  18  26
ATOM     25  C   LIG    1       28.583 -29.731  13.972  0.00  0.00    +0.277 C 
ATOM     26  O   LIG    1       27.549 -30.478  13.332  0.00  0.00    -0.494 OA
ENDBRANCH  18  26
ENDBRANCH  17  22
ENDBRANCH  15  17
ENDBRANCH   1  15
BRANCH   2  27
ATOM     27  C   LIG    1       24.818 -28.775   5.529  0.00  0.00    +0.220 C 
ATOM     28  N   LIG    1       25.688 -29.702   5.390  0.00  0.00    -0.242 NA
BRANCH  27  29
ATOM     29  O   LIG    1       23.490 -29.021   5.445  0.00  0.00    -0.492 OA
ATOM     30  H   LIG    1       23.269 -29.976   5.492  0.00  0.00    +0.294 HD
ENDBRANCH  27  29
BRANCH  28  31
ATOM     31  C   LIG    1       25.161 -31.061   5.101  0.00  0.00    +0.221 C 
BRANCH  31  32
ATOM     32  C   LIG    1       24.808 -31.907   6.318  0.00  0.00    +0.150 A 
ATOM     33  N   LIG    1       23.524 -31.949   6.734  0.00  0.00    -0.238 NA
ATOM     34  C   LIG    1       23.271 -32.677   7.837  0.00  0.00    +0.114 A 
ATOM     35  C   LIG    1       24.235 -33.344   8.551  0.00  0.00    +0.039 A 
ATOM     36  C   LIG    1       25.515 -33.229   8.064  0.00  0.00    +0.114 A 
ATOM     37  N   LIG    1       25.829 -32.521   6.962  0.00  0.00    -0.238 NA
ENDBRANCH  31  32
ENDBRANCH  28  31
ENDBRANCH   2  27
TORSDOF 11
ENDMDL
MODEL 8
REMARK VINA RESULT:      -7.7      6.130     10.601
REMARK  Name = *****
REMARK                            x       y       z     vdW  Elec       q    Type
REMARK                         _______ _______ _______ _____ _____    ______ ____
ROOT
ATOM      1  C   LIG    1       25.268 -30.102   7.603  0.00  0.00    +0.136 A 
ATOM      2  C   LIG    1       26.050 -30.329   8.729  0.00  0.00    +0.094 A 
ATOM      3  C   LIG    1       26.660 -31.561   8.783  0.00  0.00    +0.131 A 
ATOM      4  N   LIG    1       26.492 -32.523   7.848  0.00  0.00    -0.222 NA
ATOM      5  C   LIG    1       25.696 -32.252   6.807  0.00  0.00    +0.220 A 
ATOM      6  N   LIG    1       25.078 -31.062   6.675  0.00  0.00    -0.199 NA
ENDROOT
BRANCH   5   7
ATOM      7  N   LIG    1       25.480 -33.230   5.835  0.00  0.00    -0.294 N 
ATOM      8  C   LIG    1       24.464 -32.878   4.812  0.00  0.00    +0.102 C 
ATOM      9  C   LIG    1       25.171 -33.093   3.463  0.00  0.00    +0.026 C 
ATOM     10  C   LIG    1       26.652 -33.099   3.800  0.00  0.00    +0.021 C 
ATOM     11  C   LIG    1       26.685 -33.745   5.176  0.00  0.00    +0.108 C 
BRANCH   8  12
ATOM     12  C   LIG    1       23.224 -33.775   4.965  0.00  0.00    +0.178 C 
BRANCH  12  13
ATOM     13  O   LIG    1       22.335 -33.625   3.856  0.00  0.00    -0.393 OA
ATOM     14  H   LIG    1       21.486 -33.348   4.254  0.00  0.00    +0.209 HD
ENDBRANCH  12  13
ENDBRANCH   8  12
ENDBRANCH   5   7
BRANCH   1  15
ATOM     15  N   LIG    1       24.609 -28.853   7.427  0.00  0.00    -0.324 N 
ATOM     16  H   LIG    1       24.937 -28.218   8.158  0.00  0.00    +0.148 HD
BRANCH  15  17
ATOM     17  C   LIG    1       24.819 -28.255   6.099  0.00  0.00    +0.138 C 
BRANCH  17  22
ATOM     18  C   LIG    1       25.219 -23.971   6.670  0.00  0.00    +0.138 A 
ATOM     19  C   LIG    1       23.953 -24.556   6.540  0.00  0.00    +0.083 A 
ATOM     20 CL   LIG    1       22.506 -23.617   6.663  0.00  0.00    -0.080 Cl
ATOM     21  C   LIG    1       23.827 -25.934   6.327  0.00  0.00    +0.028 A 
ATOM     22  C   LIG    1       24.964 -26.752   6.230  0.00  0.00    -0.029 A 
ATOM     23  C   LIG    1       26.225 -26.142   6.250  0.00  0.00    +0.009 A 
ATOM     24  C   LIG    1       26.349 -24.762   6.454  0.00  0.00    +0.047 A 
BRANCH  18  26
ATOM     25  C   LIG    1       25.915 -22.281   8.196  0.00  0.00    +0.277 C 
ATOM     26  O   LIG    1       25.287 -22.635   6.965  0.00  0.00    -0.494 OA
ENDBRANCH  18  26
ENDBRANCH  17  22
ENDBRANCH  15  17
ENDBRANCH   1  15
BRANCH   2  27
ATOM     27  C   LIG    1       26.170 -29.423   9.894  0.00  0.00    +0.220 C 
ATOM     28  N   LIG    1       25.810 -29.736  11.081  0.00  0.00    -0.242 NA
BRANCH  27  29
ATOM     29  O   LIG    1       26.620 -28.184   9.586  0.00  0.00    -0.492 OA
ATOM     30  H   LIG    1       27.034 -27.722  10.347  0.00  0.00    +0.294 HD
ENDBRANCH  27  29
BRANCH  28  31
ATOM     31  C   LIG    1       25.885 -28.656  12.099  0.00  0.00    +0.221 C 
BRANCH  31  32
ATOM     32  C   LIG    1       24.549 -28.080  12.551  0.00  0.00    +0.150 A 
ATOM     33  N   LIG    1       24.536 -26.906  13.218  0.00  0.00    -0.238 NA
ATOM     34  C   LIG    1       23.337 -26.459  13.632  0.00  0.00    +0.114 A 
ATOM     35  C   LIG    1       22.159 -27.136  13.431  0.00  0.00    +0.039 A 
ATOM     36  C   LIG    1       22.272 -28.329  12.761  0.00  0.00    +0.114 A 
ATOM     37  N   LIG    1       23.443 -28.824  12.316  0.00  0.00    -0.238 NA
ENDBRANCH  31  32
ENDBRANCH  28  31
ENDBRANCH   2  27
TORSDOF 11
ENDMDL
MODEL 9
REMARK VINA RESULT:      -7.5      1.549      6.843
REMARK  Name = *****
REMARK                            x       y       z     vdW  Elec       q    Type
REMARK                         _______ _______ _______ _____ _____    ______ ____
ROOT
ATOM      1  C   LIG    1       26.976 -20.264   7.354  0.00  0.00    +0.136 A 
ATOM      2  C   LIG    1       27.306 -20.139   6.010  0.00  0.00    +0.094 A 
ATOM      3  C   LIG    1       28.610 -19.784   5.756  0.00  0.00    +0.131 A 
ATOM      4  N   LIG    1       29.519 -19.520   6.722  0.00  0.00    -0.222 NA
ATOM      5  C   LIG    1       29.125 -19.624   7.996  0.00  0.00    +0.220 A 
ATOM      6  N   LIG    1       27.869 -19.984   8.325  0.00  0.00    -0.199 NA
ENDROOT
BRANCH   5   7
ATOM      7  N   LIG    1       30.029 -19.337   9.020  0.00  0.00    -0.294 N 
ATOM      8  C   LIG    1       31.447 -19.637   8.699  0.00  0.00    +0.102 C 
ATOM      9  C   LIG    1       32.205 -18.334   9.002  0.00  0.00    +0.026 C 
ATOM     10  C   LIG    1       31.132 -17.259   9.024  0.00  0.00    +0.021 C 
ATOM     11  C   LIG    1       29.928 -17.992   9.597  0.00  0.00    +0.108 C 
BRANCH   8  12
ATOM     12  C   LIG    1       31.949 -20.810   9.558  0.00  0.00    +0.178 C 
BRANCH  12  13
ATOM     13  O   LIG    1       32.003 -22.022   8.803  0.00  0.00    -0.393 OA
ATOM     14  H   LIG    1       32.359 -22.687   9.425  0.00  0.00    +0.209 HD
ENDBRANCH  12  13
ENDBRANCH   8  12
ENDBRANCH   5   7
BRANCH   1  15
ATOM     15  N   LIG    1       25.662 -20.652   7.737  0.00  0.00    -0.324 N 
ATOM     16  H   LIG    1       25.096 -20.732   6.889  0.00  0.00    +0.148 HD
BRANCH  15  17
ATOM     17  C   LIG    1       25.614 -21.907   8.503  0.00  0.00    +0.138 C 
BRANCH  17  22
ATOM     18  C   LIG    1       24.329 -25.272   6.082  0.00  0.00    +0.138 A 
ATOM     19  C   LIG    1       25.679 -25.111   6.416  0.00  0.00    +0.083 A 
ATOM     20 CL   LIG    1       26.874 -26.266   5.938  0.00  0.00    -0.080 Cl
ATOM     21  C   LIG    1       26.096 -24.009   7.173  0.00  0.00    +0.028 A 
ATOM     22  C   LIG    1       25.173 -23.042   7.601  0.00  0.00    -0.029 A 
ATOM     23  C   LIG    1       23.845 -23.154   7.168  0.00  0.00    +0.009 A 
ATOM     24  C   LIG    1       23.431 -24.252   6.404  0.00  0.00    +0.047 A 
BRANCH  18  26
ATOM     25  C   LIG    1       24.174 -27.648   6.094  0.00  0.00    +0.277 C 
ATOM     26  O   LIG    1       23.959 -26.411   5.416  0.00  0.00    -0.494 OA
ENDBRANCH  18  26
ENDBRANCH  17  22
ENDBRANCH  15  17
ENDBRANCH   1  15
BRANCH   2  27
ATOM     27  C   LIG    1       26.359 -20.232   4.876  0.00  0.00    +0.220 C 
ATOM     28  N   LIG    1       26.136 -19.279   4.053  0.00  0.00    -0.242 NA
BRANCH  27  29
ATOM     29  O   LIG    1       25.671 -21.397   4.826  0.00  0.00    -0.492 OA
ATOM     30  H   LIG    1       26.251 -22.189   4.836  0.00  0.00    +0.294 HD
ENDBRANCH  27  29
BRANCH  28  31
ATOM     31  C   LIG    1       25.058 -19.509   3.055  0.00  0.00    +0.221 C 
BRANCH  31  32
ATOM     32  C   LIG    1       23.636 -19.494   3.602  0.00  0.00    +0.150 A 
ATOM     33  N   LIG    1       23.003 -18.310   3.743  0.00  0.00    -0.238 NA
ATOM     34  C   LIG    1       21.765 -18.346   4.268  0.00  0.00    +0.114 A 
ATOM     35  C   LIG    1       21.141 -19.500   4.674  0.00  0.00    +0.039 A 
ATOM     36  C   LIG    1       21.868 -20.653   4.509  0.00  0.00    +0.114 A 
ATOM     37  N   LIG    1       23.108 -20.681   3.984  0.00  0.00    -0.238 NA
ENDBRANCH  31  32
ENDBRANCH  28  31
ENDBRANCH   2  27
TORSDOF 11
ENDMDL
