MODEL 1
REMARK VINA RESULT:      -0.1      0.000      0.000
REMARK  Name = *****
REMARK                            x       y       z     vdW  Elec       q    Type
REMARK                         _______ _______ _______ _____ _____    ______ ____
ROOT
ATOM      1  C   LIG    1       26.659 -19.319   4.950  0.00  0.00    +0.031 C 
ATOM      2  C   LIG    1       26.597 -20.191   6.212  0.00  0.00    +0.121 C 
ATOM      3  C   LIG    1       27.745 -19.650   7.061  0.00  0.00    +0.063 C 
ATOM      4  C   LIG    1       28.870 -19.495   6.042  0.00  0.00    +0.124 C 
ATOM      5  C   LIG    1       28.174 -19.047   4.731  0.00  0.00    +0.046 C 
ENDROOT
BRANCH   2   6
ATOM      6  O   LIG    1       26.801 -21.572   5.931  0.00  0.00    -0.391 OA
ATOM      7  H   LIG    1       27.717 -21.798   6.196  0.00  0.00    +0.210 HD
ENDBRANCH   2   6
BRANCH   4   8
ATOM      8  O   LIG    1       29.475 -20.776   5.833  0.00  0.00    -0.391 OA
ATOM      9  H   LIG    1       29.691 -20.840   4.884  0.00  0.00    +0.210 HD
ENDBRANCH   4   8
BRANCH   5  10
ATOM     10  C   LIG    1       28.409 -17.581   4.438  0.00  0.00    -0.019 C 
ATOM     11  C   LIG    1       27.427 -16.718   4.127  0.00  0.00    +0.047 C 
BRANCH  11  12
ATOM     12  C   LIG    1       27.619 -15.251   3.866  0.00  0.00    +0.300 C 
ATOM     13  F   LIG    1       27.278 -14.946   2.578  0.00  0.00    -0.197 F 
ATOM     14  F   LIG    1       28.938 -14.928   3.975  0.00  0.00    -0.197 F 
BRANCH  12  15
ATOM     15  C   LIG    1       26.796 -14.355   4.793  0.00  0.00    +0.308 C 
BRANCH  15  16
ATOM     16  O   LIG    1       26.862 -12.981   4.388  0.00  0.00    -0.486 OA
BRANCH  16  17
ATOM     17  C   LIG    1       25.712 -12.502   3.822  0.00  0.00    +0.121 A 
ATOM     18  C   LIG    1       25.581 -12.136   2.481  0.00  0.00    +0.045 A 
ATOM     19  C   LIG    1       24.378 -11.599   2.018  0.00  0.00    +0.004 A 
ATOM     20  C   LIG    1       23.300 -11.447   2.888  0.00  0.00    +0.000 A 
ATOM     21  C   LIG    1       23.416 -11.852   4.216  0.00  0.00    +0.004 A 
ATOM     22  C   LIG    1       24.617 -12.389   4.680  0.00  0.00    +0.045 A 
ENDBRANCH  16  17
ENDBRANCH  15  16
ENDBRANCH  12  15
ENDBRANCH  11  12
ENDBRANCH   5  10
BRANCH   1  23
ATOM     23  C   LIG    1       25.977 -19.894   3.697  0.00  0.00    +0.033 C 
BRANCH  23  25
ATOM     24  C   LIG    1       24.062 -21.064   4.853  0.00  0.00    -0.031 C 
ATOM     25  C   LIG    1       24.520 -20.211   3.922  0.00  0.00    -0.031 C 
BRANCH  24  26
ATOM     26  C   LIG    1       22.624 -21.478   5.067  0.00  0.00    +0.027 C 
BRANCH  26  27
ATOM     27  C   LIG    1       21.551 -20.428   4.736  0.00  0.00    +0.015 C 
BRANCH  27  28
ATOM     28  C   LIG    1       22.008 -19.408   3.687  0.00  0.00    +0.121 C 
BRANCH  28  29
ATOM     29  C   LIG    1       21.393 -18.058   3.917  0.00  0.00    +0.307 C 
ATOM     30  O   LIG    1       20.475 -17.610   3.225  0.00  0.00    -0.251 OA
BRANCH  29  31
ATOM     31  O   LIG    1       22.030 -17.387   4.906  0.00  0.00    -0.462 OA
BRANCH  31  33
ATOM     32  C   LIG    1       21.894 -15.232   6.019  0.00  0.00    +0.051 C 
ATOM     33  C   LIG    1       22.181 -15.973   4.723  0.00  0.00    +0.170 C 
ATOM     34  C   LIG    1       23.614 -15.752   4.256  0.00  0.00    +0.051 C 
ENDBRANCH  31  33
ENDBRANCH  29  31
ENDBRANCH  28  29
ENDBRANCH  27  28
ENDBRANCH  26  27
ENDBRANCH  24  26
ENDBRANCH  23  25
ENDBRANCH   1  23
TORSDOF 15
ENDMDL
MODEL 2
REMARK VINA RESULT:      -0.1      2.134      5.432
REMARK  Name = *****
REMARK                            x       y       z     vdW  Elec       q    Type
REMARK                         _______ _______ _______ _____ _____    ______ ____
ROOT
ATOM      1  C   LIG    1       23.687 -19.400   4.689  0.00  0.00    +0.031 C 
ATOM      2  C   LIG    1       23.663 -20.278   3.430  0.00  0.00    +0.121 C 
ATOM      3  C   LIG    1       22.753 -19.498   2.484  0.00  0.00    +0.063 C 
ATOM      4  C   LIG    1       21.605 -19.076   3.396  0.00  0.00    +0.124 C 
ATOM      5  C   LIG    1       22.261 -18.785   4.770  0.00  0.00    +0.046 C 
ENDROOT
BRANCH   2   6
ATOM      6  O   LIG    1       23.122 -21.572   3.678  0.00  0.00    -0.391 OA
ATOM      7  H   LIG    1       22.151 -21.518   3.555  0.00  0.00    +0.210 HD
ENDBRANCH   2   6
BRANCH   4   8
ATOM      8  O   LIG    1       20.705 -20.182   3.536  0.00  0.00    -0.391 OA
ATOM      9  H   LIG    1       19.801 -19.816   3.553  0.00  0.00    +0.210 HD
ENDBRANCH   4   8
BRANCH   5  10
ATOM     10  C   LIG    1       22.343 -17.301   5.054  0.00  0.00    -0.019 C 
ATOM     11  C   LIG    1       23.288 -16.496   4.539  0.00  0.00    +0.047 C 
BRANCH  11  12
ATOM     12  C   LIG    1       23.378 -15.014   4.770  0.00  0.00    +0.300 C 
ATOM     13  F   LIG    1       24.471 -14.715   5.534  0.00  0.00    -0.197 F 
ATOM     14  F   LIG    1       22.305 -14.591   5.495  0.00  0.00    -0.197 F 
BRANCH  12  15
ATOM     15  C   LIG    1       23.474 -14.202   3.478  0.00  0.00    +0.308 C 
BRANCH  15  16
ATOM     16  O   LIG    1       24.189 -12.975   3.681  0.00  0.00    -0.486 OA
BRANCH  16  17
ATOM     17  C   LIG    1       25.551 -13.101   3.642  0.00  0.00    +0.121 A 
ATOM     18  C   LIG    1       26.285 -13.438   2.502  0.00  0.00    +0.045 A 
ATOM     19  C   LIG    1       27.668 -13.601   2.585  0.00  0.00    +0.004 A 
ATOM     20  C   LIG    1       28.323 -13.408   3.800  0.00  0.00    +0.000 A 
ATOM     21  C   LIG    1       27.598 -13.029   4.929  0.00  0.00    +0.004 A 
ATOM     22  C   LIG    1       26.215 -12.866   4.847  0.00  0.00    +0.045 A 
ENDBRANCH  16  17
ENDBRANCH  15  16
ENDBRANCH  12  15
ENDBRANCH  11  12
ENDBRANCH   5  10
BRANCH   1  23
ATOM     23  C   LIG    1       24.101 -20.101   5.994  0.00  0.00    +0.033 C 
BRANCH  23  25
ATOM     24  C   LIG    1       26.169 -21.127   7.015  0.00  0.00    -0.031 C 
ATOM     25  C   LIG    1       25.524 -20.595   5.963  0.00  0.00    -0.031 C 
BRANCH  24  26
ATOM     26  C   LIG    1       27.615 -21.562   7.061  0.00  0.00    +0.027 C 
BRANCH  26  27
ATOM     27  C   LIG    1       28.581 -20.831   6.114  0.00  0.00    +0.015 C 
BRANCH  27  28
ATOM     28  C   LIG    1       29.241 -19.604   6.754  0.00  0.00    +0.121 C 
BRANCH  28  29
ATOM     29  C   LIG    1       29.128 -18.391   5.877  0.00  0.00    +0.307 C 
ATOM     30  O   LIG    1       29.475 -17.264   6.240  0.00  0.00    -0.251 OA
BRANCH  29  31
ATOM     31  O   LIG    1       28.527 -18.686   4.700  0.00  0.00    -0.462 OA
BRANCH  31  33
ATOM     32  C   LIG    1       27.383 -16.718   3.853  0.00  0.00    +0.051 C 
ATOM     33  C   LIG    1       27.240 -18.097   4.475  0.00  0.00    +0.170 C 
ATOM     34  C   LIG    1       26.487 -19.052   3.556  0.00  0.00    +0.051 C 
ENDBRANCH  31  33
ENDBRANCH  29  31
ENDBRANCH  28  29
ENDBRANCH  27  28
ENDBRANCH  26  27
ENDBRANCH  24  26
ENDBRANCH  23  25
ENDBRANCH   1  23
TORSDOF 15
ENDMDL
MODEL 3
REMARK VINA RESULT:       1.0      2.488      7.319
REMARK  Name = *****
REMARK                            x       y       z     vdW  Elec       q    Type
REMARK                         _______ _______ _______ _____ _____    ______ ____
ROOT
ATOM      1  C   LIG    1       24.239 -16.751   4.098  0.00  0.00    +0.031 C 
ATOM      2  C   LIG    1       23.344 -15.613   4.608  0.00  0.00    +0.121 C 
ATOM      3  C   LIG    1       22.122 -16.353   5.150  0.00  0.00    +0.063 C 
ATOM      4  C   LIG    1       21.851 -17.390   4.064  0.00  0.00    +0.124 C 
ATOM      5  C   LIG    1       23.250 -17.818   3.550  0.00  0.00    +0.046 C 
ENDROOT
BRANCH   2   6
ATOM      6  O   LIG    1       22.957 -14.717   3.572  0.00  0.00    -0.391 OA
ATOM      7  H   LIG    1       22.868 -15.237   2.745  0.00  0.00    +0.210 HD
ENDBRANCH   2   6
BRANCH   4   8
ATOM      8  O   LIG    1       21.138 -16.755   2.996  0.00  0.00    -0.391 OA
ATOM      9  H   LIG    1       20.291 -16.439   3.364  0.00  0.00    +0.210 HD
ENDBRANCH   4   8
BRANCH   5  10
ATOM     10  C   LIG    1       23.636 -19.196   4.041  0.00  0.00    -0.019 C 
ATOM     11  C   LIG    1       24.035 -19.452   5.299  0.00  0.00    +0.047 C 
BRANCH  11  12
ATOM     12  C   LIG    1       24.390 -20.812   5.830  0.00  0.00    +0.300 C 
ATOM     13  F   LIG    1       24.985 -21.565   4.857  0.00  0.00    -0.197 F 
ATOM     14  F   LIG    1       23.258 -21.489   6.168  0.00  0.00    -0.197 F 
BRANCH  12  15
ATOM     15  C   LIG    1       25.336 -20.768   7.031  0.00  0.00    +0.308 C 
BRANCH  15  16
ATOM     16  O   LIG    1       26.646 -21.239   6.684  0.00  0.00    -0.486 OA
BRANCH  16  17
ATOM     17  C   LIG    1       27.517 -20.257   6.300  0.00  0.00    +0.121 A 
ATOM     18  C   LIG    1       28.685 -19.918   6.987  0.00  0.00    +0.045 A 
ATOM     19  C   LIG    1       29.474 -18.856   6.542  0.00  0.00    +0.004 A 
ATOM     20  C   LIG    1       29.110 -18.146   5.399  0.00  0.00    +0.000 A 
ATOM     21  C   LIG    1       27.969 -18.511   4.688  0.00  0.00    +0.004 A 
ATOM     22  C   LIG    1       27.179 -19.572   5.132  0.00  0.00    +0.045 A 
ENDBRANCH  16  17
ENDBRANCH  15  16
ENDBRANCH  12  15
ENDBRANCH  11  12
ENDBRANCH   5  10
BRANCH   1  23
ATOM     23  C   LIG    1       25.311 -16.357   3.068  0.00  0.00    +0.033 C 
BRANCH  23  25
ATOM     24  C   LIG    1       27.329 -14.841   3.093  0.00  0.00    -0.031 C 
ATOM     25  C   LIG    1       26.066 -15.112   3.460  0.00  0.00    -0.031 C 
BRANCH  24  26
ATOM     26  C   LIG    1       28.158 -13.653   3.523  0.00  0.00    +0.027 C 
BRANCH  26  27
ATOM     27  C   LIG    1       27.554 -12.264   3.257  0.00  0.00    +0.015 C 
BRANCH  27  28
ATOM     28  C   LIG    1       26.496 -12.268   2.147  0.00  0.00    +0.121 C 
BRANCH  28  29
ATOM     29  C   LIG    1       25.111 -12.086   2.698  0.00  0.00    +0.307 C 
ATOM     30  O   LIG    1       24.092 -12.258   2.025  0.00  0.00    -0.251 OA
BRANCH  29  31
ATOM     31  O   LIG    1       25.142 -11.632   3.973  0.00  0.00    -0.462 OA
BRANCH  31  33
ATOM     32  C   LIG    1       25.371 -13.474   5.540  0.00  0.00    +0.051 C 
ATOM     33  C   LIG    1       24.450 -12.420   4.949  0.00  0.00    +0.170 C 
ATOM     34  C   LIG    1       23.955 -11.448   6.013  0.00  0.00    +0.051 C 
ENDBRANCH  31  33
ENDBRANCH  29  31
ENDBRANCH  28  29
ENDBRANCH  27  28
ENDBRANCH  26  27
ENDBRANCH  24  26
ENDBRANCH  23  25
ENDBRANCH   1  23
TORSDOF 15
ENDMDL
MODEL 4
REMARK VINA RESULT:       1.1      2.743      8.120
REMARK  Name = *****
REMARK                            x       y       z     vdW  Elec       q    Type
REMARK                         _______ _______ _______ _____ _____    ______ ____
ROOT
ATOM      1  C   LIG    1       23.979 -13.590   5.321  0.00  0.00    +0.031 C 
ATOM      2  C   LIG    1       23.942 -12.159   4.768  0.00  0.00    +0.121 C 
ATOM      3  C   LIG    1       23.048 -12.289   3.536  0.00  0.00    +0.063 C 
ATOM      4  C   LIG    1       23.562 -13.569   2.885  0.00  0.00    +0.124 C 
ATOM      5  C   LIG    1       23.943 -14.503   4.063  0.00  0.00    +0.046 C 
ENDROOT
BRANCH   2   6
ATOM      6  O   LIG    1       25.231 -11.686   4.393  0.00  0.00    -0.391 OA
ATOM      7  H   LIG    1       25.794 -11.685   5.196  0.00  0.00    +0.210 HD
ENDBRANCH   2   6
BRANCH   4   8
ATOM      8  O   LIG    1       24.745 -13.257   2.138  0.00  0.00    -0.391 OA
ATOM      9  H   LIG    1       25.507 -13.538   2.678  0.00  0.00    +0.210 HD
ENDBRANCH   4   8
BRANCH   5  10
ATOM     10  C   LIG    1       22.939 -15.618   4.249  0.00  0.00    -0.019 C 
ATOM     11  C   LIG    1       23.206 -16.910   3.991  0.00  0.00    +0.047 C 
BRANCH  11  12
ATOM     12  C   LIG    1       22.245 -18.047   4.198  0.00  0.00    +0.300 C 
ATOM     13  F   LIG    1       22.394 -18.984   3.214  0.00  0.00    -0.197 F 
ATOM     14  F   LIG    1       20.964 -17.601   4.080  0.00  0.00    -0.197 F 
BRANCH  12  15
ATOM     15  C   LIG    1       22.419 -18.751   5.545  0.00  0.00    +0.308 C 
BRANCH  15  16
ATOM     16  O   LIG    1       22.696 -20.148   5.374  0.00  0.00    -0.486 OA
BRANCH  16  17
ATOM     17  C   LIG    1       23.976 -20.514   5.691  0.00  0.00    +0.121 A 
ATOM     18  C   LIG    1       24.328 -21.295   6.794  0.00  0.00    +0.045 A 
ATOM     19  C   LIG    1       25.672 -21.560   7.062  0.00  0.00    +0.004 A 
ATOM     20  C   LIG    1       26.664 -21.063   6.218  0.00  0.00    +0.000 A 
ATOM     21  C   LIG    1       26.312 -20.320   5.092  0.00  0.00    +0.004 A 
ATOM     22  C   LIG    1       24.968 -20.055   4.824  0.00  0.00    +0.045 A 
ENDBRANCH  16  17
ENDBRANCH  15  16
ENDBRANCH  12  15
ENDBRANCH  11  12
ENDBRANCH   5  10
BRANCH   1  23
ATOM     23  C   LIG    1       25.153 -13.923   6.258  0.00  0.00    +0.033 C 
BRANCH  23  25
ATOM     24  C   LIG    1       27.398 -12.776   6.126  0.00  0.00    -0.031 C 
ATOM     25  C   LIG    1       26.495 -13.639   5.631  0.00  0.00    -0.031 C 
BRANCH  24  26
ATOM     26  C   LIG    1       28.719 -12.394   5.498  0.00  0.00    +0.027 C 
BRANCH  26  27
ATOM     27  C   LIG    1       28.732 -12.242   3.968  0.00  0.00    +0.015 C 
BRANCH  27  28
ATOM     28  C   LIG    1       29.074 -13.544   3.235  0.00  0.00    +0.121 C 
BRANCH  28  29
ATOM     29  C   LIG    1       27.852 -14.376   2.978  0.00  0.00    +0.307 C 
ATOM     30  O   LIG    1       27.103 -14.192   2.015  0.00  0.00    -0.251 OA
BRANCH  29  31
ATOM     31  O   LIG    1       27.646 -15.272   3.972  0.00  0.00    -0.462 OA
BRANCH  31  33
ATOM     32  C   LIG    1       28.228 -17.510   4.716  0.00  0.00    +0.051 C 
ATOM     33  C   LIG    1       27.654 -16.655   3.598  0.00  0.00    +0.170 C 
ATOM     34  C   LIG    1       26.207 -17.025   3.296  0.00  0.00    +0.051 C 
ENDBRANCH  31  33
ENDBRANCH  29  31
ENDBRANCH  28  29
ENDBRANCH  27  28
ENDBRANCH  26  27
ENDBRANCH  24  26
ENDBRANCH  23  25
ENDBRANCH   1  23
TORSDOF 15
ENDMDL
MODEL 5
REMARK VINA RESULT:       2.9      1.877      6.720
REMARK  Name = *****
REMARK                            x       y       z     vdW  Elec       q    Type
REMARK                         _______ _______ _______ _____ _____    ______ ____
ROOT
ATOM      1  C   LIG    1       23.914 -13.931   3.643  0.00  0.00    +0.031 C 
ATOM      2  C   LIG    1       23.703 -12.668   2.797  0.00  0.00    +0.121 C 
ATOM      3  C   LIG    1       25.034 -12.518   2.065  0.00  0.00    +0.063 C 
ATOM      4  C   LIG    1       26.054 -12.790   3.167  0.00  0.00    +0.124 C 
ATOM      5  C   LIG    1       25.412 -13.886   4.055  0.00  0.00    +0.046 C 
ENDROOT
BRANCH   2   6
ATOM      6  O   LIG    1       23.445 -11.516   3.592  0.00  0.00    -0.391 OA
ATOM      7  H   LIG    1       23.402 -10.742   2.992  0.00  0.00    +0.210 HD
ENDBRANCH   2   6
BRANCH   4   8
ATOM      8  O   LIG    1       26.214 -11.596   3.943  0.00  0.00    -0.391 OA
ATOM      9  H   LIG    1       25.801 -11.761   4.812  0.00  0.00    +0.210 HD
ENDBRANCH   4   8
BRANCH   5  10
ATOM     10  C   LIG    1       26.058 -15.237   3.842  0.00  0.00    -0.019 C 
ATOM     11  C   LIG    1       27.295 -15.545   4.269  0.00  0.00    +0.047 C 
BRANCH  11  12
ATOM     12  C   LIG    1       27.954 -16.886   4.108  0.00  0.00    +0.300 C 
ATOM     13  F   LIG    1       28.668 -16.930   2.944  0.00  0.00    -0.197 F 
ATOM     14  F   LIG    1       27.007 -17.857   3.987  0.00  0.00    -0.197 F 
BRANCH  12  15
ATOM     15  C   LIG    1       28.904 -17.239   5.253  0.00  0.00    +0.308 C 
BRANCH  15  16
ATOM     16  O   LIG    1       29.458 -18.552   5.090  0.00  0.00    -0.486 OA
BRANCH  16  17
ATOM     17  C   LIG    1       28.790 -19.536   5.766  0.00  0.00    +0.121 A 
ATOM     18  C   LIG    1       29.405 -20.583   6.456  0.00  0.00    +0.045 A 
ATOM     19  C   LIG    1       28.629 -21.572   7.062  0.00  0.00    +0.004 A 
ATOM     20  C   LIG    1       27.238 -21.505   6.998  0.00  0.00    +0.000 A 
ATOM     21  C   LIG    1       26.622 -20.437   6.348  0.00  0.00    +0.004 A 
ATOM     22  C   LIG    1       27.398 -19.449   5.742  0.00  0.00    +0.045 A 
ENDBRANCH  16  17
ENDBRANCH  15  16
ENDBRANCH  12  15
ENDBRANCH  11  12
ENDBRANCH   5  10
BRANCH   1  23
ATOM     23  C   LIG    1       22.975 -14.100   4.851  0.00  0.00    +0.033 C 
BRANCH  23  25
ATOM     24  C   LIG    1       22.511 -16.488   4.175  0.00  0.00    -0.031 C 
ATOM     25  C   LIG    1       22.632 -15.543   5.122  0.00  0.00    -0.031 C 
BRANCH  24  26
ATOM     26  C   LIG    1       22.090 -17.924   4.382  0.00  0.00    +0.027 C 
BRANCH  26  27
ATOM     27  C   LIG    1       22.327 -18.513   5.783  0.00  0.00    +0.015 C 
BRANCH  27  28
ATOM     28  C   LIG    1       23.153 -19.804   5.763  0.00  0.00    +0.121 C 
BRANCH  28  29
ATOM     29  C   LIG    1       22.546 -20.840   4.863  0.00  0.00    +0.307 C 
ATOM     30  O   LIG    1       21.504 -21.441   5.136  0.00  0.00    -0.251 OA
BRANCH  29  31
ATOM     31  O   LIG    1       23.329 -21.077   3.783  0.00  0.00    -0.462 OA
BRANCH  31  33
ATOM     32  C   LIG    1       25.752 -20.913   3.831  0.00  0.00    +0.051 C 
ATOM     33  C   LIG    1       24.437 -20.190   3.591  0.00  0.00    +0.170 C 
ATOM     34  C   LIG    1       24.333 -19.678   2.159  0.00  0.00    +0.051 C 
ENDBRANCH  31  33
ENDBRANCH  29  31
ENDBRANCH  28  29
ENDBRANCH  27  28
ENDBRANCH  26  27
ENDBRANCH  24  26
ENDBRANCH  23  25
ENDBRANCH   1  23
TORSDOF 15
ENDMDL
