MODEL 1
REMARK VINA RESULT:      -1.6      0.000      0.000
REMARK  Name = *****
REMARK                            x       y       z     vdW  Elec       q    Type
REMARK                         _______ _______ _______ _____ _____    ______ ____
ROOT
ATOM      1  C   LIG    1       25.672 -20.308   6.766  0.00  0.00    +0.018 C 
ATOM      2  C   LIG    1       25.958 -20.571   5.219  0.00  0.00    +0.009 C 
ATOM      3  C   LIG    1       26.428 -19.716   3.921  0.00  0.00    +0.064 C 
ATOM      4  C   LIG    1       26.214 -18.189   4.180  0.00  0.00    +0.011 C 
ATOM      5  C   LIG    1       24.902 -17.754   3.684  0.00  0.00    +0.040 C 
ATOM      6  C   LIG    1       23.952 -18.773   4.293  0.00  0.00    -0.043 A 
ATOM      7  C   LIG    1       22.611 -18.454   4.037  0.00  0.00    +0.007 A 
ATOM      8  C   LIG    1       21.648 -19.402   4.308  0.00  0.00    +0.045 A 
ATOM      9  C   LIG    1       21.975 -20.632   4.816  0.00  0.00    +0.117 A 
ATOM     10  C   LIG    1       23.314 -20.968   5.106  0.00  0.00    +0.049 A 
ATOM     11  C   LIG    1       27.475 -17.319   3.915  0.00  0.00    +0.005 C 
ATOM     12  C   LIG    1       28.350 -17.618   5.153  0.00  0.00    +0.000 C 
ATOM     13  C   LIG    1       29.453 -18.571   5.565  0.00  0.00    +0.000 C 
ATOM     14  C   LIG    1       28.778 -19.823   6.336  0.00  0.00    +0.001 C 
ATOM     15  C   LIG    1       24.385 -20.048   4.892  0.00  0.00    -0.033 A 
ATOM     16  C   LIG    1       27.675 -20.812   5.614  0.00  0.00    +0.013 C 
ENDROOT
BRANCH   3  17
ATOM     17  N   LIG    1       25.929 -20.315   2.639  0.00  0.00    -0.326 NA
ATOM     18  H   LIG    1       25.069 -19.827   2.380  0.00  0.00    +0.118 HD
ATOM     19  H   LIG    1       26.566 -20.077   1.875  0.00  0.00    +0.118 HD
ENDBRANCH   3  17
BRANCH   9  20
ATOM     20  O   LIG    1       20.994 -21.572   5.025  0.00  0.00    -0.507 OA
ATOM     21  H   LIG    1       20.906 -21.710   5.968  0.00  0.00    +0.292 HD
ENDBRANCH   9  20
TORSDOF 2
ENDMDL
MODEL 2
REMARK VINA RESULT:      -0.1      2.596      5.320
REMARK  Name = *****
REMARK                            x       y       z     vdW  Elec       q    Type
REMARK                         _______ _______ _______ _____ _____    ______ ____
ROOT
ATOM      1  C   LIG    1       23.260 -17.417   4.649  0.00  0.00    +0.018 C 
ATOM      2  C   LIG    1       23.896 -18.386   3.555  0.00  0.00    +0.009 C 
ATOM      3  C   LIG    1       24.824 -19.718   3.523  0.00  0.00    +0.064 C 
ATOM      4  C   LIG    1       25.559 -19.892   4.892  0.00  0.00    +0.011 C 
ATOM      5  C   LIG    1       26.887 -19.266   4.857  0.00  0.00    +0.040 C 
ATOM      6  C   LIG    1       26.592 -17.875   4.318  0.00  0.00    -0.043 A 
ATOM      7  C   LIG    1       27.735 -17.061   4.325  0.00  0.00    +0.007 A 
ATOM      8  C   LIG    1       27.691 -15.863   3.645  0.00  0.00    +0.045 A 
ATOM      9  C   LIG    1       26.567 -15.461   2.972  0.00  0.00    +0.117 A 
ATOM     10  C   LIG    1       25.397 -16.250   2.971  0.00  0.00    +0.049 A 
ATOM     11  C   LIG    1       25.376 -21.296   5.535  0.00  0.00    +0.005 C 
ATOM     12  C   LIG    1       23.933 -21.225   6.082  0.00  0.00    +0.000 C 
ATOM     13  C   LIG    1       22.527 -21.570   5.635  0.00  0.00    +0.000 C 
ATOM     14  C   LIG    1       21.849 -20.234   5.023  0.00  0.00    +0.001 C 
ATOM     15  C   LIG    1       25.326 -17.492   3.669  0.00  0.00    -0.033 A 
ATOM     16  C   LIG    1       22.477 -19.445   3.719  0.00  0.00    +0.013 C 
ENDROOT
BRANCH   3  17
ATOM     17  N   LIG    1       25.616 -19.825   2.253  0.00  0.00    -0.326 NA
ATOM     18  H   LIG    1       24.990 -20.166   1.521  0.00  0.00    +0.118 HD
ATOM     19  H   LIG    1       25.869 -18.891   1.923  0.00  0.00    +0.118 HD
ENDBRANCH   3  17
BRANCH   9  20
ATOM     20  O   LIG    1       26.576 -14.285   2.261  0.00  0.00    -0.507 OA
ATOM     21  H   LIG    1       27.057 -14.429   1.446  0.00  0.00    +0.292 HD
ENDBRANCH   9  20
TORSDOF 2
ENDMDL
MODEL 3
REMARK VINA RESULT:       1.1      2.383      5.676
REMARK  Name = *****
REMARK                            x       y       z     vdW  Elec       q    Type
REMARK                         _______ _______ _______ _____ _____    ______ ____
ROOT
ATOM      1  C   LIG    1       24.327 -17.692   4.406  0.00  0.00    +0.018 C 
ATOM      2  C   LIG    1       24.536 -19.076   3.642  0.00  0.00    +0.009 C 
ATOM      3  C   LIG    1       24.107 -20.631   3.831  0.00  0.00    +0.064 C 
ATOM      4  C   LIG    1       23.674 -20.891   5.310  0.00  0.00    +0.011 C 
ATOM      5  C   LIG    1       24.809 -21.363   6.113  0.00  0.00    +0.040 C 
ATOM      6  C   LIG    1       25.893 -20.343   5.802  0.00  0.00    -0.043 A 
ATOM      7  C   LIG    1       27.042 -20.549   6.580  0.00  0.00    +0.007 A 
ATOM      8  C   LIG    1       28.192 -19.868   6.245  0.00  0.00    +0.045 A 
ATOM      9  C   LIG    1       28.231 -19.007   5.180  0.00  0.00    +0.117 A 
ATOM     10  C   LIG    1       27.084 -18.764   4.397  0.00  0.00    +0.049 A 
ATOM     11  C   LIG    1       22.283 -21.570   5.452  0.00  0.00    +0.005 C 
ATOM     12  C   LIG    1       21.313 -20.406   5.154  0.00  0.00    +0.000 C 
ATOM     13  C   LIG    1       20.576 -19.812   3.971  0.00  0.00    +0.000 C 
ATOM     14  C   LIG    1       21.460 -18.591   3.384  0.00  0.00    +0.001 C 
ATOM     15  C   LIG    1       25.834 -19.393   4.677  0.00  0.00    -0.033 A 
ATOM     16  C   LIG    1       22.989 -18.808   2.807  0.00  0.00    +0.013 C 
ENDROOT
BRANCH   3  17
ATOM     17  N   LIG    1       25.083 -21.569   3.183  0.00  0.00    -0.326 NA
ATOM     18  H   LIG    1       24.729 -22.520   3.302  0.00  0.00    +0.118 HD
ATOM     19  H   LIG    1       25.062 -21.443   2.168  0.00  0.00    +0.118 HD
ENDBRANCH   3  17
BRANCH   9  20
ATOM     20  O   LIG    1       29.410 -18.385   4.843  0.00  0.00    -0.507 OA
ATOM     21  H   LIG    1       29.212 -17.677   4.230  0.00  0.00    +0.292 HD
ENDBRANCH   9  20
TORSDOF 2
ENDMDL
MODEL 4
REMARK VINA RESULT:       1.3      3.530      4.911
REMARK  Name = *****
REMARK                            x       y       z     vdW  Elec       q    Type
REMARK                         _______ _______ _______ _____ _____    ______ ____
ROOT
ATOM      1  C   LIG    1       27.490 -16.236   4.500  0.00  0.00    +0.018 C 
ATOM      2  C   LIG    1       26.748 -15.519   3.284  0.00  0.00    +0.009 C 
ATOM      3  C   LIG    1       25.682 -14.314   3.067  0.00  0.00    +0.064 C 
ATOM      4  C   LIG    1       24.936 -14.012   4.408  0.00  0.00    +0.011 C 
ATOM      5  C   LIG    1       23.684 -14.774   4.494  0.00  0.00    +0.040 C 
ATOM      6  C   LIG    1       24.126 -16.192   4.168  0.00  0.00    -0.043 A 
ATOM      7  C   LIG    1       23.079 -17.113   4.321  0.00  0.00    +0.007 A 
ATOM      8  C   LIG    1       23.251 -18.389   3.830  0.00  0.00    +0.045 A 
ATOM      9  C   LIG    1       24.410 -18.767   3.205  0.00  0.00    +0.117 A 
ATOM     10  C   LIG    1       25.487 -17.868   3.060  0.00  0.00    +0.049 A 
ATOM     11  C   LIG    1       24.968 -12.515   4.826  0.00  0.00    +0.005 C 
ATOM     12  C   LIG    1       26.412 -12.347   5.350  0.00  0.00    +0.000 C 
ATOM     13  C   LIG    1       27.770 -11.926   4.828  0.00  0.00    +0.000 C 
ATOM     14  C   LIG    1       28.588 -13.260   4.413  0.00  0.00    +0.001 C 
ATOM     15  C   LIG    1       25.425 -16.532   3.560  0.00  0.00    -0.033 A 
ATOM     16  C   LIG    1       28.045 -14.302   3.257  0.00  0.00    +0.013 C 
ENDROOT
BRANCH   3  17
ATOM     17  N   LIG    1       24.879 -14.488   1.812  0.00  0.00    -0.326 NA
ATOM     18  H   LIG    1       25.532 -14.565   1.030  0.00  0.00    +0.118 HD
ATOM     19  H   LIG    1       24.421 -15.403   1.818  0.00  0.00    +0.118 HD
ENDBRANCH   3  17
BRANCH   9  20
ATOM     20  O   LIG    1       24.526 -20.033   2.681  0.00  0.00    -0.507 OA
ATOM     21  H   LIG    1       23.653 -20.424   2.644  0.00  0.00    +0.292 HD
ENDBRANCH   9  20
TORSDOF 2
ENDMDL
