MODEL 1
REMARK VINA RESULT:      -7.1      0.000      0.000
REMARK  Name = *****
REMARK                            x       y       z     vdW  Elec       q    Type
REMARK                         _______ _______ _______ _____ _____    ______ ____
ROOT
ATOM      1  N   LIG    1       27.649 -20.796   7.937  0.00  0.00    -0.297 N 
ATOM      2  C   LIG    1       27.875 -22.210   7.594  0.00  0.00    +0.123 C 
ATOM      3  C   LIG    1       26.713 -23.097   8.086  0.00  0.00    +0.104 C 
ATOM      4  N   LIG    1       25.345 -22.658   7.677  0.00  0.00    -0.289 NA
ATOM      5  C   LIG    1       25.215 -21.263   8.163  0.00  0.00    +0.104 C 
ATOM      6  C   LIG    1       26.303 -20.276   7.675  0.00  0.00    +0.123 C 
ENDROOT
BRANCH   1   9
ATOM      7  C   LIG    1       30.724 -19.028   7.732  0.00  0.00    +0.221 A 
ATOM      8  N   LIG    1       29.803 -19.860   8.208  0.00  0.00    -0.181 NA
ATOM      9  C   LIG    1       28.681 -19.952   7.496  0.00  0.00    +0.224 A 
ATOM     10  N   LIG    1       28.486 -19.280   6.378  0.00  0.00    -0.181 NA
ATOM     11  C   LIG    1       29.462 -18.492   5.955  0.00  0.00    +0.221 A 
ATOM     12  N   LIG    1       30.611 -18.363   6.597  0.00  0.00    -0.181 NA
BRANCH   7  13
ATOM     13  N   LIG    1       31.855 -18.847   8.526  0.00  0.00    -0.310 N 
ATOM     14  H   LIG    1       32.639 -19.282   8.062  0.00  0.00    +0.149 HD
BRANCH  13  15
ATOM     15  C   LIG    1       32.032 -17.492   8.995  0.00  0.00    +0.131 C 
BRANCH  15  17
ATOM     16  C   LIG    1       30.446 -17.329  10.931  0.00  0.00    +0.005 C 
ATOM     17  C   LIG    1       31.694 -17.449  10.456  0.00  0.00    -0.016 C 
ENDBRANCH  15  17
ENDBRANCH  13  15
ENDBRANCH   7  13
BRANCH  11  18
ATOM     18  N   LIG    1       29.294 -17.737   4.814  0.00  0.00    -0.310 N 
ATOM     19  H   LIG    1       29.965 -18.043   4.116  0.00  0.00    +0.149 HD
BRANCH  18  20
ATOM     20  C   LIG    1       27.939 -17.501   4.380  0.00  0.00    +0.131 C 
BRANCH  20  21
ATOM     21  C   LIG    1       27.779 -16.019   4.224  0.00  0.00    -0.016 C 
ATOM     22  C   LIG    1       26.812 -15.455   3.490  0.00  0.00    +0.005 C 
ENDBRANCH  20  21
ENDBRANCH  18  20
ENDBRANCH  11  18
ENDBRANCH   1   9
BRANCH   4  23
ATOM     23  C   LIG    1       25.105 -22.839   6.208  0.00  0.00    +0.117 C 
BRANCH  23  24
ATOM     24  C   LIG    1       23.982 -21.953   5.622  0.00  0.00    -0.026 A 
ATOM     25  C   LIG    1       22.620 -22.218   5.857  0.00  0.00    +0.008 A 
ATOM     26  C   LIG    1       21.620 -21.418   5.287  0.00  0.00    +0.039 A 
ATOM     27  C   LIG    1       21.971 -20.331   4.497  0.00  0.00    +0.123 A 
ATOM     28  F   LIG    1       21.014 -19.556   3.968  0.00  0.00    -0.205 F 
ATOM     29  C   LIG    1       23.304 -20.042   4.245  0.00  0.00    +0.039 A 
ATOM     30  C   LIG    1       24.305 -20.861   4.787  0.00  0.00    +0.008 A 
ENDBRANCH  23  24
BRANCH  23  31
ATOM     31  C   LIG    1       24.849 -24.320   5.849  0.00  0.00    -0.026 A 
ATOM     32  C   LIG    1       24.305 -25.223   6.789  0.00  0.00    +0.008 A 
ATOM     33  C   LIG    1       24.140 -26.573   6.481  0.00  0.00    +0.039 A 
ATOM     34  C   LIG    1       24.478 -27.028   5.215  0.00  0.00    +0.123 A 
ATOM     35  F   LIG    1       24.317 -28.324   4.916  0.00  0.00    -0.205 F 
ATOM     36  C   LIG    1       24.977 -26.158   4.253  0.00  0.00    +0.039 A 
ATOM     37  C   LIG    1       25.165 -24.807   4.567  0.00  0.00    +0.008 A 
ENDBRANCH  23  31
ENDBRANCH   4  23
TORSDOF 10
ENDMDL
MODEL 2
REMARK VINA RESULT:      -6.8      0.248      3.456
REMARK  Name = *****
REMARK                            x       y       z     vdW  Elec       q    Type
REMARK                         _______ _______ _______ _____ _____    ______ ____
ROOT
ATOM      1  N   LIG    1       27.576 -20.772   7.988  0.00  0.00    -0.297 N 
ATOM      2  C   LIG    1       27.881 -22.169   7.638  0.00  0.00    +0.123 C 
ATOM      3  C   LIG    1       26.760 -23.120   8.104  0.00  0.00    +0.104 C 
ATOM      4  N   LIG    1       25.377 -22.749   7.677  0.00  0.00    -0.289 NA
ATOM      5  C   LIG    1       25.167 -21.366   8.172  0.00  0.00    +0.104 C 
ATOM      6  C   LIG    1       26.209 -20.321   7.709  0.00  0.00    +0.123 C 
ENDROOT
BRANCH   1   9
ATOM      7  C   LIG    1       29.428 -18.419   6.075  0.00  0.00    +0.221 A 
ATOM      8  N   LIG    1       28.437 -19.241   6.405  0.00  0.00    -0.181 NA
ATOM      9  C   LIG    1       28.570 -19.872   7.570  0.00  0.00    +0.224 A 
ATOM     10  N   LIG    1       29.605 -19.691   8.367  0.00  0.00    -0.181 NA
ATOM     11  C   LIG    1       30.538 -18.836   7.980  0.00  0.00    +0.221 A 
ATOM     12  N   LIG    1       30.467 -18.158   6.846  0.00  0.00    -0.181 NA
BRANCH   7  13
ATOM     13  N   LIG    1       29.346 -17.837   4.811  0.00  0.00    -0.310 N 
ATOM     14  H   LIG    1       29.925 -18.371   4.180  0.00  0.00    +0.149 HD
BRANCH  13  15
ATOM     15  C   LIG    1       27.996 -17.546   4.385  0.00  0.00    +0.131 C 
BRANCH  15  17
ATOM     16  C   LIG    1       26.907 -15.455   3.532  0.00  0.00    +0.005 C 
ATOM     17  C   LIG    1       27.845 -16.058   4.276  0.00  0.00    -0.016 C 
ENDBRANCH  15  17
ENDBRANCH  13  15
ENDBRANCH   7  13
BRANCH  11  18
ATOM     18  N   LIG    1       31.661 -18.641   8.757  0.00  0.00    -0.310 N 
ATOM     19  H   LIG    1       32.408 -19.233   8.407  0.00  0.00    +0.149 HD
BRANCH  18  20
ATOM     20  C   LIG    1       31.992 -17.280   9.097  0.00  0.00    +0.131 C 
BRANCH  20  21
ATOM     21  C   LIG    1       31.014 -16.839  10.145  0.00  0.00    -0.016 C 
ATOM     22  C   LIG    1       30.889 -17.436  11.336  0.00  0.00    +0.005 C 
ENDBRANCH  20  21
ENDBRANCH  18  20
ENDBRANCH  11  18
ENDBRANCH   1   9
BRANCH   4  23
ATOM     23  C   LIG    1       25.169 -22.929   6.203  0.00  0.00    +0.117 C 
BRANCH  23  24
ATOM     24  C   LIG    1       24.084 -22.018   5.586  0.00  0.00    -0.026 A 
ATOM     25  C   LIG    1       24.405 -20.944   4.733  0.00  0.00    +0.008 A 
ATOM     26  C   LIG    1       23.404 -20.113   4.212  0.00  0.00    +0.039 A 
ATOM     27  C   LIG    1       22.072 -20.360   4.516  0.00  0.00    +0.123 A 
ATOM     28  F   LIG    1       21.115 -19.575   4.002  0.00  0.00    -0.205 F 
ATOM     29  C   LIG    1       21.721 -21.409   5.354  0.00  0.00    +0.039 A 
ATOM     30  C   LIG    1       22.723 -22.222   5.902  0.00  0.00    +0.008 A 
ENDBRANCH  23  24
BRANCH  23  31
ATOM     31  C   LIG    1       24.885 -24.405   5.843  0.00  0.00    -0.026 A 
ATOM     32  C   LIG    1       24.296 -25.291   6.772  0.00  0.00    +0.008 A 
ATOM     33  C   LIG    1       24.105 -26.638   6.464  0.00  0.00    +0.039 A 
ATOM     34  C   LIG    1       24.462 -27.106   5.208  0.00  0.00    +0.123 A 
ATOM     35  F   LIG    1       24.276 -28.398   4.909  0.00  0.00    -0.205 F 
ATOM     36  C   LIG    1       25.006 -26.251   4.256  0.00  0.00    +0.039 A 
ATOM     37  C   LIG    1       25.220 -24.904   4.570  0.00  0.00    +0.008 A 
ENDBRANCH  23  31
ENDBRANCH   4  23
TORSDOF 10
ENDMDL
MODEL 3
REMARK VINA RESULT:      -6.7      4.271      8.259
REMARK  Name = *****
REMARK                            x       y       z     vdW  Elec       q    Type
REMARK                         _______ _______ _______ _____ _____    ______ ____
ROOT
ATOM      1  N   LIG    1       25.260 -26.037   6.396  0.00  0.00    -0.297 N 
ATOM      2  C   LIG    1       24.027 -26.841   6.405  0.00  0.00    +0.123 C 
ATOM      3  C   LIG    1       24.328 -28.330   6.138  0.00  0.00    +0.104 C 
ATOM      4  N   LIG    1       25.376 -28.945   7.009  0.00  0.00    -0.289 NA
ATOM      5  C   LIG    1       26.582 -28.100   6.833  0.00  0.00    +0.104 C 
ATOM      6  C   LIG    1       26.398 -26.593   7.135  0.00  0.00    +0.123 C 
ENDROOT
BRANCH   1   9
ATOM      7  C   LIG    1       23.779 -22.809   6.458  0.00  0.00    +0.221 A 
ATOM      8  N   LIG    1       23.914 -24.104   6.194  0.00  0.00    -0.181 NA
ATOM      9  C   LIG    1       25.029 -24.675   6.646  0.00  0.00    +0.224 A 
ATOM     10  N   LIG    1       25.944 -24.015   7.330  0.00  0.00    -0.181 NA
ATOM     11  C   LIG    1       25.724 -22.733   7.575  0.00  0.00    +0.221 A 
ATOM     12  N   LIG    1       24.633 -22.101   7.176  0.00  0.00    -0.181 NA
BRANCH   7  13
ATOM     13  N   LIG    1       22.667 -22.182   5.898  0.00  0.00    -0.310 N 
ATOM     14  H   LIG    1       22.055 -21.897   6.648  0.00  0.00    +0.149 HD
BRANCH  13  15
ATOM     15  C   LIG    1       22.994 -21.192   4.897  0.00  0.00    +0.131 C 
BRANCH  15  17
ATOM     16  C   LIG    1       22.421 -18.770   4.593  0.00  0.00    +0.005 C 
ATOM     17  C   LIG    1       22.501 -19.858   5.373  0.00  0.00    -0.016 C 
ENDBRANCH  15  17
ENDBRANCH  13  15
ENDBRANCH   7  13
BRANCH  11  18
ATOM     18  N   LIG    1       26.667 -21.987   8.250  0.00  0.00    -0.310 N 
ATOM     19  H   LIG    1       27.569 -22.445   8.165  0.00  0.00    +0.149 HD
BRANCH  18  20
ATOM     20  C   LIG    1       26.624 -20.558   8.066  0.00  0.00    +0.131 C 
BRANCH  20  21
ATOM     21  C   LIG    1       27.788 -20.192   7.194  0.00  0.00    -0.016 C 
ATOM     22  C   LIG    1       29.011 -20.719   7.336  0.00  0.00    +0.005 C 
ENDBRANCH  20  21
ENDBRANCH  18  20
ENDBRANCH  11  18
ENDBRANCH   1   9
BRANCH   4  23
ATOM     23  C   LIG    1       24.917 -29.102   8.427  0.00  0.00    +0.117 C 
BRANCH  23  24
ATOM     24  C   LIG    1       26.054 -29.145   9.474  0.00  0.00    -0.026 A 
ATOM     25  C   LIG    1       26.893 -30.266   9.621  0.00  0.00    +0.008 A 
ATOM     26  C   LIG    1       27.896 -30.293  10.600  0.00  0.00    +0.039 A 
ATOM     27  C   LIG    1       28.086 -29.192  11.425  0.00  0.00    +0.123 A 
ATOM     28  F   LIG    1       29.058 -29.213  12.348  0.00  0.00    -0.205 F 
ATOM     29  C   LIG    1       27.276 -28.072  11.307  0.00  0.00    +0.039 A 
ATOM     30  C   LIG    1       26.252 -28.056  10.350  0.00  0.00    +0.008 A 
ENDBRANCH  23  24
BRANCH  23  31
ATOM     31  C   LIG    1       23.996 -30.332   8.597  0.00  0.00    -0.026 A 
ATOM     32  C   LIG    1       23.074 -30.419   9.663  0.00  0.00    +0.008 A 
ATOM     33  C   LIG    1       22.294 -31.560   9.850  0.00  0.00    +0.039 A 
ATOM     34  C   LIG    1       22.398 -32.611   8.950  0.00  0.00    +0.123 A 
ATOM     35  F   LIG    1       21.648 -33.706   9.126  0.00  0.00    -0.205 F 
ATOM     36  C   LIG    1       23.267 -32.539   7.867  0.00  0.00    +0.039 A 
ATOM     37  C   LIG    1       24.066 -31.404   7.690  0.00  0.00    +0.008 A 
ENDBRANCH  23  31
ENDBRANCH   4  23
TORSDOF 10
ENDMDL
MODEL 4
REMARK VINA RESULT:      -6.5      6.968     11.388
REMARK  Name = *****
REMARK                            x       y       z     vdW  Elec       q    Type
REMARK                         _______ _______ _______ _____ _____    ______ ____
ROOT
ATOM      1  N   LIG    1       25.344 -30.013   9.582  0.00  0.00    -0.297 N 
ATOM      2  C   LIG    1       24.148 -30.009  10.440  0.00  0.00    +0.123 C 
ATOM      3  C   LIG    1       24.510 -30.320  11.906  0.00  0.00    +0.104 C 
ATOM      4  N   LIG    1       25.596 -29.481  12.497  0.00  0.00    -0.289 NA
ATOM      5  C   LIG    1       26.762 -29.650  11.595  0.00  0.00    +0.104 C 
ATOM      6  C   LIG    1       26.516 -29.305  10.107  0.00  0.00    +0.123 C 
ENDROOT
BRANCH   1   9
ATOM      7  C   LIG    1       24.572 -30.363   6.132  0.00  0.00    +0.221 A 
ATOM      8  N   LIG    1       24.818 -30.720   7.388  0.00  0.00    -0.181 NA
ATOM      9  C   LIG    1       25.058 -29.723   8.238  0.00  0.00    +0.224 A 
ATOM     10  N   LIG    1       25.038 -28.455   7.877  0.00  0.00    -0.181 NA
ATOM     11  C   LIG    1       24.758 -28.179   6.613  0.00  0.00    +0.221 A 
ATOM     12  N   LIG    1       24.492 -29.112   5.715  0.00  0.00    -0.181 NA
BRANCH   7  13
ATOM     13  N   LIG    1       24.425 -31.403   5.217  0.00  0.00    -0.310 N 
ATOM     14  H   LIG    1       23.834 -31.082   4.465  0.00  0.00    +0.149 HD
BRANCH  13  15
ATOM     15  C   LIG    1       25.669 -32.044   4.852  0.00  0.00    +0.131 C 
BRANCH  15  17
ATOM     16  C   LIG    1       24.260 -33.820   3.781  0.00  0.00    +0.005 C 
ATOM     17  C   LIG    1       25.370 -33.454   4.437  0.00  0.00    -0.016 C 
ENDBRANCH  15  17
ENDBRANCH  13  15
ENDBRANCH   7  13
BRANCH  11  18
ATOM     18  N   LIG    1       24.765 -26.872   6.174  0.00  0.00    -0.310 N 
ATOM     19  H   LIG    1       23.887 -26.433   6.435  0.00  0.00    +0.149 HD
BRANCH  18  20
ATOM     20  C   LIG    1       25.976 -26.118   6.385  0.00  0.00    +0.131 C 
BRANCH  20  21
ATOM     21  C   LIG    1       25.569 -24.705   6.678  0.00  0.00    -0.016 C 
ATOM     22  C   LIG    1       24.305 -24.270   6.600  0.00  0.00    +0.005 C 
ENDBRANCH  20  21
ENDBRANCH  18  20
ENDBRANCH  11  18
ENDBRANCH   1   9
BRANCH   4  23
ATOM     23  C   LIG    1       25.166 -28.062  12.711  0.00  0.00    +0.117 C 
BRANCH  23  24
ATOM     24  C   LIG    1       26.213 -27.166  13.412  0.00  0.00    -0.026 A 
ATOM     25  C   LIG    1       27.052 -27.653  14.432  0.00  0.00    +0.008 A 
ATOM     26  C   LIG    1       27.971 -26.812  15.074  0.00  0.00    +0.039 A 
ATOM     27  C   LIG    1       28.079 -25.483  14.686  0.00  0.00    +0.123 A 
ATOM     28  F   LIG    1       28.972 -24.685  15.288  0.00  0.00    -0.205 F 
ATOM     29  C   LIG    1       27.267 -24.970  13.685  0.00  0.00    +0.039 A 
ATOM     30  C   LIG    1       26.325 -25.802  13.065  0.00  0.00    +0.008 A 
ENDBRANCH  23  24
BRANCH  23  31
ATOM     31  C   LIG    1       23.816 -27.980  13.461  0.00  0.00    -0.026 A 
ATOM     32  C   LIG    1       23.639 -28.585  14.725  0.00  0.00    +0.008 A 
ATOM     33  C   LIG    1       22.400 -28.567  15.366  0.00  0.00    +0.039 A 
ATOM     34  C   LIG    1       21.335 -27.907  14.770  0.00  0.00    +0.123 A 
ATOM     35  F   LIG    1       20.146 -27.886  15.385  0.00  0.00    -0.205 F 
ATOM     36  C   LIG    1       21.488 -27.267  13.545  0.00  0.00    +0.039 A 
ATOM     37  C   LIG    1       22.724 -27.303  12.890  0.00  0.00    +0.008 A 
ENDBRANCH  23  31
ENDBRANCH   4  23
TORSDOF 10
ENDMDL
MODEL 5
REMARK VINA RESULT:      -6.4      4.331      7.829
REMARK  Name = *****
REMARK                            x       y       z     vdW  Elec       q    Type
REMARK                         _______ _______ _______ _____ _____    ______ ____
ROOT
ATOM      1  N   LIG    1       25.309 -26.250   6.311  0.00  0.00    -0.297 N 
ATOM      2  C   LIG    1       24.016 -26.946   6.416  0.00  0.00    +0.123 C 
ATOM      3  C   LIG    1       24.183 -28.467   6.223  0.00  0.00    +0.104 C 
ATOM      4  N   LIG    1       25.214 -29.120   7.084  0.00  0.00    -0.289 NA
ATOM      5  C   LIG    1       26.477 -28.389   6.812  0.00  0.00    +0.104 C 
ATOM      6  C   LIG    1       26.430 -26.859   7.033  0.00  0.00    +0.123 C 
ENDROOT
BRANCH   1   9
ATOM      7  C   LIG    1       26.054 -22.871   7.118  0.00  0.00    +0.221 A 
ATOM      8  N   LIG    1       26.243 -24.177   6.961  0.00  0.00    -0.181 NA
ATOM      9  C   LIG    1       25.201 -24.862   6.491  0.00  0.00    +0.224 A 
ATOM     10  N   LIG    1       24.052 -24.292   6.181  0.00  0.00    -0.181 NA
ATOM     11  C   LIG    1       23.952 -22.982   6.341  0.00  0.00    +0.221 A 
ATOM     12  N   LIG    1       24.947 -22.233   6.784  0.00  0.00    -0.181 NA
BRANCH   7  13
ATOM     13  N   LIG    1       27.103 -22.167   7.708  0.00  0.00    -0.310 N 
ATOM     14  H   LIG    1       27.969 -22.614   7.446  0.00  0.00    +0.149 HD
BRANCH  13  15
ATOM     15  C   LIG    1       27.018 -20.735   7.536  0.00  0.00    +0.131 C 
BRANCH  15  17
ATOM     16  C   LIG    1       28.906 -19.506   6.435  0.00  0.00    +0.005 C 
ATOM     17  C   LIG    1       28.411 -20.181   7.482  0.00  0.00    -0.016 C 
ENDBRANCH  15  17
ENDBRANCH  13  15
ENDBRANCH   7  13
BRANCH  11  18
ATOM     18  N   LIG    1       22.761 -22.343   6.070  0.00  0.00    -0.310 N 
ATOM     19  H   LIG    1       22.002 -22.872   6.489  0.00  0.00    +0.149 HD
BRANCH  18  20
ATOM     20  C   LIG    1       22.738 -20.909   6.222  0.00  0.00    +0.131 C 
BRANCH  20  21
ATOM     21  C   LIG    1       22.564 -20.325   4.852  0.00  0.00    -0.016 C 
ATOM     22  C   LIG    1       22.430 -19.013   4.621  0.00  0.00    +0.005 C 
ENDBRANCH  20  21
ENDBRANCH  18  20
ENDBRANCH  11  18
ENDBRANCH   1   9
BRANCH   4  23
ATOM     23  C   LIG    1       24.809 -29.161   8.526  0.00  0.00    +0.117 C 
BRANCH  23  24
ATOM     24  C   LIG    1       25.985 -29.203   9.529  0.00  0.00    -0.026 A 
ATOM     25  C   LIG    1       26.802 -30.340   9.678  0.00  0.00    +0.008 A 
ATOM     26  C   LIG    1       27.842 -30.363  10.617  0.00  0.00    +0.039 A 
ATOM     27  C   LIG    1       28.093 -29.243  11.399  0.00  0.00    +0.123 A 
ATOM     28  F   LIG    1       29.100 -29.261  12.283  0.00  0.00    -0.205 F 
ATOM     29  C   LIG    1       27.307 -28.107  11.278  0.00  0.00    +0.039 A 
ATOM     30  C   LIG    1       26.246 -28.093  10.362  0.00  0.00    +0.008 A 
ENDBRANCH  23  24
BRANCH  23  31
ATOM     31  C   LIG    1       23.832 -30.324   8.812  0.00  0.00    -0.026 A 
ATOM     32  C   LIG    1       22.934 -30.281   9.902  0.00  0.00    +0.008 A 
ATOM     33  C   LIG    1       22.103 -31.362  10.195  0.00  0.00    +0.039 A 
ATOM     34  C   LIG    1       22.129 -32.482   9.377  0.00  0.00    +0.123 A 
ATOM     35  F   LIG    1       21.329 -33.519   9.655  0.00  0.00    -0.205 F 
ATOM     36  C   LIG    1       22.971 -32.539   8.272  0.00  0.00    +0.039 A 
ATOM     37  C   LIG    1       23.823 -31.465   7.989  0.00  0.00    +0.008 A 
ENDBRANCH  23  31
ENDBRANCH   4  23
TORSDOF 10
ENDMDL
MODEL 6
REMARK VINA RESULT:      -5.8      9.067     12.217
REMARK  Name = *****
REMARK                            x       y       z     vdW  Elec       q    Type
REMARK                         _______ _______ _______ _____ _____    ______ ____
ROOT
ATOM      1  N   LIG    1       24.814 -30.898  12.687  0.00  0.00    -0.297 N 
ATOM      2  C   LIG    1       23.953 -31.867  11.989  0.00  0.00    +0.123 C 
ATOM      3  C   LIG    1       22.815 -32.363  12.904  0.00  0.00    +0.104 C 
ATOM      4  N   LIG    1       22.000 -31.296  13.561  0.00  0.00    -0.289 NA
ATOM      5  C   LIG    1       22.973 -30.454  14.300  0.00  0.00    +0.104 C 
ATOM      6  C   LIG    1       24.125 -29.858  13.456  0.00  0.00    +0.123 C 
ENDROOT
BRANCH   1   9
ATOM      7  C   LIG    1       26.727 -29.871   9.874  0.00  0.00    +0.221 A 
ATOM      8  N   LIG    1       25.685 -30.322  10.565  0.00  0.00    -0.181 NA
ATOM      9  C   LIG    1       25.859 -30.414  11.882  0.00  0.00    +0.224 A 
ATOM     10  N   LIG    1       26.981 -30.066  12.482  0.00  0.00    -0.181 NA
ATOM     11  C   LIG    1       27.964 -29.600  11.727  0.00  0.00    +0.221 A 
ATOM     12  N   LIG    1       27.860 -29.463  10.416  0.00  0.00    -0.181 NA
BRANCH   7  13
ATOM     13  N   LIG    1       26.589 -29.872   8.487  0.00  0.00    -0.310 N 
ATOM     14  H   LIG    1       27.368 -30.378   8.093  0.00  0.00    +0.149 HD
BRANCH  13  15
ATOM     15  C   LIG    1       25.266 -30.233   8.029  0.00  0.00    +0.131 C 
BRANCH  15  17
ATOM     16  C   LIG    1       25.361 -27.931   7.041  0.00  0.00    +0.005 C 
ATOM     17  C   LIG    1       24.713 -29.088   7.233  0.00  0.00    -0.016 C 
ENDBRANCH  15  17
ENDBRANCH  13  15
ENDBRANCH   7  13
BRANCH  11  18
ATOM     18  N   LIG    1       29.172 -29.261  12.298  0.00  0.00    -0.310 N 
ATOM     19  H   LIG    1       29.389 -28.298  12.060  0.00  0.00    +0.149 HD
BRANCH  18  20
ATOM     20  C   LIG    1       29.389 -29.676  13.662  0.00  0.00    +0.131 C 
BRANCH  20  21
ATOM     21  C   LIG    1       30.872 -29.697  13.883  0.00  0.00    -0.016 C 
ATOM     22  C   LIG    1       31.767 -29.690  12.888  0.00  0.00    +0.005 C 
ENDBRANCH  20  21
ENDBRANCH  18  20
ENDBRANCH  11  18
ENDBRANCH   1   9
BRANCH   4  23
ATOM     23  C   LIG    1       21.140 -30.554  12.584  0.00  0.00    +0.117 C 
BRANCH  23  24
ATOM     24  C   LIG    1       20.507 -29.255  13.133  0.00  0.00    -0.026 A 
ATOM     25  C   LIG    1       19.438 -29.273  14.049  0.00  0.00    +0.008 A 
ATOM     26  C   LIG    1       18.861 -28.080  14.507  0.00  0.00    +0.039 A 
ATOM     27  C   LIG    1       19.362 -26.859  14.076  0.00  0.00    +0.123 A 
ATOM     28  F   LIG    1       18.820 -25.720  14.530  0.00  0.00    -0.205 F 
ATOM     29  C   LIG    1       20.414 -26.806  13.173  0.00  0.00    +0.039 A 
ATOM     30  C   LIG    1       20.971 -27.998  12.689  0.00  0.00    +0.008 A 
ENDBRANCH  23  24
BRANCH  23  31
ATOM     31  C   LIG    1       20.042 -31.462  11.984  0.00  0.00    -0.026 A 
ATOM     32  C   LIG    1       19.648 -31.348  10.633  0.00  0.00    +0.008 A 
ATOM     33  C   LIG    1       18.610 -32.123  10.116  0.00  0.00    +0.039 A 
ATOM     34  C   LIG    1       17.982 -33.051  10.934  0.00  0.00    +0.123 A 
ATOM     35  F   LIG    1       16.987 -33.799  10.438  0.00  0.00    -0.205 F 
ATOM     36  C   LIG    1       18.373 -33.217  12.257  0.00  0.00    +0.039 A 
ATOM     37  C   LIG    1       19.399 -32.424  12.784  0.00  0.00    +0.008 A 
ENDBRANCH  23  31
ENDBRANCH   4  23
TORSDOF 10
ENDMDL
MODEL 7
REMARK VINA RESULT:      -5.4      9.489     11.595
REMARK  Name = *****
REMARK                            x       y       z     vdW  Elec       q    Type
REMARK                         _______ _______ _______ _____ _____    ______ ____
ROOT
ATOM      1  N   LIG    1       25.962 -31.095  12.638  0.00  0.00    -0.297 N 
ATOM      2  C   LIG    1       26.181 -31.102  11.182  0.00  0.00    +0.123 C 
ATOM      3  C   LIG    1       25.488 -32.310  10.519  0.00  0.00    +0.104 C 
ATOM      4  N   LIG    1       24.040 -32.485  10.844  0.00  0.00    -0.289 NA
ATOM      5  C   LIG    1       23.973 -32.557  12.325  0.00  0.00    +0.104 C 
ATOM      6  C   LIG    1       24.591 -31.359  13.085  0.00  0.00    +0.123 C 
ENDROOT
BRANCH   1   9
ATOM      7  C   LIG    1       26.468 -28.002  14.312  0.00  0.00    +0.221 A 
ATOM      8  N   LIG    1       25.815 -29.005  13.734  0.00  0.00    -0.181 NA
ATOM      9  C   LIG    1       26.570 -30.003  13.278  0.00  0.00    +0.224 A 
ATOM     10  N   LIG    1       27.883 -30.019  13.401  0.00  0.00    -0.181 NA
ATOM     11  C   LIG    1       28.457 -28.996  14.013  0.00  0.00    +0.221 A 
ATOM     12  N   LIG    1       27.774 -27.978  14.508  0.00  0.00    -0.181 NA
BRANCH   7  13
ATOM     13  N   LIG    1       25.695 -26.908  14.696  0.00  0.00    -0.310 N 
ATOM     14  H   LIG    1       26.194 -26.405  15.414  0.00  0.00    +0.149 HD
BRANCH  13  15
ATOM     15  C   LIG    1       25.176 -26.139  13.588  0.00  0.00    +0.131 C 
BRANCH  15  17
ATOM     16  C   LIG    1       22.787 -26.846  13.302  0.00  0.00    +0.005 C 
ATOM     17  C   LIG    1       23.696 -25.980  13.774  0.00  0.00    -0.016 C 
ENDBRANCH  15  17
ENDBRANCH  13  15
ENDBRANCH   7  13
BRANCH  11  18
ATOM     18  N   LIG    1       29.830 -28.944  14.131  0.00  0.00    -0.310 N 
ATOM     19  H   LIG    1       30.079 -29.027  15.112  0.00  0.00    +0.149 HD
BRANCH  18  20
ATOM     20  C   LIG    1       30.597 -29.712  13.181  0.00  0.00    +0.131 C 
BRANCH  20  21
ATOM     21  C   LIG    1       32.027 -29.286  13.325  0.00  0.00    -0.016 C 
ATOM     22  C   LIG    1       32.825 -29.019  12.284  0.00  0.00    +0.005 C 
ENDBRANCH  20  21
ENDBRANCH  18  20
ENDBRANCH  11  18
ENDBRANCH   1   9
BRANCH   4  23
ATOM     23  C   LIG    1       23.185 -31.420  10.226  0.00  0.00    +0.117 C 
BRANCH  23  24
ATOM     24  C   LIG    1       21.674 -31.745  10.184  0.00  0.00    -0.026 A 
ATOM     25  C   LIG    1       20.694 -30.788  10.509  0.00  0.00    +0.008 A 
ATOM     26  C   LIG    1       19.332 -31.118  10.495  0.00  0.00    +0.039 A 
ATOM     27  C   LIG    1       18.934 -32.397  10.132  0.00  0.00    +0.123 A 
ATOM     28  F   LIG    1       17.629 -32.705  10.101  0.00  0.00    -0.205 F 
ATOM     29  C   LIG    1       19.874 -33.364   9.807  0.00  0.00    +0.039 A 
ATOM     30  C   LIG    1       21.238 -33.046   9.852  0.00  0.00    +0.008 A 
ENDBRANCH  23  24
BRANCH  23  31
ATOM     31  C   LIG    1       23.681 -31.038   8.813  0.00  0.00    -0.026 A 
ATOM     32  C   LIG    1       24.113 -29.728   8.512  0.00  0.00    +0.008 A 
ATOM     33  C   LIG    1       24.494 -29.372   7.219  0.00  0.00    +0.039 A 
ATOM     34  C   LIG    1       24.489 -30.334   6.219  0.00  0.00    +0.123 A 
ATOM     35  F   LIG    1       24.858 -29.995   4.977  0.00  0.00    -0.205 F 
ATOM     36  C   LIG    1       24.108 -31.643   6.491  0.00  0.00    +0.039 A 
ATOM     37  C   LIG    1       23.703 -31.997   7.783  0.00  0.00    +0.008 A 
ENDBRANCH  23  31
ENDBRANCH   4  23
TORSDOF 10
ENDMDL
MODEL 8
REMARK VINA RESULT:      -5.4     10.501     14.631
REMARK  Name = *****
REMARK                            x       y       z     vdW  Elec       q    Type
REMARK                         _______ _______ _______ _____ _____    ______ ____
ROOT
ATOM      1  N   LIG    1       20.365 -30.994  13.904  0.00  0.00    -0.297 N 
ATOM      2  C   LIG    1       20.756 -29.654  14.373  0.00  0.00    +0.123 C 
ATOM      3  C   LIG    1       22.237 -29.622  14.803  0.00  0.00    +0.104 C 
ATOM      4  N   LIG    1       23.214 -30.146  13.802  0.00  0.00    -0.289 NA
ATOM      5  C   LIG    1       22.761 -31.524  13.490  0.00  0.00    +0.104 C 
ATOM      6  C   LIG    1       21.302 -31.657  12.992  0.00  0.00    +0.123 C 
ENDROOT
BRANCH   1   9
ATOM      7  C   LIG    1       17.314 -32.120  12.474  0.00  0.00    +0.221 A 
ATOM      8  N   LIG    1       18.591 -32.141  12.843  0.00  0.00    -0.181 NA
ATOM      9  C   LIG    1       19.024 -31.062  13.493  0.00  0.00    +0.224 A 
ATOM     10  N   LIG    1       18.245 -30.036  13.776  0.00  0.00    -0.181 NA
ATOM     11  C   LIG    1       16.978 -30.103  13.397  0.00  0.00    +0.221 A 
ATOM     12  N   LIG    1       16.470 -31.147  12.765  0.00  0.00    -0.181 NA
BRANCH   7  13
ATOM     13  N   LIG    1       16.882 -33.197  11.702  0.00  0.00    -0.310 N 
ATOM     14  H   LIG    1       15.990 -32.957  11.297  0.00  0.00    +0.149 HD
BRANCH  13  15
ATOM     15  C   LIG    1       17.893 -33.727  10.815  0.00  0.00    +0.131 C 
BRANCH  15  17
ATOM     16  C   LIG    1       17.752 -33.642   8.313  0.00  0.00    +0.005 C 
ATOM     17  C   LIG    1       17.785 -33.016   9.498  0.00  0.00    -0.016 C 
ENDBRANCH  15  17
ENDBRANCH  13  15
ENDBRANCH   7  13
BRANCH  11  18
ATOM     18  N   LIG    1       16.132 -29.040  13.632  0.00  0.00    -0.310 N 
ATOM     19  H   LIG    1       15.172 -29.361  13.552  0.00  0.00    +0.149 HD
BRANCH  18  20
ATOM     20  C   LIG    1       16.457 -28.178  14.742  0.00  0.00    +0.131 C 
BRANCH  20  21
ATOM     21  C   LIG    1       16.664 -26.803  14.183  0.00  0.00    -0.016 C 
ATOM     22  C   LIG    1       17.867 -26.225  14.073  0.00  0.00    +0.005 C 
ENDBRANCH  20  21
ENDBRANCH  18  20
ENDBRANCH  11  18
ENDBRANCH   1   9
BRANCH   4  23
ATOM     23  C   LIG    1       23.349 -29.244  12.612  0.00  0.00    +0.117 C 
BRANCH  23  24
ATOM     24  C   LIG    1       24.070 -29.874  11.399  0.00  0.00    -0.026 A 
ATOM     25  C   LIG    1       25.407 -30.311  11.467  0.00  0.00    +0.008 A 
ATOM     26  C   LIG    1       26.048 -30.850  10.343  0.00  0.00    +0.039 A 
ATOM     27  C   LIG    1       25.352 -30.982   9.148  0.00  0.00    +0.123 A 
ATOM     28  F   LIG    1       25.962 -31.514   8.079  0.00  0.00    -0.205 F 
ATOM     29  C   LIG    1       24.035 -30.561   9.047  0.00  0.00    +0.039 A 
ATOM     30  C   LIG    1       23.402 -29.991  10.160  0.00  0.00    +0.008 A 
ENDBRANCH  23  24
BRANCH  23  31
ATOM     31  C   LIG    1       24.020 -27.903  12.986  0.00  0.00    -0.026 A 
ATOM     32  C   LIG    1       25.425 -27.755  12.979  0.00  0.00    +0.008 A 
ATOM     33  C   LIG    1       26.027 -26.563  13.382  0.00  0.00    +0.039 A 
ATOM     34  C   LIG    1       25.231 -25.492  13.758  0.00  0.00    +0.123 A 
ATOM     35  F   LIG    1       25.807 -24.346  14.142  0.00  0.00    -0.205 F 
ATOM     36  C   LIG    1       23.844 -25.591  13.737  0.00  0.00    +0.039 A 
ATOM     37  C   LIG    1       23.238 -26.793  13.354  0.00  0.00    +0.008 A 
ENDBRANCH  23  31
ENDBRANCH   4  23
TORSDOF 10
ENDMDL
MODEL 9
REMARK VINA RESULT:      -5.4      9.327     11.728
REMARK  Name = *****
REMARK                            x       y       z     vdW  Elec       q    Type
REMARK                         _______ _______ _______ _____ _____    ______ ____
ROOT
ATOM      1  N   LIG    1       24.977 -30.916  13.087  0.00  0.00    -0.297 N 
ATOM      2  C   LIG    1       24.166 -31.892  12.340  0.00  0.00    +0.123 C 
ATOM      3  C   LIG    1       22.950 -32.357  13.167  0.00  0.00    +0.104 C 
ATOM      4  N   LIG    1       22.095 -31.268  13.729  0.00  0.00    -0.289 NA
ATOM      5  C   LIG    1       23.012 -30.419  14.530  0.00  0.00    +0.104 C 
ATOM      6  C   LIG    1       24.237 -29.853  13.773  0.00  0.00    +0.123 C 
ENDROOT
BRANCH   1   9
ATOM      7  C   LIG    1       28.234 -29.770  12.249  0.00  0.00    +0.221 A 
ATOM      8  N   LIG    1       27.234 -30.215  13.002  0.00  0.00    -0.181 NA
ATOM      9  C   LIG    1       26.091 -30.460  12.364  0.00  0.00    +0.224 A 
ATOM     10  N   LIG    1       25.949 -30.295  11.062  0.00  0.00    -0.181 NA
ATOM     11  C   LIG    1       27.001 -29.875  10.377  0.00  0.00    +0.221 A 
ATOM     12  N   LIG    1       28.173 -29.628  10.937  0.00  0.00    -0.181 NA
BRANCH   7  13
ATOM     13  N   LIG    1       29.398 -29.411  12.926  0.00  0.00    -0.310 N 
ATOM     14  H   LIG    1       29.874 -28.706  12.383  0.00  0.00    +0.149 HD
BRANCH  13  15
ATOM     15  C   LIG    1       29.200 -29.143  14.332  0.00  0.00    +0.131 C 
BRANCH  15  17
ATOM     16  C   LIG    1       31.375 -28.196  15.144  0.00  0.00    +0.005 C 
ATOM     17  C   LIG    1       30.529 -29.228  15.022  0.00  0.00    -0.016 C 
ENDBRANCH  15  17
ENDBRANCH  13  15
ENDBRANCH   7  13
BRANCH  11  18
ATOM     18  N   LIG    1       26.895 -29.647   9.021  0.00  0.00    -0.310 N 
ATOM     19  H   LIG    1       26.555 -30.492   8.572  0.00  0.00    +0.149 HD
BRANCH  18  20
ATOM     20  C   LIG    1       26.311 -28.393   8.613  0.00  0.00    +0.131 C 
BRANCH  20  21
ATOM     21  C   LIG    1       25.247 -28.711   7.607  0.00  0.00    -0.016 C 
ATOM     22  C   LIG    1       24.650 -29.906   7.516  0.00  0.00    +0.005 C 
ENDBRANCH  20  21
ENDBRANCH  18  20
ENDBRANCH  11  18
ENDBRANCH   1   9
BRANCH   4  23
ATOM     23  C   LIG    1       21.329 -30.539  12.667  0.00  0.00    +0.117 C 
BRANCH  23  24
ATOM     24  C   LIG    1       20.662 -29.225  13.135  0.00  0.00    -0.026 A 
ATOM     25  C   LIG    1       21.107 -27.963  12.697  0.00  0.00    +0.008 A 
ATOM     26  C   LIG    1       20.506 -26.785  13.162  0.00  0.00    +0.039 A 
ATOM     27  C   LIG    1       19.439 -26.857  14.048  0.00  0.00    +0.123 A 
ATOM     28  F   LIG    1       18.854 -25.729  14.476  0.00  0.00    -0.205 F 
ATOM     29  C   LIG    1       18.977 -28.084  14.500  0.00  0.00    +0.039 A 
ATOM     30  C   LIG    1       19.598 -29.262  14.062  0.00  0.00    +0.008 A 
ENDBRANCH  23  24
BRANCH  23  31
ATOM     31  C   LIG    1       20.279 -31.452  11.993  0.00  0.00    -0.026 A 
ATOM     32  C   LIG    1       19.873 -31.245  10.656  0.00  0.00    +0.008 A 
ATOM     33  C   LIG    1       18.876 -32.029  10.075  0.00  0.00    +0.039 A 
ATOM     34  C   LIG    1       18.302 -33.055  10.811  0.00  0.00    +0.123 A 
ATOM     35  F   LIG    1       17.347 -33.811  10.254  0.00  0.00    -0.205 F 
ATOM     36  C   LIG    1       18.708 -33.311  12.116  0.00  0.00    +0.039 A 
ATOM     37  C   LIG    1       19.692 -32.512  12.708  0.00  0.00    +0.008 A 
ENDBRANCH  23  31
ENDBRANCH   4  23
TORSDOF 10
ENDMDL
