MODEL 1
REMARK VINA RESULT:      -4.4      0.000      0.000
REMARK  Name = *****
REMARK                            x       y       z     vdW  Elec       q    Type
REMARK                         _______ _______ _______ _____ _____    ______ ____
ROOT
ATOM      1  C   LIG    1       23.408 -19.454   3.619  0.00  0.00    +0.061 C 
ATOM      2  C   LIG    1       23.699 -20.649   4.573  0.00  0.00    +0.054 C 
ATOM      3  C   LIG    1       25.051 -20.581   5.254  0.00  0.00    -0.039 A 
ATOM      4  C   LIG    1       26.110 -19.825   4.704  0.00  0.00    -0.003 A 
ATOM      5  C   LIG    1       27.335 -19.793   5.390  0.00  0.00    +0.120 A 
ATOM      6  C   LIG    1       27.536 -20.535   6.548  0.00  0.00    +0.045 A 
ATOM      7  C   LIG    1       26.504 -21.315   7.062  0.00  0.00    +0.004 A 
ATOM      8  C   LIG    1       25.918 -19.052   3.422  0.00  0.00    +0.041 C 
ATOM      9  C   LIG    1       25.267 -21.335   6.418  0.00  0.00    +0.004 A 
ATOM     10  C   LIG    1       24.633 -19.409   2.675  0.00  0.00    +0.024 C 
ENDROOT
BRANCH   5  11
ATOM     11  O   LIG    1       28.393 -19.032   4.971  0.00  0.00    -0.506 OA
ATOM     12  H   LIG    1       28.093 -18.119   4.851  0.00  0.00    +0.292 HD
ENDBRANCH   5  11
BRANCH   1  13
ATOM     13  N   LIG    1       23.109 -18.163   4.315  0.00  0.00    -0.299 NA
BRANCH  13  14
ATOM     14  C   LIG    1       21.657 -17.867   4.420  0.00  0.00    +0.084 C 
BRANCH  14  16
ATOM     15  C   LIG    1       19.610 -18.174   2.926  0.00  0.00    +0.005 C 
ATOM     16  C   LIG    1       20.705 -18.863   3.733  0.00  0.00    +0.012 C 
ENDBRANCH  14  16
ENDBRANCH  13  14
BRANCH  13  17
ATOM     17  C   LIG    1       23.876 -17.019   3.764  0.00  0.00    +0.090 C 
BRANCH  17  18
ATOM     18  C   LIG    1       23.540 -15.648   4.388  0.00  0.00    +0.058 C 
BRANCH  18  19
ATOM     19  C   LIG    1       24.361 -14.545   3.774  0.00  0.00    -0.009 A 
ATOM     20  S   LIG    1       26.063 -14.718   3.643  0.00  0.00    -0.102 S 
ATOM     21  C   LIG    1       26.221 -13.206   2.866  0.00  0.00    +0.045 A 
ATOM     22  C   LIG    1       25.009 -12.570   2.724  0.00  0.00    +0.008 A 
ATOM     23  C   LIG    1       23.933 -13.339   3.254  0.00  0.00    +0.011 A 
ENDBRANCH  18  19
ENDBRANCH  17  18
ENDBRANCH  13  17
ENDBRANCH   1  13
TORSDOF 7
ENDMDL
MODEL 2
REMARK VINA RESULT:      -3.7      1.834      3.091
REMARK  Name = *****
REMARK                            x       y       z     vdW  Elec       q    Type
REMARK                         _______ _______ _______ _____ _____    ______ ____
ROOT
ATOM      1  C   LIG    1       24.234 -17.994   3.100  0.00  0.00    +0.061 C 
ATOM      2  C   LIG    1       23.156 -18.874   3.795  0.00  0.00    +0.054 C 
ATOM      3  C   LIG    1       23.688 -19.714   4.939  0.00  0.00    -0.039 A 
ATOM      4  C   LIG    1       25.057 -20.052   5.023  0.00  0.00    -0.003 A 
ATOM      5  C   LIG    1       25.489 -20.823   6.115  0.00  0.00    +0.120 A 
ATOM      6  C   LIG    1       24.592 -21.304   7.061  0.00  0.00    +0.045 A 
ATOM      7  C   LIG    1       23.237 -21.007   6.949  0.00  0.00    +0.004 A 
ATOM      8  C   LIG    1       26.033 -19.574   3.977  0.00  0.00    +0.041 C 
ATOM      9  C   LIG    1       22.789 -20.214   5.894  0.00  0.00    +0.004 A 
ATOM     10  C   LIG    1       25.364 -18.986   2.734  0.00  0.00    +0.024 C 
ENDROOT
BRANCH   5  11
ATOM     11  O   LIG    1       26.805 -21.138   6.317  0.00  0.00    -0.506 OA
ATOM     12  H   LIG    1       27.354 -20.547   5.782  0.00  0.00    +0.292 HD
ENDBRANCH   5  11
BRANCH   1  13
ATOM     13  N   LIG    1       24.679 -16.809   3.900  0.00  0.00    -0.299 NA
BRANCH  13  14
ATOM     14  C   LIG    1       23.557 -15.985   4.416  0.00  0.00    +0.084 C 
BRANCH  14  16
ATOM     15  C   LIG    1       23.811 -13.749   3.212  0.00  0.00    +0.005 C 
ATOM     16  C   LIG    1       23.823 -14.475   4.552  0.00  0.00    +0.012 C 
ENDBRANCH  14  16
ENDBRANCH  13  14
BRANCH  13  17
ATOM     17  C   LIG    1       25.700 -15.991   3.201  0.00  0.00    +0.090 C 
BRANCH  17  18
ATOM     18  C   LIG    1       27.092 -15.978   3.867  0.00  0.00    +0.058 C 
BRANCH  18  19
ATOM     19  C   LIG    1       27.570 -14.572   4.121  0.00  0.00    -0.009 A 
ATOM     20  S   LIG    1       27.149 -13.777   5.582  0.00  0.00    -0.102 S 
ATOM     21  C   LIG    1       28.039 -12.384   5.155  0.00  0.00    +0.045 A 
ATOM     22  C   LIG    1       28.630 -12.508   3.919  0.00  0.00    +0.008 A 
ATOM     23  C   LIG    1       28.355 -13.770   3.315  0.00  0.00    +0.011 A 
ENDBRANCH  18  19
ENDBRANCH  17  18
ENDBRANCH  13  17
ENDBRANCH   1  13
TORSDOF 7
ENDMDL
MODEL 3
REMARK VINA RESULT:      -3.1      3.062      6.760
REMARK  Name = *****
REMARK                            x       y       z     vdW  Elec       q    Type
REMARK                         _______ _______ _______ _____ _____    ______ ____
ROOT
ATOM      1  C   LIG    1       27.030 -15.322   3.632  0.00  0.00    +0.061 C 
ATOM      2  C   LIG    1       26.782 -14.326   4.801  0.00  0.00    +0.054 C 
ATOM      3  C   LIG    1       25.669 -13.331   4.538  0.00  0.00    -0.039 A 
ATOM      4  C   LIG    1       25.270 -13.009   3.222  0.00  0.00    -0.003 A 
ATOM      5  C   LIG    1       24.224 -12.089   3.047  0.00  0.00    +0.120 A 
ATOM      6  C   LIG    1       23.631 -11.452   4.130  0.00  0.00    +0.045 A 
ATOM      7  C   LIG    1       24.058 -11.737   5.424  0.00  0.00    +0.004 A 
ATOM      8  C   LIG    1       25.938 -13.660   2.036  0.00  0.00    +0.041 C 
ATOM      9  C   LIG    1       25.071 -12.674   5.625  0.00  0.00    +0.004 A 
ATOM     10  C   LIG    1       27.218 -14.419   2.390  0.00  0.00    +0.024 C 
ENDROOT
BRANCH   5  11
ATOM     11  O   LIG    1       23.724 -11.771   1.813  0.00  0.00    -0.506 OA
ATOM     12  H   LIG    1       24.426 -11.875   1.155  0.00  0.00    +0.292 HD
ENDBRANCH   5  11
BRANCH   1  13
ATOM     13  N   LIG    1       25.980 -16.378   3.483  0.00  0.00    -0.299 NA
BRANCH  13  14
ATOM     14  C   LIG    1       24.842 -16.221   4.424  0.00  0.00    +0.084 C 
BRANCH  14  16
ATOM     15  C   LIG    1       22.341 -15.874   4.801  0.00  0.00    +0.005 C 
ATOM     16  C   LIG    1       23.492 -15.814   3.804  0.00  0.00    +0.012 C 
ENDBRANCH  14  16
ENDBRANCH  13  14
BRANCH  13  17
ATOM     17  C   LIG    1       26.537 -17.753   3.501  0.00  0.00    +0.090 C 
BRANCH  17  18
ATOM     18  C   LIG    1       25.612 -18.838   2.908  0.00  0.00    +0.058 C 
BRANCH  18  19
ATOM     19  C   LIG    1       24.780 -19.498   3.977  0.00  0.00    -0.009 A 
ATOM     20  S   LIG    1       25.537 -20.479   5.164  0.00  0.00    -0.102 S 
ATOM     21  C   LIG    1       24.052 -20.778   5.954  0.00  0.00    +0.045 A 
ATOM     22  C   LIG    1       22.998 -20.162   5.321  0.00  0.00    +0.008 A 
ATOM     23  C   LIG    1       23.415 -19.427   4.173  0.00  0.00    +0.011 A 
ENDBRANCH  18  19
ENDBRANCH  17  18
ENDBRANCH  13  17
ENDBRANCH   1  13
TORSDOF 7
ENDMDL
MODEL 4
REMARK VINA RESULT:      -2.5      1.542      2.162
REMARK  Name = *****
REMARK                            x       y       z     vdW  Elec       q    Type
REMARK                         _______ _______ _______ _____ _____    ______ ____
ROOT
ATOM      1  C   LIG    1       23.363 -18.217   3.379  0.00  0.00    +0.061 C 
ATOM      2  C   LIG    1       22.628 -19.351   4.150  0.00  0.00    +0.054 C 
ATOM      3  C   LIG    1       23.511 -20.107   5.124  0.00  0.00    -0.039 A 
ATOM      4  C   LIG    1       24.914 -20.134   4.970  0.00  0.00    -0.003 A 
ATOM      5  C   LIG    1       25.676 -20.842   5.913  0.00  0.00    +0.120 A 
ATOM      6  C   LIG    1       25.073 -21.560   6.939  0.00  0.00    +0.045 A 
ATOM      7  C   LIG    1       23.686 -21.569   7.060  0.00  0.00    +0.004 A 
ATOM      8  C   LIG    1       25.577 -19.395   3.834  0.00  0.00    +0.041 C 
ATOM      9  C   LIG    1       22.910 -20.844   6.156  0.00  0.00    +0.004 A 
ATOM     10  C   LIG    1       24.601 -18.910   2.762  0.00  0.00    +0.024 C 
ENDROOT
BRANCH   5  11
ATOM     11  O   LIG    1       27.044 -20.864   5.886  0.00  0.00    -0.506 OA
ATOM     12  H   LIG    1       27.346 -21.767   6.062  0.00  0.00    +0.292 HD
ENDBRANCH   5  11
BRANCH   1  13
ATOM     13  N   LIG    1       23.672 -17.005   4.202  0.00  0.00    -0.299 NA
BRANCH  13  14
ATOM     14  C   LIG    1       22.509 -16.101   4.389  0.00  0.00    +0.084 C 
BRANCH  14  16
ATOM     15  C   LIG    1       21.956 -14.893   6.569  0.00  0.00    +0.005 C 
ATOM     16  C   LIG    1       21.800 -16.172   5.754  0.00  0.00    +0.012 C 
ENDBRANCH  14  16
ENDBRANCH  13  14
BRANCH  13  17
ATOM     17  C   LIG    1       24.876 -16.279   3.729  0.00  0.00    +0.090 C 
BRANCH  17  18
ATOM     18  C   LIG    1       25.195 -14.979   4.498  0.00  0.00    +0.058 C 
BRANCH  18  19
ATOM     19  C   LIG    1       24.949 -13.759   3.648  0.00  0.00    -0.009 A 
ATOM     20  S   LIG    1       26.118 -13.274   2.490  0.00  0.00    -0.102 S 
ATOM     21  C   LIG    1       25.148 -11.970   1.965  0.00  0.00    +0.045 A 
ATOM     22  C   LIG    1       23.968 -11.889   2.666  0.00  0.00    +0.008 A 
ATOM     23  C   LIG    1       23.852 -12.919   3.645  0.00  0.00    +0.011 A 
ENDBRANCH  18  19
ENDBRANCH  17  18
ENDBRANCH  13  17
ENDBRANCH   1  13
TORSDOF 7
ENDMDL
MODEL 5
REMARK VINA RESULT:      -2.4      3.015      7.027
REMARK  Name = *****
REMARK                            x       y       z     vdW  Elec       q    Type
REMARK                         _______ _______ _______ _____ _____    ______ ____
ROOT
ATOM      1  C   LIG    1       27.785 -15.127   4.009  0.00  0.00    +0.061 C 
ATOM      2  C   LIG    1       27.429 -13.953   4.967  0.00  0.00    +0.054 C 
ATOM      3  C   LIG    1       26.088 -13.307   4.679  0.00  0.00    -0.039 A 
ATOM      4  C   LIG    1       25.488 -13.404   3.404  0.00  0.00    -0.003 A 
ATOM      5  C   LIG    1       24.238 -12.794   3.207  0.00  0.00    +0.120 A 
ATOM      6  C   LIG    1       23.627 -12.053   4.211  0.00  0.00    +0.045 A 
ATOM      7  C   LIG    1       24.244 -11.922   5.452  0.00  0.00    +0.004 A 
ATOM      8  C   LIG    1       26.164 -14.166   2.292  0.00  0.00    +0.041 C 
ATOM      9  C   LIG    1       25.467 -12.549   5.684  0.00  0.00    +0.004 A 
ATOM     10  C   LIG    1       27.618 -14.531   2.591  0.00  0.00    +0.024 C 
ENDROOT
BRANCH   5  11
ATOM     11  O   LIG    1       23.549 -12.895   2.028  0.00  0.00    -0.506 OA
ATOM     12  H   LIG    1       24.160 -12.734   1.294  0.00  0.00    +0.292 HD
ENDBRANCH   5  11
BRANCH   1  13
ATOM     13  N   LIG    1       27.010 -16.384   4.253  0.00  0.00    -0.299 NA
BRANCH  13  14
ATOM     14  C   LIG    1       27.861 -17.598   4.344  0.00  0.00    +0.084 C 
BRANCH  14  16
ATOM     15  C   LIG    1       29.313 -18.933   5.964  0.00  0.00    +0.005 C 
ATOM     16  C   LIG    1       28.999 -17.560   5.380  0.00  0.00    +0.012 C 
ENDBRANCH  14  16
ENDBRANCH  13  14
BRANCH  13  17
ATOM     17  C   LIG    1       25.883 -16.559   3.305  0.00  0.00    +0.090 C 
BRANCH  17  18
ATOM     18  C   LIG    1       25.591 -18.021   2.904  0.00  0.00    +0.058 C 
BRANCH  18  19
ATOM     19  C   LIG    1       24.440 -18.591   3.693  0.00  0.00    -0.009 A 
ATOM     20  S   LIG    1       24.585 -20.140   4.416  0.00  0.00    -0.102 S 
ATOM     21  C   LIG    1       23.024 -20.035   5.101  0.00  0.00    +0.045 A 
ATOM     22  C   LIG    1       22.394 -18.857   4.773  0.00  0.00    +0.008 A 
ATOM     23  C   LIG    1       23.209 -18.022   3.953  0.00  0.00    +0.011 A 
ENDBRANCH  18  19
ENDBRANCH  17  18
ENDBRANCH  13  17
ENDBRANCH   1  13
TORSDOF 7
ENDMDL
MODEL 6
REMARK VINA RESULT:      -2.4      2.637      6.530
REMARK  Name = *****
REMARK                            x       y       z     vdW  Elec       q    Type
REMARK                         _______ _______ _______ _____ _____    ______ ____
ROOT
ATOM      1  C   LIG    1       23.479 -14.798   3.942  0.00  0.00    +0.061 C 
ATOM      2  C   LIG    1       24.348 -14.110   2.850  0.00  0.00    +0.054 C 
ATOM      3  C   LIG    1       25.755 -13.772   3.303  0.00  0.00    -0.039 A 
ATOM      4  C   LIG    1       26.066 -13.619   4.671  0.00  0.00    -0.003 A 
ATOM      5  C   LIG    1       27.391 -13.319   5.026  0.00  0.00    +0.120 A 
ATOM      6  C   LIG    1       28.369 -13.107   4.060  0.00  0.00    +0.045 A 
ATOM      7  C   LIG    1       28.047 -13.214   2.710  0.00  0.00    +0.004 A 
ATOM      8  C   LIG    1       25.003 -13.801   5.726  0.00  0.00    +0.041 C 
ATOM      9  C   LIG    1       26.746 -13.547   2.335  0.00  0.00    +0.004 A 
ATOM     10  C   LIG    1       23.582 -13.856   5.165  0.00  0.00    +0.024 C 
ENDROOT
BRANCH   5  11
ATOM     11  O   LIG    1       27.800 -13.222   6.328  0.00  0.00    -0.506 OA
ATOM     12  H   LIG    1       28.751 -13.399   6.371  0.00  0.00    +0.292 HD
ENDBRANCH   5  11
BRANCH   1  13
ATOM     13  N   LIG    1       23.844 -16.223   4.219  0.00  0.00    -0.299 NA
BRANCH  13  14
ATOM     14  C   LIG    1       24.722 -16.824   3.183  0.00  0.00    +0.084 C 
BRANCH  14  16
ATOM     15  C   LIG    1       27.224 -16.900   3.687  0.00  0.00    +0.005 C 
ATOM     16  C   LIG    1       25.906 -17.666   3.694  0.00  0.00    +0.012 C 
ENDBRANCH  14  16
ENDBRANCH  13  14
BRANCH  13  17
ATOM     17  C   LIG    1       22.666 -17.073   4.517  0.00  0.00    +0.090 C 
BRANCH  17  18
ATOM     18  C   LIG    1       22.623 -18.416   3.758  0.00  0.00    +0.058 C 
BRANCH  18  19
ATOM     19  C   LIG    1       23.066 -19.560   4.634  0.00  0.00    -0.009 A 
ATOM     20  S   LIG    1       24.159 -20.732   4.021  0.00  0.00    -0.102 S 
ATOM     21  C   LIG    1       24.191 -21.572   5.508  0.00  0.00    +0.045 A 
ATOM     22  C   LIG    1       23.374 -20.988   6.448  0.00  0.00    +0.008 A 
ATOM     23  C   LIG    1       22.717 -19.828   5.943  0.00  0.00    +0.011 A 
ENDBRANCH  18  19
ENDBRANCH  17  18
ENDBRANCH  13  17
ENDBRANCH   1  13
TORSDOF 7
ENDMDL
MODEL 7
REMARK VINA RESULT:      -2.3      2.756      6.726
REMARK  Name = *****
REMARK                            x       y       z     vdW  Elec       q    Type
REMARK                         _______ _______ _______ _____ _____    ______ ____
ROOT
ATOM      1  C   LIG    1       24.577 -15.568   3.078  0.00  0.00    +0.061 C 
ATOM      2  C   LIG    1       25.693 -14.727   2.393  0.00  0.00    +0.054 C 
ATOM      3  C   LIG    1       26.624 -14.029   3.365  0.00  0.00    -0.039 A 
ATOM      4  C   LIG    1       26.224 -13.750   4.690  0.00  0.00    -0.003 A 
ATOM      5  C   LIG    1       27.138 -13.112   5.544  0.00  0.00    +0.120 A 
ATOM      6  C   LIG    1       28.385 -12.699   5.091  0.00  0.00    +0.045 A 
ATOM      7  C   LIG    1       28.759 -12.935   3.771  0.00  0.00    +0.004 A 
ATOM      8  C   LIG    1       24.854 -14.152   5.180  0.00  0.00    +0.041 C 
ATOM      9  C   LIG    1       27.882 -13.599   2.913  0.00  0.00    +0.004 A 
ATOM     10  C   LIG    1       23.903 -14.584   4.063  0.00  0.00    +0.024 C 
ENDROOT
BRANCH   5  11
ATOM     11  O   LIG    1       26.864 -12.866   6.862  0.00  0.00    -0.506 OA
ATOM     12  H   LIG    1       27.481 -12.196   7.190  0.00  0.00    +0.292 HD
ENDBRANCH   5  11
BRANCH   1  13
ATOM     13  N   LIG    1       25.055 -16.844   3.699  0.00  0.00    -0.299 NA
BRANCH  13  14
ATOM     14  C   LIG    1       26.354 -17.318   3.158  0.00  0.00    +0.084 C 
BRANCH  14  16
ATOM     15  C   LIG    1       28.044 -18.327   4.784  0.00  0.00    +0.005 C 
ATOM     16  C   LIG    1       27.592 -17.075   4.041  0.00  0.00    +0.012 C 
ENDBRANCH  14  16
ENDBRANCH  13  14
BRANCH  13  17
ATOM     17  C   LIG    1       24.023 -17.909   3.694  0.00  0.00    +0.090 C 
BRANCH  17  18
ATOM     18  C   LIG    1       24.576 -19.351   3.679  0.00  0.00    +0.058 C 
BRANCH  18  19
ATOM     19  C   LIG    1       24.263 -20.075   4.963  0.00  0.00    -0.009 A 
ATOM     20  S   LIG    1       25.515 -20.882   5.815  0.00  0.00    -0.102 S 
ATOM     21  C   LIG    1       24.447 -21.355   7.062  0.00  0.00    +0.045 A 
ATOM     22  C   LIG    1       23.161 -20.926   6.830  0.00  0.00    +0.008 A 
ATOM     23  C   LIG    1       23.050 -20.191   5.613  0.00  0.00    +0.011 A 
ENDBRANCH  18  19
ENDBRANCH  17  18
ENDBRANCH  13  17
ENDBRANCH   1  13
TORSDOF 7
ENDMDL
