MODEL 1
REMARK VINA RESULT:      -8.7      0.000      0.000
REMARK  Name = *****
REMARK                            x       y       z     vdW  Elec       q    Type
REMARK                         _______ _______ _______ _____ _____    ______ ____
ROOT
ATOM      1  C   LIG    1       26.020 -20.520   8.963  0.00  0.00    +0.044 C 
ATOM      2  C   LIG    1       27.164 -20.766   8.013  0.00  0.00    -0.050 C 
ATOM      3  C   LIG    1       28.406 -20.884   8.538  0.00  0.00    +0.003 C 
ENDROOT
BRANCH   3   4
ATOM      4  C   LIG    1       29.664 -21.125   7.854  0.00  0.00    +0.001 C 
ATOM      5  C   LIG    1       30.448 -20.214   7.253  0.00  0.00    +0.003 C 
BRANCH   5   6
ATOM      6  C   LIG    1       30.251 -18.778   7.134  0.00  0.00    -0.044 C 
ATOM      7  C   LIG    1       30.515 -17.913   8.133  0.00  0.00    +0.094 C 
ATOM      8  C   LIG    1       29.598 -18.289   5.865  0.00  0.00    +0.044 C 
BRANCH   7   9
ATOM      9  C   LIG    1       31.052 -18.264   9.462  0.00  0.00    +0.330 C 
ATOM     10  O   LIG    1       32.183 -18.543   9.780  0.00  0.00    -0.246 OA
BRANCH   9  11
ATOM     11  O   LIG    1       30.044 -18.289  10.357  0.00  0.00    -0.477 OA
ATOM     12  H   LIG    1       29.593 -19.134  10.148  0.00  0.00    +0.295 HD
ENDBRANCH   9  11
ENDBRANCH   7   9
ENDBRANCH   5   6
ENDBRANCH   3   4
BRANCH   2  13
ATOM     13  C   LIG    1       26.903 -20.799   6.578  0.00  0.00    +0.003 C 
ATOM     14  C   LIG    1       25.919 -21.301   5.812  0.00  0.00    +0.004 C 
BRANCH  14  15
ATOM     15  C   LIG    1       24.683 -22.040   6.071  0.00  0.00    -0.043 C 
ATOM     16  C   LIG    1       23.371 -21.263   5.737  0.00  0.00    -0.010 C 
ATOM     17  C   LIG    1       23.070 -20.268   6.877  0.00  0.00    +0.016 C 
ATOM     18  C   LIG    1       23.437 -20.456   4.412  0.00  0.00    +0.016 C 
ATOM     19  C   LIG    1       22.162 -22.225   5.563  0.00  0.00    +0.011 C 
ATOM     20  C   LIG    1       22.098 -23.273   6.656  0.00  0.00    +0.005 C 
ATOM     21  C   LIG    1       23.360 -24.118   6.638  0.00  0.00    +0.031 C 
ATOM     22  C   LIG    1       24.652 -23.348   6.432  0.00  0.00    -0.069 C 
ATOM     23  C   LIG    1       25.853 -24.242   6.631  0.00  0.00    +0.039 C 
ENDBRANCH  14  15
ENDBRANCH   2  13
TORSDOF 6
ENDMDL
MODEL 2
REMARK VINA RESULT:      -8.6      1.843      3.142
REMARK  Name = *****
REMARK                            x       y       z     vdW  Elec       q    Type
REMARK                         _______ _______ _______ _____ _____    ______ ____
ROOT
ATOM      1  C   LIG    1       25.825 -20.469   8.995  0.00  0.00    +0.044 C 
ATOM      2  C   LIG    1       26.758 -20.810   7.861  0.00  0.00    -0.050 C 
ATOM      3  C   LIG    1       27.940 -20.153   7.797  0.00  0.00    +0.003 C 
ENDROOT
BRANCH   3   4
ATOM      4  C   LIG    1       29.007 -20.292   6.823  0.00  0.00    +0.001 C 
ATOM      5  C   LIG    1       30.308 -20.008   6.998  0.00  0.00    +0.003 C 
BRANCH   5   6
ATOM      6  C   LIG    1       30.978 -19.499   8.185  0.00  0.00    -0.044 C 
ATOM      7  C   LIG    1       31.412 -20.293   9.183  0.00  0.00    +0.094 C 
ATOM      8  C   LIG    1       31.055 -17.999   8.325  0.00  0.00    +0.044 C 
BRANCH   7   9
ATOM      9  C   LIG    1       31.304 -21.765   9.228  0.00  0.00    +0.330 C 
ATOM     10  O   LIG    1       30.516 -22.455   9.828  0.00  0.00    -0.246 OA
BRANCH   9  11
ATOM     11  O   LIG    1       32.302 -22.307   8.501  0.00  0.00    -0.477 OA
ATOM     12  H   LIG    1       33.010 -22.429   9.168  0.00  0.00    +0.295 HD
ENDBRANCH   9  11
ENDBRANCH   7   9
ENDBRANCH   5   6
ENDBRANCH   3   4
BRANCH   2  13
ATOM     13  C   LIG    1       26.328 -21.769   6.850  0.00  0.00    +0.003 C 
ATOM     14  C   LIG    1       25.479 -21.722   5.808  0.00  0.00    +0.004 C 
BRANCH  14  15
ATOM     15  C   LIG    1       24.608 -20.698   5.231  0.00  0.00    -0.043 C 
ATOM     16  C   LIG    1       23.148 -20.690   5.786  0.00  0.00    -0.010 C 
ATOM     17  C   LIG    1       22.345 -21.821   5.109  0.00  0.00    +0.016 C 
ATOM     18  C   LIG    1       23.057 -20.899   7.321  0.00  0.00    +0.016 C 
ATOM     19  C   LIG    1       22.442 -19.330   5.522  0.00  0.00    +0.011 C 
ATOM     20  C   LIG    1       22.657 -18.834   4.106  0.00  0.00    +0.005 C 
ATOM     21  C   LIG    1       24.141 -18.635   3.847  0.00  0.00    +0.031 C 
ATOM     22  C   LIG    1       25.045 -19.727   4.389  0.00  0.00    -0.069 C 
ATOM     23  C   LIG    1       26.465 -19.543   3.910  0.00  0.00    +0.039 C 
ENDBRANCH  14  15
ENDBRANCH   2  13
TORSDOF 6
ENDMDL
MODEL 3
REMARK VINA RESULT:      -8.4      1.578      2.880
REMARK  Name = *****
REMARK                            x       y       z     vdW  Elec       q    Type
REMARK                         _______ _______ _______ _____ _____    ______ ____
ROOT
ATOM      1  C   LIG    1       26.114 -20.416   8.338  0.00  0.00    +0.044 C 
ATOM      2  C   LIG    1       27.119 -20.304   7.220  0.00  0.00    -0.050 C 
ATOM      3  C   LIG    1       28.386 -19.952   7.543  0.00  0.00    +0.003 C 
ENDROOT
BRANCH   3   4
ATOM      4  C   LIG    1       29.532 -19.781   6.670  0.00  0.00    +0.001 C 
ATOM      5  C   LIG    1       30.780 -19.436   7.029  0.00  0.00    +0.003 C 
BRANCH   5   6
ATOM      6  C   LIG    1       31.302 -19.152   8.357  0.00  0.00    -0.044 C 
ATOM      7  C   LIG    1       31.474 -20.101   9.298  0.00  0.00    +0.094 C 
ATOM      8  C   LIG    1       31.527 -17.700   8.698  0.00  0.00    +0.044 C 
BRANCH   7   9
ATOM      9  C   LIG    1       31.192 -21.541   9.138  0.00  0.00    +0.330 C 
ATOM     10  O   LIG    1       30.192 -22.159   9.414  0.00  0.00    -0.246 OA
BRANCH   9  11
ATOM     11  O   LIG    1       32.287 -22.157   8.652  0.00  0.00    -0.477 OA
ATOM     12  H   LIG    1       32.607 -21.525   7.974  0.00  0.00    +0.295 HD
ENDBRANCH   9  11
ENDBRANCH   7   9
ENDBRANCH   5   6
ENDBRANCH   3   4
BRANCH   2  13
ATOM     13  C   LIG    1       26.678 -20.508   5.844  0.00  0.00    +0.003 C 
ATOM     14  C   LIG    1       25.661 -21.176   5.271  0.00  0.00    +0.004 C 
BRANCH  14  15
ATOM     15  C   LIG    1       24.554 -21.994   5.765  0.00  0.00    -0.043 C 
ATOM     16  C   LIG    1       24.924 -23.479   6.075  0.00  0.00    -0.010 C 
ATOM     17  C   LIG    1       24.981 -24.272   4.751  0.00  0.00    +0.016 C 
ATOM     18  C   LIG    1       26.291 -23.652   6.787  0.00  0.00    +0.016 C 
ATOM     19  C   LIG    1       23.887 -24.142   7.026  0.00  0.00    +0.011 C 
ATOM     20  C   LIG    1       22.458 -23.846   6.617  0.00  0.00    +0.005 C 
ATOM     21  C   LIG    1       22.212 -22.347   6.648  0.00  0.00    +0.031 C 
ATOM     22  C   LIG    1       23.331 -21.494   6.078  0.00  0.00    -0.069 C 
ATOM     23  C   LIG    1       22.910 -20.049   5.968  0.00  0.00    +0.039 C 
ENDBRANCH  14  15
ENDBRANCH   2  13
TORSDOF 6
ENDMDL
MODEL 4
REMARK VINA RESULT:      -8.3      1.162      2.674
REMARK  Name = *****
REMARK                            x       y       z     vdW  Elec       q    Type
REMARK                         _______ _______ _______ _____ _____    ______ ____
ROOT
ATOM      1  C   LIG    1       25.920 -20.478   8.394  0.00  0.00    +0.044 C 
ATOM      2  C   LIG    1       26.965 -20.286   7.325  0.00  0.00    -0.050 C 
ATOM      3  C   LIG    1       28.182 -19.832   7.706  0.00  0.00    +0.003 C 
ENDROOT
BRANCH   3   4
ATOM      4  C   LIG    1       29.352 -19.568   6.888  0.00  0.00    +0.001 C 
ATOM      5  C   LIG    1       30.634 -19.548   7.289  0.00  0.00    +0.003 C 
BRANCH   5   6
ATOM      6  C   LIG    1       31.178 -19.782   8.617  0.00  0.00    -0.044 C 
ATOM      7  C   LIG    1       31.462 -18.789   9.481  0.00  0.00    +0.094 C 
ATOM      8  C   LIG    1       31.545 -21.206   8.955  0.00  0.00    +0.044 C 
BRANCH   7   9
ATOM      9  C   LIG    1       31.257 -17.347   9.242  0.00  0.00    +0.330 C 
ATOM     10  O   LIG    1       30.302 -16.657   9.506  0.00  0.00    -0.246 OA
BRANCH   9  11
ATOM     11  O   LIG    1       32.328 -16.846   8.595  0.00  0.00    -0.477 OA
ATOM     12  H   LIG    1       32.894 -17.638   8.472  0.00  0.00    +0.295 HD
ENDBRANCH   9  11
ENDBRANCH   7   9
ENDBRANCH   5   6
ENDBRANCH   3   4
BRANCH   2  13
ATOM     13  C   LIG    1       26.609 -20.527   5.931  0.00  0.00    +0.003 C 
ATOM     14  C   LIG    1       25.635 -21.220   5.314  0.00  0.00    +0.004 C 
BRANCH  14  15
ATOM     15  C   LIG    1       24.511 -22.041   5.761  0.00  0.00    -0.043 C 
ATOM     16  C   LIG    1       24.866 -23.531   6.066  0.00  0.00    -0.010 C 
ATOM     17  C   LIG    1       24.965 -24.308   4.737  0.00  0.00    +0.016 C 
ATOM     18  C   LIG    1       26.208 -23.715   6.823  0.00  0.00    +0.016 C 
ATOM     19  C   LIG    1       23.796 -24.201   6.974  0.00  0.00    +0.011 C 
ATOM     20  C   LIG    1       22.382 -23.896   6.521  0.00  0.00    +0.005 C 
ATOM     21  C   LIG    1       22.138 -22.397   6.560  0.00  0.00    +0.031 C 
ATOM     22  C   LIG    1       23.279 -21.541   6.038  0.00  0.00    -0.069 C 
ATOM     23  C   LIG    1       22.865 -20.093   5.931  0.00  0.00    +0.039 C 
ENDBRANCH  14  15
ENDBRANCH   2  13
TORSDOF 6
ENDMDL
MODEL 5
REMARK VINA RESULT:      -8.0      1.953      3.064
REMARK  Name = *****
REMARK                            x       y       z     vdW  Elec       q    Type
REMARK                         _______ _______ _______ _____ _____    ______ ____
ROOT
ATOM      1  C   LIG    1       26.060 -20.401   8.710  0.00  0.00    +0.044 C 
ATOM      2  C   LIG    1       27.031 -20.556   7.567  0.00  0.00    -0.050 C 
ATOM      3  C   LIG    1       28.182 -19.845   7.617  0.00  0.00    +0.003 C 
ENDROOT
BRANCH   3   4
ATOM      4  C   LIG    1       29.274 -19.815   6.661  0.00  0.00    +0.001 C 
ATOM      5  C   LIG    1       30.565 -19.542   6.913  0.00  0.00    +0.003 C 
BRANCH   5   6
ATOM      6  C   LIG    1       31.197 -19.214   8.182  0.00  0.00    -0.044 C 
ATOM      7  C   LIG    1       31.433 -20.126   9.144  0.00  0.00    +0.094 C 
ATOM      8  C   LIG    1       31.466 -17.752   8.444  0.00  0.00    +0.044 C 
BRANCH   7   9
ATOM      9  C   LIG    1       31.122 -21.567   9.067  0.00  0.00    +0.330 C 
ATOM     10  O   LIG    1       30.103 -22.146   9.359  0.00  0.00    -0.246 OA
BRANCH   9  11
ATOM     11  O   LIG    1       32.213 -22.236   8.643  0.00  0.00    -0.477 OA
ATOM     12  H   LIG    1       32.004 -23.162   8.885  0.00  0.00    +0.295 HD
ENDBRANCH   9  11
ENDBRANCH   7   9
ENDBRANCH   5   6
ENDBRANCH   3   4
BRANCH   2  13
ATOM     13  C   LIG    1       26.667 -21.399   6.433  0.00  0.00    +0.003 C 
ATOM     14  C   LIG    1       25.697 -21.357   5.503  0.00  0.00    +0.004 C 
BRANCH  14  15
ATOM     15  C   LIG    1       24.579 -20.460   5.216  0.00  0.00    -0.043 C 
ATOM     16  C   LIG    1       24.678 -19.701   3.855  0.00  0.00    -0.010 C 
ATOM     17  C   LIG    1       25.651 -18.513   4.010  0.00  0.00    +0.016 C 
ATOM     18  C   LIG    1       25.186 -20.578   2.681  0.00  0.00    +0.016 C 
ATOM     19  C   LIG    1       23.291 -19.170   3.392  0.00  0.00    +0.011 C 
ATOM     20  C   LIG    1       22.526 -18.500   4.515  0.00  0.00    +0.005 C 
ATOM     21  C   LIG    1       22.282 -19.492   5.639  0.00  0.00    +0.031 C 
ATOM     22  C   LIG    1       23.461 -20.384   5.983  0.00  0.00    -0.069 C 
ATOM     23  C   LIG    1       23.188 -21.185   7.234  0.00  0.00    +0.039 C 
ENDBRANCH  14  15
ENDBRANCH   2  13
TORSDOF 6
ENDMDL
MODEL 6
REMARK VINA RESULT:      -7.3      5.581      8.504
REMARK  Name = *****
REMARK                            x       y       z     vdW  Elec       q    Type
REMARK                         _______ _______ _______ _____ _____    ______ ____
ROOT
ATOM      1  C   LIG    1       26.597 -27.487   5.010  0.00  0.00    +0.044 C 
ATOM      2  C   LIG    1       25.228 -27.082   5.491  0.00  0.00    -0.050 C 
ATOM      3  C   LIG    1       25.047 -25.795   5.868  0.00  0.00    +0.003 C 
ENDROOT
BRANCH   3   4
ATOM      4  C   LIG    1       23.842 -25.152   6.360  0.00  0.00    +0.001 C 
ATOM      5  C   LIG    1       23.705 -23.873   6.748  0.00  0.00    +0.003 C 
BRANCH   5   6
ATOM      6  C   LIG    1       24.706 -22.817   6.777  0.00  0.00    -0.044 C 
ATOM      7  C   LIG    1       24.624 -21.706   6.020  0.00  0.00    +0.094 C 
ATOM      8  C   LIG    1       25.938 -23.077   7.607  0.00  0.00    +0.044 C 
BRANCH   7   9
ATOM      9  C   LIG    1       23.533 -21.373   5.084  0.00  0.00    +0.330 C 
ATOM     10  O   LIG    1       22.442 -20.908   5.315  0.00  0.00    -0.246 OA
BRANCH   9  11
ATOM     11  O   LIG    1       23.897 -21.721   3.834  0.00  0.00    -0.477 OA
ATOM     12  H   LIG    1       24.711 -22.246   3.986  0.00  0.00    +0.295 HD
ENDBRANCH   9  11
ENDBRANCH   7   9
ENDBRANCH   5   6
ENDBRANCH   3   4
BRANCH   2  13
ATOM     13  C   LIG    1       24.183 -28.094   5.597  0.00  0.00    +0.003 C 
ATOM     14  C   LIG    1       24.124 -29.337   6.109  0.00  0.00    +0.004 C 
BRANCH  14  15
ATOM     15  C   LIG    1       25.076 -30.224   6.776  0.00  0.00    -0.043 C 
ATOM     16  C   LIG    1       25.109 -30.100   8.332  0.00  0.00    -0.010 C 
ATOM     17  C   LIG    1       25.929 -28.852   8.722  0.00  0.00    +0.016 C 
ATOM     18  C   LIG    1       23.706 -29.966   8.983  0.00  0.00    +0.016 C 
ATOM     19  C   LIG    1       25.741 -31.357   8.995  0.00  0.00    +0.011 C 
ATOM     20  C   LIG    1       27.014 -31.796   8.299  0.00  0.00    +0.005 C 
ATOM     21  C   LIG    1       26.718 -32.145   6.850  0.00  0.00    +0.031 C 
ATOM     22  C   LIG    1       25.780 -31.191   6.133  0.00  0.00    -0.069 C 
ATOM     23  C   LIG    1       25.711 -31.505   4.658  0.00  0.00    +0.039 C 
ENDBRANCH  14  15
ENDBRANCH   2  13
TORSDOF 6
ENDMDL
MODEL 7
REMARK VINA RESULT:      -7.2      3.491      5.477
REMARK  Name = *****
REMARK                            x       y       z     vdW  Elec       q    Type
REMARK                         _______ _______ _______ _____ _____    ______ ____
ROOT
ATOM      1  C   LIG    1       28.666 -19.443   7.404  0.00  0.00    +0.044 C 
ATOM      2  C   LIG    1       27.808 -20.419   6.641  0.00  0.00    -0.050 C 
ATOM      3  C   LIG    1       26.992 -19.925   5.680  0.00  0.00    +0.003 C 
ENDROOT
BRANCH   3   4
ATOM      4  C   LIG    1       26.078 -20.639   4.808  0.00  0.00    +0.001 C 
ATOM      5  C   LIG    1       25.143 -20.107   4.003  0.00  0.00    +0.003 C 
BRANCH   5   6
ATOM      6  C   LIG    1       24.808 -18.707   3.795  0.00  0.00    -0.044 C 
ATOM      7  C   LIG    1       23.572 -18.209   3.994  0.00  0.00    +0.094 C 
ATOM      8  C   LIG    1       25.890 -17.834   3.208  0.00  0.00    +0.044 C 
BRANCH   7   9
ATOM      9  C   LIG    1       22.396 -18.969   4.459  0.00  0.00    +0.330 C 
ATOM     10  O   LIG    1       22.348 -19.939   5.178  0.00  0.00    -0.246 OA
BRANCH   9  11
ATOM     11  O   LIG    1       21.282 -18.448   3.908  0.00  0.00    -0.477 OA
ATOM     12  H   LIG    1       20.943 -17.864   4.620  0.00  0.00    +0.295 HD
ENDBRANCH   9  11
ENDBRANCH   7   9
ENDBRANCH   5   6
ENDBRANCH   3   4
BRANCH   2  13
ATOM     13  C   LIG    1       27.836 -21.830   7.009  0.00  0.00    +0.003 C 
ATOM     14  C   LIG    1       26.896 -22.775   7.186  0.00  0.00    +0.004 C 
BRANCH  14  15
ATOM     15  C   LIG    1       25.436 -22.810   7.096  0.00  0.00    -0.043 C 
ATOM     16  C   LIG    1       24.852 -24.079   6.398  0.00  0.00    -0.010 C 
ATOM     17  C   LIG    1       24.989 -23.922   4.869  0.00  0.00    +0.016 C 
ATOM     18  C   LIG    1       25.557 -25.400   6.803  0.00  0.00    +0.016 C 
ATOM     19  C   LIG    1       23.354 -24.294   6.760  0.00  0.00    +0.011 C 
ATOM     20  C   LIG    1       22.551 -23.012   6.672  0.00  0.00    +0.005 C 
ATOM     21  C   LIG    1       23.110 -21.983   7.640  0.00  0.00    +0.031 C 
ATOM     22  C   LIG    1       24.625 -21.899   7.692  0.00  0.00    -0.069 C 
ATOM     23  C   LIG    1       25.074 -20.721   8.523  0.00  0.00    +0.039 C 
ENDBRANCH  14  15
ENDBRANCH   2  13
TORSDOF 6
ENDMDL
MODEL 8
REMARK VINA RESULT:      -7.1      4.793      7.538
REMARK  Name = *****
REMARK                            x       y       z     vdW  Elec       q    Type
REMARK                         _______ _______ _______ _____ _____    ______ ____
ROOT
ATOM      1  C   LIG    1       26.402 -22.997   8.189  0.00  0.00    +0.044 C 
ATOM      2  C   LIG    1       25.150 -23.425   7.467  0.00  0.00    -0.050 C 
ATOM      3  C   LIG    1       25.153 -24.638   6.864  0.00  0.00    +0.003 C 
ENDROOT
BRANCH   3   4
ATOM      4  C   LIG    1       24.090 -25.284   6.116  0.00  0.00    +0.001 C 
ATOM      5  C   LIG    1       24.148 -26.467   5.481  0.00  0.00    +0.003 C 
BRANCH   5   6
ATOM      6  C   LIG    1       25.265 -27.393   5.381  0.00  0.00    -0.044 C 
ATOM      7  C   LIG    1       25.209 -28.664   5.825  0.00  0.00    +0.094 C 
ATOM      8  C   LIG    1       26.567 -26.829   4.867  0.00  0.00    +0.044 C 
BRANCH   7   9
ATOM      9  C   LIG    1       24.039 -29.314   6.447  0.00  0.00    +0.330 C 
ATOM     10  O   LIG    1       23.821 -29.543   7.613  0.00  0.00    -0.246 OA
BRANCH   9  11
ATOM     11  O   LIG    1       23.182 -29.705   5.483  0.00  0.00    -0.477 OA
ATOM     12  H   LIG    1       23.784 -30.012   4.773  0.00  0.00    +0.295 HD
ENDBRANCH   9  11
ENDBRANCH   7   9
ENDBRANCH   5   6
ENDBRANCH   3   4
BRANCH   2  13
ATOM     13  C   LIG    1       24.024 -22.502   7.386  0.00  0.00    +0.003 C 
ATOM     14  C   LIG    1       23.760 -21.401   6.661  0.00  0.00    +0.004 C 
BRANCH  14  15
ATOM     15  C   LIG    1       24.482 -20.638   5.643  0.00  0.00    -0.043 C 
ATOM     16  C   LIG    1       23.625 -20.223   4.404  0.00  0.00    -0.010 C 
ATOM     17  C   LIG    1       23.482 -21.436   3.461  0.00  0.00    +0.016 C 
ATOM     18  C   LIG    1       22.197 -19.733   4.762  0.00  0.00    +0.016 C 
ATOM     19  C   LIG    1       24.274 -19.043   3.627  0.00  0.00    +0.011 C 
ATOM     20  C   LIG    1       25.762 -19.240   3.417  0.00  0.00    +0.005 C 
ATOM     21  C   LIG    1       26.466 -19.343   4.760  0.00  0.00    +0.031 C 
ATOM     22  C   LIG    1       25.752 -20.186   5.801  0.00  0.00    -0.069 C 
ATOM     23  C   LIG    1       26.620 -20.392   7.020  0.00  0.00    +0.039 C 
ENDBRANCH  14  15
ENDBRANCH   2  13
TORSDOF 6
ENDMDL
MODEL 9
REMARK VINA RESULT:      -7.1      1.587      2.920
REMARK  Name = *****
REMARK                            x       y       z     vdW  Elec       q    Type
REMARK                         _______ _______ _______ _____ _____    ______ ____
ROOT
ATOM      1  C   LIG    1       27.189 -19.646   5.380  0.00  0.00    +0.044 C 
ATOM      2  C   LIG    1       28.396 -20.110   6.155  0.00  0.00    -0.050 C 
ATOM      3  C   LIG    1       29.487 -19.309   6.162  0.00  0.00    +0.003 C 
ENDROOT
BRANCH   3   4
ATOM      4  C   LIG    1       30.762 -19.515   6.824  0.00  0.00    +0.001 C 
ATOM      5  C   LIG    1       31.113 -19.105   8.055  0.00  0.00    +0.003 C 
BRANCH   5   6
ATOM      6  C   LIG    1       30.324 -18.364   9.028  0.00  0.00    -0.044 C 
ATOM      7  C   LIG    1       30.804 -17.308   9.712  0.00  0.00    +0.094 C 
ATOM      8  C   LIG    1       28.957 -18.916   9.349  0.00  0.00    +0.044 C 
BRANCH   7   9
ATOM      9  C   LIG    1       32.155 -16.730   9.579  0.00  0.00    +0.330 C 
ATOM     10  O   LIG    1       32.571 -15.937   8.769  0.00  0.00    -0.246 OA
BRANCH   9  11
ATOM     11  O   LIG    1       32.963 -17.267  10.515  0.00  0.00    -0.477 OA
ATOM     12  H   LIG    1       32.485 -18.086  10.766  0.00  0.00    +0.295 HD
ENDBRANCH   9  11
ENDBRANCH   7   9
ENDBRANCH   5   6
ENDBRANCH   3   4
BRANCH   2  13
ATOM     13  C   LIG    1       28.367 -21.418   6.801  0.00  0.00    +0.003 C 
ATOM     14  C   LIG    1       27.389 -22.228   7.243  0.00  0.00    +0.004 C 
BRANCH  14  15
ATOM     15  C   LIG    1       25.929 -22.159   7.280  0.00  0.00    -0.043 C 
ATOM     16  C   LIG    1       25.198 -23.284   6.481  0.00  0.00    -0.010 C 
ATOM     17  C   LIG    1       25.223 -22.934   4.978  0.00  0.00    +0.016 C 
ATOM     18  C   LIG    1       25.834 -24.689   6.649  0.00  0.00    +0.016 C 
ATOM     19  C   LIG    1       23.723 -23.451   6.944  0.00  0.00    +0.011 C 
ATOM     20  C   LIG    1       23.011 -22.121   7.093  0.00  0.00    +0.005 C 
ATOM     21  C   LIG    1       23.721 -21.267   8.130  0.00  0.00    +0.031 C 
ATOM     22  C   LIG    1       25.237 -21.286   8.057  0.00  0.00    -0.069 C 
ATOM     23  C   LIG    1       25.838 -20.260   8.987  0.00  0.00    +0.039 C 
ENDBRANCH  14  15
ENDBRANCH   2  13
TORSDOF 6
ENDMDL
