MODEL 1
REMARK VINA RESULT:      -9.9      0.000      0.000
REMARK  Name = *****
REMARK                            x       y       z     vdW  Elec       q    Type
REMARK                         _______ _______ _______ _____ _____    ______ ____
ROOT
ATOM      1  C   LIG    1       25.617 -20.586   5.551  0.00  0.00    +0.110 A 
ATOM      2  N   LIG    1       26.295 -21.183   6.617  0.00  0.00    -0.324 N 
ATOM      3  C   LIG    1       27.637 -20.789   6.487  0.00  0.00    +0.062 A 
ATOM      4  C   LIG    1       27.625 -19.886   5.451  0.00  0.00    +0.138 A 
ATOM      5  N   LIG    1       26.382 -19.698   4.956  0.00  0.00    -0.240 NA
ENDROOT
BRANCH   3   6
ATOM      6  C   LIG    1       28.689 -21.306   7.291  0.00  0.00    +0.038 C 
ATOM      7  C   LIG    1       29.631 -20.562   7.935  0.00  0.00    +0.043 C 
BRANCH   7   8
ATOM      8  C   LIG    1       30.659 -21.330   8.706  0.00  0.00    +0.333 C 
ATOM      9  O   LIG    1       30.455 -21.815   9.799  0.00  0.00    -0.245 OA
BRANCH   8  10
ATOM     10  O   LIG    1       31.881 -21.421   8.136  0.00  0.00    -0.477 OA
ATOM     11  H   LIG    1       32.663 -21.473   8.707  0.00  0.00    +0.295 HD
ENDBRANCH   8  10
ENDBRANCH   7   8
BRANCH   7  12
ATOM     12  C   LIG    1       29.683 -19.021   8.080  0.00  0.00    +0.084 C 
BRANCH  12  13
ATOM     13  C   LIG    1       30.430 -18.256   9.185  0.00  0.00    -0.006 A 
ATOM     14  S   LIG    1       32.051 -17.722   8.853  0.00  0.00    -0.101 S 
ATOM     15  C   LIG    1       32.039 -16.625  10.166  0.00  0.00    +0.045 A 
ATOM     16  C   LIG    1       30.937 -16.813  10.964  0.00  0.00    +0.008 A 
ATOM     17  C   LIG    1       30.063 -17.822  10.447  0.00  0.00    +0.011 A 
ENDBRANCH  12  13
ENDBRANCH   7  12
ENDBRANCH   3   6
BRANCH   1  18
ATOM     18  C   LIG    1       24.280 -20.919   4.963  0.00  0.00    +0.074 C 
BRANCH  18  19
ATOM     19  C   LIG    1       23.115 -20.255   5.680  0.00  0.00    +0.007 C 
BRANCH  19  21
ATOM     20  C   LIG    1       22.289 -18.188   4.533  0.00  0.00    +0.004 C 
ATOM     21  C   LIG    1       22.110 -19.679   4.701  0.00  0.00    -0.003 C 
ENDBRANCH  19  21
ENDBRANCH  18  19
ENDBRANCH   1  18
BRANCH   2  22
ATOM     22  C   LIG    1       25.767 -22.202   7.542  0.00  0.00    +0.158 C 
BRANCH  22  23
ATOM     23  C   LIG    1       25.460 -23.573   6.946  0.00  0.00    -0.028 A 
ATOM     24  C   LIG    1       24.113 -23.948   6.774  0.00  0.00    +0.006 A 
ATOM     25  C   LIG    1       23.765 -25.268   6.438  0.00  0.00    +0.015 A 
ATOM     26  C   LIG    1       24.761 -26.235   6.266  0.00  0.00    +0.059 A 
ATOM     27  C   LIG    1       26.102 -25.852   6.361  0.00  0.00    +0.015 A 
ATOM     28  C   LIG    1       26.446 -24.522   6.643  0.00  0.00    +0.006 A 
BRANCH  26  29
ATOM     29  C   LIG    1       24.336 -27.656   6.080  0.00  0.00    +0.337 C 
ATOM     30  O   LIG    1       24.300 -28.451   6.970  0.00  0.00    -0.245 OA
BRANCH  29  31
ATOM     31  O   LIG    1       23.974 -27.944   4.798  0.00  0.00    -0.477 OA
ATOM     32  H   LIG    1       23.029 -27.887   4.594  0.00  0.00    +0.295 HD
ENDBRANCH  29  31
ENDBRANCH  26  29
ENDBRANCH  22  23
ENDBRANCH   2  22
TORSDOF 12
ENDMDL
MODEL 2
REMARK VINA RESULT:      -8.4      1.272      1.585
REMARK  Name = *****
REMARK                            x       y       z     vdW  Elec       q    Type
REMARK                         _______ _______ _______ _____ _____    ______ ____
ROOT
ATOM      1  C   LIG    1       24.844 -21.406   7.128  0.00  0.00    +0.110 A 
ATOM      2  N   LIG    1       26.036 -22.132   7.199  0.00  0.00    -0.324 N 
ATOM      3  C   LIG    1       26.830 -21.476   8.154  0.00  0.00    +0.062 A 
ATOM      4  C   LIG    1       26.002 -20.508   8.674  0.00  0.00    +0.138 A 
ATOM      5  N   LIG    1       24.773 -20.538   8.113  0.00  0.00    -0.240 NA
ENDROOT
BRANCH   3   6
ATOM      6  C   LIG    1       28.185 -21.813   8.414  0.00  0.00    +0.038 C 
ATOM      7  C   LIG    1       29.231 -20.939   8.417  0.00  0.00    +0.043 C 
BRANCH   7   8
ATOM      8  C   LIG    1       30.578 -21.529   8.694  0.00  0.00    +0.333 C 
ATOM      9  O   LIG    1       30.810 -22.264   9.630  0.00  0.00    -0.245 OA
BRANCH   8  10
ATOM     10  O   LIG    1       31.571 -21.155   7.857  0.00  0.00    -0.477 OA
ATOM     11  H   LIG    1       31.659 -21.603   7.002  0.00  0.00    +0.295 HD
ENDBRANCH   8  10
ENDBRANCH   7   8
BRANCH   7  12
ATOM     12  C   LIG    1       29.173 -19.394   8.310  0.00  0.00    +0.084 C 
BRANCH  12  13
ATOM     13  C   LIG    1       30.076 -18.415   9.077  0.00  0.00    -0.006 A 
ATOM     14  S   LIG    1       31.596 -17.973   8.357  0.00  0.00    -0.101 S 
ATOM     15  C   LIG    1       31.776 -16.620   9.390  0.00  0.00    +0.045 A 
ATOM     16  C   LIG    1       30.837 -16.628  10.392  0.00  0.00    +0.008 A 
ATOM     17  C   LIG    1       29.920 -17.719  10.263  0.00  0.00    +0.011 A 
ENDBRANCH  12  13
ENDBRANCH   7  12
ENDBRANCH   3   6
BRANCH   1  18
ATOM     18  C   LIG    1       23.792 -21.398   6.062  0.00  0.00    +0.074 C 
BRANCH  18  19
ATOM     19  C   LIG    1       22.981 -20.112   6.013  0.00  0.00    +0.007 C 
BRANCH  19  21
ATOM     20  C   LIG    1       22.174 -18.249   4.547  0.00  0.00    +0.004 C 
ATOM     21  C   LIG    1       22.771 -19.637   4.588  0.00  0.00    -0.003 C 
ENDBRANCH  19  21
ENDBRANCH  18  19
ENDBRANCH   1  18
BRANCH   2  22
ATOM     22  C   LIG    1       26.469 -23.212   6.294  0.00  0.00    +0.158 C 
BRANCH  22  23
ATOM     23  C   LIG    1       25.713 -24.533   6.395  0.00  0.00    -0.028 A 
ATOM     24  C   LIG    1       26.296 -25.591   7.121  0.00  0.00    +0.006 A 
ATOM     25  C   LIG    1       25.759 -26.889   7.069  0.00  0.00    +0.015 A 
ATOM     26  C   LIG    1       24.625 -27.150   6.291  0.00  0.00    +0.059 A 
ATOM     27  C   LIG    1       23.999 -26.090   5.630  0.00  0.00    +0.015 A 
ATOM     28  C   LIG    1       24.506 -24.787   5.728  0.00  0.00    +0.006 A 
BRANCH  26  29
ATOM     29  C   LIG    1       24.195 -28.572   6.131  0.00  0.00    +0.337 C 
ATOM     30  O   LIG    1       24.412 -29.417   6.946  0.00  0.00    -0.245 OA
BRANCH  29  31
ATOM     31  O   LIG    1       23.513 -28.799   4.973  0.00  0.00    -0.477 OA
ATOM     32  H   LIG    1       23.969 -29.326   4.301  0.00  0.00    +0.295 HD
ENDBRANCH  29  31
ENDBRANCH  26  29
ENDBRANCH  22  23
ENDBRANCH   2  22
TORSDOF 12
ENDMDL
MODEL 3
REMARK VINA RESULT:      -8.3      3.354      8.147
REMARK  Name = *****
REMARK                            x       y       z     vdW  Elec       q    Type
REMARK                         _______ _______ _______ _____ _____    ______ ____
ROOT
ATOM      1  C   LIG    1       23.404 -22.052   6.643  0.00  0.00    +0.110 A 
ATOM      2  N   LIG    1       24.467 -22.535   5.874  0.00  0.00    -0.324 N 
ATOM      3  C   LIG    1       24.449 -23.930   6.027  0.00  0.00    +0.062 A 
ATOM      4  C   LIG    1       23.306 -24.176   6.750  0.00  0.00    +0.138 A 
ATOM      5  N   LIG    1       22.631 -23.041   7.034  0.00  0.00    -0.240 NA
ENDROOT
BRANCH   3   6
ATOM      6  C   LIG    1       25.464 -24.789   5.525  0.00  0.00    +0.038 C 
ATOM      7  C   LIG    1       25.528 -26.136   5.717  0.00  0.00    +0.043 C 
BRANCH   7   8
ATOM      8  C   LIG    1       26.707 -26.830   5.111  0.00  0.00    +0.333 C 
ATOM      9  O   LIG    1       26.662 -27.438   4.062  0.00  0.00    -0.245 OA
BRANCH   8  10
ATOM     10  O   LIG    1       27.850 -26.793   5.831  0.00  0.00    -0.477 OA
ATOM     11  H   LIG    1       28.171 -27.608   6.245  0.00  0.00    +0.295 HD
ENDBRANCH   8  10
ENDBRANCH   7   8
BRANCH   7  12
ATOM     12  C   LIG    1       24.457 -27.051   6.363  0.00  0.00    +0.084 C 
BRANCH  12  13
ATOM     13  C   LIG    1       24.695 -28.486   6.858  0.00  0.00    -0.006 A 
ATOM     14  S   LIG    1       24.298 -29.795   5.784  0.00  0.00    -0.101 S 
ATOM     15  C   LIG    1       25.216 -30.918   6.693  0.00  0.00    +0.045 A 
ATOM     16  C   LIG    1       25.626 -30.378   7.887  0.00  0.00    +0.008 A 
ATOM     17  C   LIG    1       25.239 -29.007   8.020  0.00  0.00    +0.011 A 
ENDBRANCH  12  13
ENDBRANCH   7  12
ENDBRANCH   3   6
BRANCH   1  18
ATOM     18  C   LIG    1       23.147 -20.668   7.156  0.00  0.00    +0.074 C 
BRANCH  18  19
ATOM     19  C   LIG    1       23.133 -19.606   6.066  0.00  0.00    +0.007 C 
BRANCH  19  21
ATOM     20  C   LIG    1       21.796 -18.752   4.129  0.00  0.00    +0.004 C 
ATOM     21  C   LIG    1       22.173 -19.965   4.948  0.00  0.00    -0.003 C 
ENDBRANCH  19  21
ENDBRANCH  18  19
ENDBRANCH   1  18
BRANCH   2  22
ATOM     22  C   LIG    1       25.528 -21.737   5.233  0.00  0.00    +0.158 C 
BRANCH  22  23
ATOM     23  C   LIG    1       26.619 -21.189   6.149  0.00  0.00    -0.028 A 
ATOM     24  C   LIG    1       27.349 -20.059   5.728  0.00  0.00    +0.006 A 
ATOM     25  C   LIG    1       28.501 -19.642   6.418  0.00  0.00    +0.015 A 
ATOM     26  C   LIG    1       28.942 -20.349   7.542  0.00  0.00    +0.059 A 
ATOM     27  C   LIG    1       28.180 -21.425   8.007  0.00  0.00    +0.015 A 
ATOM     28  C   LIG    1       27.002 -21.804   7.349  0.00  0.00    +0.006 A 
BRANCH  26  29
ATOM     29  C   LIG    1       30.260 -19.973   8.136  0.00  0.00    +0.337 C 
ATOM     30  O   LIG    1       30.377 -19.501   9.226  0.00  0.00    -0.245 OA
BRANCH  29  31
ATOM     31  O   LIG    1       31.315 -20.245   7.316  0.00  0.00    -0.477 OA
ATOM     32  H   LIG    1       31.205 -20.990   6.707  0.00  0.00    +0.295 HD
ENDBRANCH  29  31
ENDBRANCH  26  29
ENDBRANCH  22  23
ENDBRANCH   2  22
TORSDOF 12
ENDMDL
MODEL 4
REMARK VINA RESULT:      -7.6      4.188      8.811
REMARK  Name = *****
REMARK                            x       y       z     vdW  Elec       q    Type
REMARK                         _______ _______ _______ _____ _____    ______ ____
ROOT
ATOM      1  C   LIG    1       27.656 -20.534   7.435  0.00  0.00    +0.110 A 
ATOM      2  N   LIG    1       26.742 -20.315   6.400  0.00  0.00    -0.324 N 
ATOM      3  C   LIG    1       25.470 -20.415   6.985  0.00  0.00    +0.062 A 
ATOM      4  C   LIG    1       25.725 -20.542   8.331  0.00  0.00    +0.138 A 
ATOM      5  N   LIG    1       27.048 -20.516   8.600  0.00  0.00    -0.240 NA
ENDROOT
BRANCH   3   6
ATOM      6  C   LIG    1       24.260 -20.404   6.240  0.00  0.00    +0.038 C 
ATOM      7  C   LIG    1       23.380 -21.440   6.146  0.00  0.00    +0.043 C 
BRANCH   7   8
ATOM      8  C   LIG    1       22.181 -21.206   5.281  0.00  0.00    +0.333 C 
ATOM      9  O   LIG    1       21.988 -20.179   4.664  0.00  0.00    -0.245 OA
BRANCH   8  10
ATOM     10  O   LIG    1       21.267 -22.201   5.255  0.00  0.00    -0.477 OA
ATOM     11  H   LIG    1       21.547 -23.102   5.474  0.00  0.00    +0.295 HD
ENDBRANCH   8  10
ENDBRANCH   7   8
BRANCH   7  12
ATOM     12  C   LIG    1       23.399 -22.772   6.936  0.00  0.00    +0.084 C 
BRANCH  12  13
ATOM     13  C   LIG    1       24.124 -24.055   6.500  0.00  0.00    -0.006 A 
ATOM     14  S   LIG    1       25.857 -24.101   6.647  0.00  0.00    -0.101 S 
ATOM     15  C   LIG    1       25.899 -25.806   6.501  0.00  0.00    +0.045 A 
ATOM     16  C   LIG    1       24.674 -26.305   6.130  0.00  0.00    +0.008 A 
ATOM     17  C   LIG    1       23.680 -25.281   6.036  0.00  0.00    +0.011 A 
ENDBRANCH  12  13
ENDBRANCH   7  12
ENDBRANCH   3   6
BRANCH   1  18
ATOM     18  C   LIG    1       29.106 -20.905   7.366  0.00  0.00    +0.074 C 
BRANCH  18  19
ATOM     19  C   LIG    1       30.003 -19.775   6.884  0.00  0.00    +0.007 C 
BRANCH  19  21
ATOM     20  C   LIG    1       30.961 -18.880   9.018  0.00  0.00    +0.004 C 
ATOM     21  C   LIG    1       30.021 -18.617   7.864  0.00  0.00    -0.003 C 
ENDBRANCH  19  21
ENDBRANCH  18  19
ENDBRANCH   1  18
BRANCH   2  22
ATOM     22  C   LIG    1       27.040 -20.236   4.959  0.00  0.00    +0.158 C 
BRANCH  22  23
ATOM     23  C   LIG    1       26.950 -18.855   4.317  0.00  0.00    -0.028 A 
ATOM     24  C   LIG    1       27.936 -17.898   4.632  0.00  0.00    +0.006 A 
ATOM     25  C   LIG    1       27.789 -16.553   4.249  0.00  0.00    +0.015 A 
ATOM     26  C   LIG    1       26.652 -16.143   3.543  0.00  0.00    +0.059 A 
ATOM     27  C   LIG    1       25.708 -17.101   3.164  0.00  0.00    +0.015 A 
ATOM     28  C   LIG    1       25.885 -18.450   3.499  0.00  0.00    +0.006 A 
BRANCH  26  29
ATOM     29  C   LIG    1       26.460 -14.679   3.310  0.00  0.00    +0.337 C 
ATOM     30  O   LIG    1       26.248 -13.899   4.188  0.00  0.00    -0.245 OA
BRANCH  29  31
ATOM     31  O   LIG    1       26.573 -14.326   1.999  0.00  0.00    -0.477 OA
ATOM     32  H   LIG    1       25.816 -14.530   1.431  0.00  0.00    +0.295 HD
ENDBRANCH  29  31
ENDBRANCH  26  29
ENDBRANCH  22  23
ENDBRANCH   2  22
TORSDOF 12
ENDMDL
MODEL 5
REMARK VINA RESULT:      -7.5      3.382      6.164
REMARK  Name = *****
REMARK                            x       y       z     vdW  Elec       q    Type
REMARK                         _______ _______ _______ _____ _____    ______ ____
ROOT
ATOM      1  C   LIG    1       28.665 -19.545   7.262  0.00  0.00    +0.110 A 
ATOM      2  N   LIG    1       27.388 -20.018   6.946  0.00  0.00    -0.324 N 
ATOM      3  C   LIG    1       27.206 -19.746   5.580  0.00  0.00    +0.062 A 
ATOM      4  C   LIG    1       28.426 -19.269   5.165  0.00  0.00    +0.138 A 
ATOM      5  N   LIG    1       29.329 -19.243   6.169  0.00  0.00    -0.240 NA
ENDROOT
BRANCH   3   6
ATOM      6  C   LIG    1       25.973 -19.936   4.900  0.00  0.00    +0.038 C 
ATOM      7  C   LIG    1       25.447 -19.095   3.966  0.00  0.00    +0.043 C 
BRANCH   7   8
ATOM      8  C   LIG    1       24.119 -19.491   3.400  0.00  0.00    +0.333 C 
ATOM      9  O   LIG    1       23.100 -18.855   3.569  0.00  0.00    -0.245 OA
BRANCH   8  10
ATOM     10  O   LIG    1       24.092 -20.654   2.711  0.00  0.00    -0.477 OA
ATOM     11  H   LIG    1       24.929 -21.105   2.519  0.00  0.00    +0.295 HD
ENDBRANCH   8  10
ENDBRANCH   7   8
BRANCH   7  12
ATOM     12  C   LIG    1       26.121 -17.859   3.320  0.00  0.00    +0.084 C 
BRANCH  12  13
ATOM     13  C   LIG    1       25.760 -16.394   3.614  0.00  0.00    -0.006 A 
ATOM     14  S   LIG    1       27.030 -15.208   3.522  0.00  0.00    -0.101 S 
ATOM     15  C   LIG    1       25.915 -13.911   3.452  0.00  0.00    +0.045 A 
ATOM     16  C   LIG    1       24.636 -14.337   3.714  0.00  0.00    +0.008 A 
ATOM     17  C   LIG    1       24.568 -15.754   3.904  0.00  0.00    +0.011 A 
ENDBRANCH  12  13
ENDBRANCH   7  12
ENDBRANCH   3   6
BRANCH   1  18
ATOM     18  C   LIG    1       29.262 -19.228   8.599  0.00  0.00    +0.074 C 
BRANCH  18  19
ATOM     19  C   LIG    1       30.450 -18.281   8.528  0.00  0.00    +0.007 C 
BRANCH  19  21
ATOM     20  C   LIG    1       30.449 -17.570  10.930  0.00  0.00    +0.004 C 
ATOM     21  C   LIG    1       30.300 -17.121   9.494  0.00  0.00    -0.003 C 
ENDBRANCH  19  21
ENDBRANCH  18  19
ENDBRANCH   1  18
BRANCH   2  22
ATOM     22  C   LIG    1       26.358 -20.483   7.892  0.00  0.00    +0.158 C 
BRANCH  22  23
ATOM     23  C   LIG    1       25.722 -21.838   7.599  0.00  0.00    -0.028 A 
ATOM     24  C   LIG    1       26.565 -22.950   7.399  0.00  0.00    +0.006 A 
ATOM     25  C   LIG    1       26.056 -24.168   6.914  0.00  0.00    +0.015 A 
ATOM     26  C   LIG    1       24.694 -24.294   6.622  0.00  0.00    +0.059 A 
ATOM     27  C   LIG    1       23.841 -23.219   6.889  0.00  0.00    +0.015 A 
ATOM     28  C   LIG    1       24.344 -22.024   7.424  0.00  0.00    +0.006 A 
BRANCH  26  29
ATOM     29  C   LIG    1       24.232 -25.546   5.950  0.00  0.00    +0.337 C 
ATOM     30  O   LIG    1       23.829 -26.499   6.545  0.00  0.00    -0.245 OA
BRANCH  29  31
ATOM     31  O   LIG    1       24.298 -25.480   4.590  0.00  0.00    -0.477 OA
ATOM     32  H   LIG    1       23.681 -26.044   4.101  0.00  0.00    +0.295 HD
ENDBRANCH  29  31
ENDBRANCH  26  29
ENDBRANCH  22  23
ENDBRANCH   2  22
TORSDOF 12
ENDMDL
MODEL 6
REMARK VINA RESULT:      -7.5      3.482      5.960
REMARK  Name = *****
REMARK                            x       y       z     vdW  Elec       q    Type
REMARK                         _______ _______ _______ _____ _____    ______ ____
ROOT
ATOM      1  C   LIG    1       24.808 -22.476   6.962  0.00  0.00    +0.110 A 
ATOM      2  N   LIG    1       25.426 -21.749   5.940  0.00  0.00    -0.324 N 
ATOM      3  C   LIG    1       26.562 -21.161   6.521  0.00  0.00    +0.062 A 
ATOM      4  C   LIG    1       26.607 -21.693   7.788  0.00  0.00    +0.138 A 
ATOM      5  N   LIG    1       25.596 -22.561   8.010  0.00  0.00    -0.240 NA
ENDROOT
BRANCH   3   6
ATOM      6  C   LIG    1       27.385 -20.215   5.853  0.00  0.00    +0.038 C 
ATOM      7  C   LIG    1       28.488 -19.614   6.380  0.00  0.00    +0.043 C 
BRANCH   7   8
ATOM      8  C   LIG    1       29.185 -18.630   5.494  0.00  0.00    +0.333 C 
ATOM      9  O   LIG    1       30.373 -18.395   5.555  0.00  0.00    -0.245 OA
BRANCH   8  10
ATOM     10  O   LIG    1       28.398 -17.952   4.628  0.00  0.00    -0.477 OA
ATOM     11  H   LIG    1       28.690 -17.852   3.709  0.00  0.00    +0.295 HD
ENDBRANCH   8  10
ENDBRANCH   7   8
BRANCH   7  12
ATOM     12  C   LIG    1       29.186 -19.932   7.726  0.00  0.00    +0.084 C 
BRANCH  12  13
ATOM     13  C   LIG    1       30.018 -18.938   8.552  0.00  0.00    -0.006 A 
ATOM     14  S   LIG    1       31.726 -19.230   8.698  0.00  0.00    -0.101 S 
ATOM     15  C   LIG    1       32.029 -17.632   9.232  0.00  0.00    +0.045 A 
ATOM     16  C   LIG    1       30.859 -16.968   9.507  0.00  0.00    +0.008 A 
ATOM     17  C   LIG    1       29.706 -17.759   9.207  0.00  0.00    +0.011 A 
ENDBRANCH  12  13
ENDBRANCH   7  12
ENDBRANCH   3   6
BRANCH   1  18
ATOM     18  C   LIG    1       23.407 -23.000   7.048  0.00  0.00    +0.074 C 
BRANCH  18  19
ATOM     19  C   LIG    1       23.249 -24.413   6.505  0.00  0.00    +0.007 C 
BRANCH  19  21
ATOM     20  C   LIG    1       24.919 -25.522   5.005  0.00  0.00    +0.004 C 
ATOM     21  C   LIG    1       24.581 -25.134   6.426  0.00  0.00    -0.003 C 
ENDBRANCH  19  21
ENDBRANCH  18  19
ENDBRANCH   1  18
BRANCH   2  22
ATOM     22  C   LIG    1       24.878 -21.462   4.603  0.00  0.00    +0.158 C 
BRANCH  22  23
ATOM     23  C   LIG    1       24.179 -20.118   4.425  0.00  0.00    -0.028 A 
ATOM     24  C   LIG    1       24.869 -19.079   3.767  0.00  0.00    +0.006 A 
ATOM     25  C   LIG    1       24.369 -17.765   3.765  0.00  0.00    +0.015 A 
ATOM     26  C   LIG    1       23.169 -17.468   4.420  0.00  0.00    +0.059 A 
ATOM     27  C   LIG    1       22.443 -18.507   5.008  0.00  0.00    +0.015 A 
ATOM     28  C   LIG    1       22.917 -19.826   4.961  0.00  0.00    +0.006 A 
BRANCH  26  29
ATOM     29  C   LIG    1       22.769 -16.033   4.536  0.00  0.00    +0.337 C 
ATOM     30  O   LIG    1       23.235 -15.166   3.862  0.00  0.00    -0.245 OA
BRANCH  29  31
ATOM     31  O   LIG    1       21.803 -15.820   5.475  0.00  0.00    -0.477 OA
ATOM     32  H   LIG    1       21.535 -16.590   5.998  0.00  0.00    +0.295 HD
ENDBRANCH  29  31
ENDBRANCH  26  29
ENDBRANCH  22  23
ENDBRANCH   2  22
TORSDOF 12
ENDMDL
MODEL 7
REMARK VINA RESULT:      -7.1      3.836      8.179
REMARK  Name = *****
REMARK                            x       y       z     vdW  Elec       q    Type
REMARK                         _______ _______ _______ _____ _____    ______ ____
ROOT
ATOM      1  C   LIG    1       27.744 -20.579   7.161  0.00  0.00    +0.110 A 
ATOM      2  N   LIG    1       26.599 -21.094   6.547  0.00  0.00    -0.324 N 
ATOM      3  C   LIG    1       25.914 -21.804   7.546  0.00  0.00    +0.062 A 
ATOM      4  C   LIG    1       26.622 -21.540   8.695  0.00  0.00    +0.138 A 
ATOM      5  N   LIG    1       27.670 -20.719   8.466  0.00  0.00    -0.240 NA
ENDROOT
BRANCH   3   6
ATOM      6  C   LIG    1       24.770 -22.609   7.294  0.00  0.00    +0.038 C 
ATOM      7  C   LIG    1       24.789 -23.876   6.794  0.00  0.00    +0.043 C 
BRANCH   7   8
ATOM      8  C   LIG    1       23.454 -24.520   6.589  0.00  0.00    +0.333 C 
ATOM      9  O   LIG    1       23.311 -25.676   6.249  0.00  0.00    -0.245 OA
BRANCH   8  10
ATOM     10  O   LIG    1       22.378 -23.719   6.756  0.00  0.00    -0.477 OA
ATOM     11  H   LIG    1       22.518 -22.783   6.968  0.00  0.00    +0.295 HD
ENDBRANCH   8  10
ENDBRANCH   7   8
BRANCH   7  12
ATOM     12  C   LIG    1       26.025 -24.778   6.547  0.00  0.00    +0.084 C 
BRANCH  12  13
ATOM     13  C   LIG    1       25.978 -26.247   6.099  0.00  0.00    -0.006 A 
ATOM     14  S   LIG    1       25.928 -27.474   7.331  0.00  0.00    -0.101 S 
ATOM     15  C   LIG    1       25.411 -28.671   6.222  0.00  0.00    +0.045 A 
ATOM     16  C   LIG    1       25.489 -28.220   4.928  0.00  0.00    +0.008 A 
ATOM     17  C   LIG    1       25.910 -26.854   4.857  0.00  0.00    +0.011 A 
ENDBRANCH  12  13
ENDBRANCH   7  12
ENDBRANCH   3   6
BRANCH   1  18
ATOM     18  C   LIG    1       29.007 -20.061   6.545  0.00  0.00    +0.074 C 
BRANCH  18  19
ATOM     19  C   LIG    1       30.219 -20.164   7.460  0.00  0.00    +0.007 C 
BRANCH  19  21
ATOM     20  C   LIG    1       30.250 -18.051   8.805  0.00  0.00    +0.004 C 
ATOM     21  C   LIG    1       30.882 -18.815   7.663  0.00  0.00    -0.003 C 
ENDBRANCH  19  21
ENDBRANCH  18  19
ENDBRANCH   1  18
BRANCH   2  22
ATOM     22  C   LIG    1       26.295 -21.097   5.105  0.00  0.00    +0.158 C 
BRANCH  22  23
ATOM     23  C   LIG    1       24.996 -20.420   4.679  0.00  0.00    -0.028 A 
ATOM     24  C   LIG    1       25.069 -19.259   3.883  0.00  0.00    +0.006 A 
ATOM     25  C   LIG    1       23.929 -18.472   3.642  0.00  0.00    +0.015 A 
ATOM     26  C   LIG    1       22.695 -18.835   4.193  0.00  0.00    +0.059 A 
ATOM     27  C   LIG    1       22.601 -20.025   4.920  0.00  0.00    +0.015 A 
ATOM     28  C   LIG    1       23.729 -20.836   5.112  0.00  0.00    +0.006 A 
BRANCH  26  29
ATOM     29  C   LIG    1       21.555 -17.880   4.053  0.00  0.00    +0.337 C 
ATOM     30  O   LIG    1       20.546 -18.144   3.472  0.00  0.00    -0.245 OA
BRANCH  29  31
ATOM     31  O   LIG    1       21.776 -16.687   4.674  0.00  0.00    -0.477 OA
ATOM     32  H   LIG    1       21.014 -16.282   5.114  0.00  0.00    +0.295 HD
ENDBRANCH  29  31
ENDBRANCH  26  29
ENDBRANCH  22  23
ENDBRANCH   2  22
TORSDOF 12
ENDMDL
MODEL 8
REMARK VINA RESULT:      -7.0      3.244      6.333
REMARK  Name = *****
REMARK                            x       y       z     vdW  Elec       q    Type
REMARK                         _______ _______ _______ _____ _____    ______ ____
ROOT
ATOM      1  C   LIG    1       27.564 -20.661   6.639  0.00  0.00    +0.110 A 
ATOM      2  N   LIG    1       26.201 -20.967   6.595  0.00  0.00    -0.324 N 
ATOM      3  C   LIG    1       25.672 -20.217   5.533  0.00  0.00    +0.062 A 
ATOM      4  C   LIG    1       26.774 -19.640   4.945  0.00  0.00    +0.138 A 
ATOM      5  N   LIG    1       27.921 -19.994   5.564  0.00  0.00    -0.240 NA
ENDROOT
BRANCH   3   6
ATOM      6  C   LIG    1       24.283 -20.128   5.249  0.00  0.00    +0.038 C 
ATOM      7  C   LIG    1       23.700 -19.208   4.431  0.00  0.00    +0.043 C 
BRANCH   7   8
ATOM      8  C   LIG    1       22.211 -19.294   4.302  0.00  0.00    +0.333 C 
ATOM      9  O   LIG    1       21.515 -18.375   3.925  0.00  0.00    -0.245 OA
BRANCH   8  10
ATOM     10  O   LIG    1       21.651 -20.464   4.684  0.00  0.00    -0.477 OA
ATOM     11  H   LIG    1       20.761 -20.455   5.067  0.00  0.00    +0.295 HD
ENDBRANCH   8  10
ENDBRANCH   7   8
BRANCH   7  12
ATOM     12  C   LIG    1       24.403 -18.178   3.512  0.00  0.00    +0.084 C 
BRANCH  12  13
ATOM     13  C   LIG    1       24.553 -16.677   3.808  0.00  0.00    -0.006 A 
ATOM     14  S   LIG    1       26.073 -15.920   3.433  0.00  0.00    -0.101 S 
ATOM     15  C   LIG    1       25.397 -14.350   3.519  0.00  0.00    +0.045 A 
ATOM     16  C   LIG    1       24.123 -14.382   4.032  0.00  0.00    +0.008 A 
ATOM     17  C   LIG    1       23.679 -15.718   4.289  0.00  0.00    +0.011 A 
ENDBRANCH  12  13
ENDBRANCH   7  12
ENDBRANCH   3   6
BRANCH   1  18
ATOM     18  C   LIG    1       28.553 -20.860   7.746  0.00  0.00    +0.074 C 
BRANCH  18  19
ATOM     19  C   LIG    1       29.953 -20.370   7.409  0.00  0.00    +0.007 C 
BRANCH  19  21
ATOM     20  C   LIG    1       31.141 -21.849   9.045  0.00  0.00    +0.004 C 
ATOM     21  C   LIG    1       30.870 -20.425   8.616  0.00  0.00    -0.003 C 
ENDBRANCH  19  21
ENDBRANCH  18  19
ENDBRANCH   1  18
BRANCH   2  22
ATOM     22  C   LIG    1       25.433 -21.728   7.598  0.00  0.00    +0.158 C 
BRANCH  22  23
ATOM     23  C   LIG    1       25.112 -23.180   7.256  0.00  0.00    -0.028 A 
ATOM     24  C   LIG    1       26.164 -24.118   7.240  0.00  0.00    +0.006 A 
ATOM     25  C   LIG    1       25.973 -25.412   6.725  0.00  0.00    +0.015 A 
ATOM     26  C   LIG    1       24.724 -25.790   6.219  0.00  0.00    +0.059 A 
ATOM     27  C   LIG    1       23.659 -24.889   6.301  0.00  0.00    +0.015 A 
ATOM     28  C   LIG    1       23.840 -23.619   6.866  0.00  0.00    +0.006 A 
BRANCH  26  29
ATOM     29  C   LIG    1       24.617 -27.111   5.528  0.00  0.00    +0.337 C 
ATOM     30  O   LIG    1       25.303 -27.424   4.603  0.00  0.00    -0.245 OA
BRANCH  29  31
ATOM     31  O   LIG    1       23.672 -27.927   6.076  0.00  0.00    -0.477 OA
ATOM     32  H   LIG    1       23.999 -28.702   6.557  0.00  0.00    +0.295 HD
ENDBRANCH  29  31
ENDBRANCH  26  29
ENDBRANCH  22  23
ENDBRANCH   2  22
TORSDOF 12
ENDMDL
MODEL 9
REMARK VINA RESULT:      -7.0      4.514      7.633
REMARK  Name = *****
REMARK                            x       y       z     vdW  Elec       q    Type
REMARK                         _______ _______ _______ _____ _____    ______ ____
ROOT
ATOM      1  C   LIG    1       24.907 -27.704   5.861  0.00  0.00    +0.110 A 
ATOM      2  N   LIG    1       25.609 -26.965   6.817  0.00  0.00    -0.324 N 
ATOM      3  C   LIG    1       25.277 -25.621   6.582  0.00  0.00    +0.062 A 
ATOM      4  C   LIG    1       24.306 -25.677   5.610  0.00  0.00    +0.138 A 
ATOM      5  N   LIG    1       24.022 -26.948   5.250  0.00  0.00    -0.240 NA
ENDROOT
BRANCH   3   6
ATOM      6  C   LIG    1       25.900 -24.530   7.246  0.00  0.00    +0.038 C 
ATOM      7  C   LIG    1       25.408 -23.261   7.317  0.00  0.00    +0.043 C 
BRANCH   7   8
ATOM      8  C   LIG    1       26.254 -22.270   8.052  0.00  0.00    +0.333 C 
ATOM      9  O   LIG    1       27.385 -21.978   7.725  0.00  0.00    -0.245 OA
BRANCH   8  10
ATOM     10  O   LIG    1       25.705 -21.732   9.164  0.00  0.00    -0.477 OA
ATOM     11  H   LIG    1       26.271 -21.558   9.931  0.00  0.00    +0.295 HD
ENDBRANCH   8  10
ENDBRANCH   7   8
BRANCH   7  12
ATOM     12  C   LIG    1       24.019 -22.758   6.852  0.00  0.00    +0.084 C 
BRANCH  12  13
ATOM     13  C   LIG    1       23.757 -21.453   6.083  0.00  0.00    -0.006 A 
ATOM     14  S   LIG    1       24.708 -21.140   4.661  0.00  0.00    -0.101 S 
ATOM     15  C   LIG    1       23.626 -19.933   4.112  0.00  0.00    +0.045 A 
ATOM     16  C   LIG    1       22.699 -19.618   5.075  0.00  0.00    +0.008 A 
ATOM     17  C   LIG    1       22.841 -20.428   6.246  0.00  0.00    +0.011 A 
ENDBRANCH  12  13
ENDBRANCH   7  12
ENDBRANCH   3   6
BRANCH   1  18
ATOM     18  C   LIG    1       25.131 -29.107   5.387  0.00  0.00    +0.074 C 
BRANCH  18  19
ATOM     19  C   LIG    1       24.013 -30.067   5.768  0.00  0.00    +0.007 C 
BRANCH  19  21
ATOM     20  C   LIG    1       25.950 -31.627   5.472  0.00  0.00    +0.004 C 
ATOM     21  C   LIG    1       24.533 -31.477   5.976  0.00  0.00    -0.003 C 
ENDBRANCH  19  21
ENDBRANCH  18  19
ENDBRANCH   1  18
BRANCH   2  22
ATOM     22  C   LIG    1       26.659 -27.462   7.724  0.00  0.00    +0.158 C 
BRANCH  22  23
ATOM     23  C   LIG    1       26.194 -28.276   8.928  0.00  0.00    -0.028 A 
ATOM     24  C   LIG    1       26.729 -27.972  10.196  0.00  0.00    +0.006 A 
ATOM     25  C   LIG    1       26.509 -28.818  11.297  0.00  0.00    +0.015 A 
ATOM     26  C   LIG    1       25.748 -29.983  11.148  0.00  0.00    +0.059 A 
ATOM     27  C   LIG    1       25.153 -30.250   9.912  0.00  0.00    +0.015 A 
ATOM     28  C   LIG    1       25.329 -29.375   8.831  0.00  0.00    +0.006 A 
BRANCH  26  29
ATOM     29  C   LIG    1       25.686 -30.934  12.299  0.00  0.00    +0.337 C 
ATOM     30  O   LIG    1       25.585 -30.582  13.435  0.00  0.00    -0.245 OA
BRANCH  29  31
ATOM     31  O   LIG    1       25.736 -32.242  11.916  0.00  0.00    -0.477 OA
ATOM     32  H   LIG    1       25.266 -32.873  12.480  0.00  0.00    +0.295 HD
ENDBRANCH  29  31
ENDBRANCH  26  29
ENDBRANCH  22  23
ENDBRANCH   2  22
TORSDOF 12
ENDMDL
