MODEL 1
REMARK VINA RESULT:      -5.5      0.000      0.000
REMARK  Name = *****
REMARK                            x       y       z     vdW  Elec       q    Type
REMARK                         _______ _______ _______ _____ _____    ______ ____
ROOT
ATOM      1  C   LIG    1       24.832 -20.294   4.802  0.00  0.00    +0.072 C 
ATOM      2  C   LIG    1       24.744 -19.082   3.846  0.00  0.00    +0.230 C 
ATOM      3  O   LIG    1       25.647 -18.747   3.078  0.00  0.00    -0.274 OA
ATOM      4  N   LIG    1       23.550 -18.402   3.793  0.00  0.00    -0.256 N 
ATOM      5  H   LIG    1       23.515 -17.644   3.124  0.00  0.00    +0.158 HD
ATOM      6  C   LIG    1       22.373 -18.667   4.443  0.00  0.00    +0.219 C 
ATOM      7  O   LIG    1       21.351 -18.042   4.184  0.00  0.00    -0.275 OA
ATOM      8  C   LIG    1       22.390 -19.813   5.421  0.00  0.00    +0.097 C 
ATOM      9  C   LIG    1       23.795 -20.079   5.941  0.00  0.00    +0.030 C 
ENDROOT
BRANCH   1  10
ATOM     10  C   LIG    1       26.203 -20.425   5.505  0.00  0.00    -0.032 A 
ATOM     11  C   LIG    1       27.274 -19.566   5.185  0.00  0.00    +0.005 A 
ATOM     12  C   LIG    1       28.516 -19.682   5.814  0.00  0.00    +0.000 A 
ATOM     13  C   LIG    1       28.730 -20.681   6.756  0.00  0.00    +0.000 A 
ATOM     14  C   LIG    1       27.705 -21.568   7.062  0.00  0.00    +0.000 A 
ATOM     15  C   LIG    1       26.457 -21.447   6.440  0.00  0.00    +0.005 A 
ENDBRANCH   1  10
BRANCH   1  17
ATOM     16  C   LIG    1       23.850 -21.256   2.582  0.00  0.00    +0.005 C 
ATOM     17  C   LIG    1       24.451 -21.553   3.956  0.00  0.00    +0.017 C 
ENDBRANCH   1  17
TORSDOF 2
ENDMDL
MODEL 2
REMARK VINA RESULT:      -5.1      5.127      6.997
REMARK  Name = *****
REMARK                            x       y       z     vdW  Elec       q    Type
REMARK                         _______ _______ _______ _____ _____    ______ ____
ROOT
ATOM      1  C   LIG    1       25.514 -14.110   4.048  0.00  0.00    +0.072 C 
ATOM      2  C   LIG    1       26.627 -14.038   2.977  0.00  0.00    +0.230 C 
ATOM      3  O   LIG    1       26.482 -14.410   1.812  0.00  0.00    -0.274 OA
ATOM      4  N   LIG    1       27.811 -13.436   3.333  0.00  0.00    -0.256 N 
ATOM      5  H   LIG    1       28.498 -13.366   2.594  0.00  0.00    +0.158 HD
ATOM      6  C   LIG    1       28.153 -12.831   4.514  0.00  0.00    +0.219 C 
ATOM      7  O   LIG    1       29.208 -12.217   4.629  0.00  0.00    -0.275 OA
ATOM      8  C   LIG    1       27.133 -12.893   5.621  0.00  0.00    +0.097 C 
ATOM      9  C   LIG    1       26.195 -14.077   5.446  0.00  0.00    +0.030 C 
ENDROOT
BRANCH   1  10
ATOM     10  C   LIG    1       24.706 -15.428   4.008  0.00  0.00    -0.032 A 
ATOM     11  C   LIG    1       23.357 -15.472   4.411  0.00  0.00    +0.005 A 
ATOM     12  C   LIG    1       22.623 -16.660   4.381  0.00  0.00    +0.000 A 
ATOM     13  C   LIG    1       23.230 -17.844   3.978  0.00  0.00    +0.000 A 
ATOM     14  C   LIG    1       24.571 -17.839   3.614  0.00  0.00    +0.000 A 
ATOM     15  C   LIG    1       25.304 -16.647   3.635  0.00  0.00    +0.005 A 
ENDBRANCH   1  10
BRANCH   1  17
ATOM     16  C   LIG    1       24.255 -12.523   2.402  0.00  0.00    +0.005 C 
ATOM     17  C   LIG    1       24.626 -12.838   3.851  0.00  0.00    +0.017 C 
ENDBRANCH   1  17
TORSDOF 2
ENDMDL
MODEL 3
REMARK VINA RESULT:      -3.7      4.484      5.998
REMARK  Name = *****
REMARK                            x       y       z     vdW  Elec       q    Type
REMARK                         _______ _______ _______ _____ _____    ______ ____
ROOT
ATOM      1  C   LIG    1       25.403 -15.041   3.671  0.00  0.00    +0.072 C 
ATOM      2  C   LIG    1       24.008 -14.407   3.873  0.00  0.00    +0.230 C 
ATOM      3  O   LIG    1       23.175 -14.825   4.678  0.00  0.00    -0.274 OA
ATOM      4  N   LIG    1       23.728 -13.255   3.175  0.00  0.00    -0.256 N 
ATOM      5  H   LIG    1       22.824 -12.844   3.367  0.00  0.00    +0.158 HD
ATOM      6  C   LIG    1       24.536 -12.535   2.335  0.00  0.00    +0.219 C 
ATOM      7  O   LIG    1       24.180 -11.448   1.893  0.00  0.00    -0.275 OA
ATOM      8  C   LIG    1       25.900 -13.109   2.059  0.00  0.00    +0.097 C 
ATOM      9  C   LIG    1       25.921 -14.616   2.268  0.00  0.00    +0.030 C 
ENDROOT
BRANCH   1  10
ATOM     10  C   LIG    1       25.380 -16.587   3.657  0.00  0.00    -0.032 A 
ATOM     11  C   LIG    1       24.168 -17.301   3.740  0.00  0.00    +0.005 A 
ATOM     12  C   LIG    1       24.140 -18.698   3.732  0.00  0.00    +0.000 A 
ATOM     13  C   LIG    1       25.327 -19.418   3.673  0.00  0.00    +0.000 A 
ATOM     14  C   LIG    1       26.540 -18.741   3.632  0.00  0.00    +0.000 A 
ATOM     15  C   LIG    1       26.568 -17.342   3.631  0.00  0.00    +0.005 A 
ENDBRANCH   1  10
BRANCH   1  17
ATOM     16  C   LIG    1       27.732 -14.063   4.333  0.00  0.00    +0.005 C 
ATOM     17  C   LIG    1       26.324 -14.449   4.788  0.00  0.00    +0.017 C 
ENDBRANCH   1  17
TORSDOF 2
ENDMDL
MODEL 4
REMARK VINA RESULT:      -3.4      1.065      1.908
REMARK  Name = *****
REMARK                            x       y       z     vdW  Elec       q    Type
REMARK                         _______ _______ _______ _____ _____    ______ ____
ROOT
ATOM      1  C   LIG    1       24.438 -20.287   5.174  0.00  0.00    +0.072 C 
ATOM      2  C   LIG    1       24.196 -20.135   3.654  0.00  0.00    +0.230 C 
ATOM      3  O   LIG    1       24.842 -20.734   2.793  0.00  0.00    -0.274 OA
ATOM      4  N   LIG    1       23.135 -19.356   3.256  0.00  0.00    -0.256 N 
ATOM      5  H   LIG    1       22.979 -19.316   2.258  0.00  0.00    +0.158 HD
ATOM      6  C   LIG    1       22.202 -18.708   4.023  0.00  0.00    +0.219 C 
ATOM      7  O   LIG    1       21.231 -18.161   3.511  0.00  0.00    -0.275 OA
ATOM      8  C   LIG    1       22.392 -18.779   5.515  0.00  0.00    +0.097 C 
ATOM      9  C   LIG    1       23.848 -19.034   5.878  0.00  0.00    +0.030 C 
ENDROOT
BRANCH   1  10
ATOM     10  C   LIG    1       25.936 -20.316   5.558  0.00  0.00    -0.032 A 
ATOM     11  C   LIG    1       26.406 -21.130   6.607  0.00  0.00    +0.005 A 
ATOM     12  C   LIG    1       27.757 -21.157   6.962  0.00  0.00    +0.000 A 
ATOM     13  C   LIG    1       28.669 -20.345   6.298  0.00  0.00    +0.000 A 
ATOM     14  C   LIG    1       28.226 -19.501   5.286  0.00  0.00    +0.000 A 
ATOM     15  C   LIG    1       26.875 -19.480   4.924  0.00  0.00    +0.005 A 
ENDBRANCH   1  10
BRANCH   1  17
ATOM     16  C   LIG    1       23.085 -21.524   7.033  0.00  0.00    +0.005 C 
ATOM     17  C   LIG    1       23.663 -21.571   5.619  0.00  0.00    +0.017 C 
ENDBRANCH   1  17
TORSDOF 2
ENDMDL
MODEL 5
REMARK VINA RESULT:      -2.9      2.294      5.078
REMARK  Name = *****
REMARK                            x       y       z     vdW  Elec       q    Type
REMARK                         _______ _______ _______ _____ _____    ______ ____
ROOT
ATOM      1  C   LIG    1       24.496 -20.237   4.909  0.00  0.00    +0.072 C 
ATOM      2  C   LIG    1       24.565 -20.633   6.402  0.00  0.00    +0.230 C 
ATOM      3  O   LIG    1       23.590 -20.993   7.062  0.00  0.00    -0.274 OA
ATOM      4  N   LIG    1       25.808 -20.671   6.990  0.00  0.00    -0.256 N 
ATOM      5  H   LIG    1       25.820 -20.978   7.953  0.00  0.00    +0.158 HD
ATOM      6  C   LIG    1       27.038 -20.448   6.429  0.00  0.00    +0.219 C 
ATOM      7  O   LIG    1       28.069 -20.655   7.059  0.00  0.00    -0.275 OA
ATOM      8  C   LIG    1       27.050 -20.021   4.984  0.00  0.00    +0.097 C 
ATOM      9  C   LIG    1       25.738 -19.358   4.590  0.00  0.00    +0.030 C 
ENDROOT
BRANCH   1  10
ATOM     10  C   LIG    1       23.267 -19.364   4.561  0.00  0.00    -0.032 A 
ATOM     11  C   LIG    1       23.381 -17.967   4.415  0.00  0.00    +0.005 A 
ATOM     12  C   LIG    1       22.274 -17.172   4.105  0.00  0.00    +0.000 A 
ATOM     13  C   LIG    1       21.018 -17.750   3.965  0.00  0.00    +0.000 A 
ATOM     14  C   LIG    1       20.869 -19.121   4.144  0.00  0.00    +0.000 A 
ATOM     15  C   LIG    1       21.979 -19.918   4.445  0.00  0.00    +0.005 A 
ENDBRANCH   1  10
BRANCH   1  17
ATOM     16  C   LIG    1       24.121 -21.459   2.632  0.00  0.00    +0.005 C 
ATOM     17  C   LIG    1       24.554 -21.571   4.094  0.00  0.00    +0.017 C 
ENDBRANCH   1  17
TORSDOF 2
ENDMDL
MODEL 6
REMARK VINA RESULT:      -2.7      4.564      5.941
REMARK  Name = *****
REMARK                            x       y       z     vdW  Elec       q    Type
REMARK                         _______ _______ _______ _____ _____    ______ ____
ROOT
ATOM      1  C   LIG    1       25.180 -15.009   3.650  0.00  0.00    +0.072 C 
ATOM      2  C   LIG    1       26.243 -14.524   4.663  0.00  0.00    +0.230 C 
ATOM      3  O   LIG    1       27.337 -15.068   4.822  0.00  0.00    -0.274 OA
ATOM      4  N   LIG    1       25.979 -13.364   5.353  0.00  0.00    -0.256 N 
ATOM      5  H   LIG    1       26.716 -13.053   5.972  0.00  0.00    +0.158 HD
ATOM      6  C   LIG    1       24.904 -12.520   5.247  0.00  0.00    +0.219 C 
ATOM      7  O   LIG    1       24.881 -11.447   5.839  0.00  0.00    -0.275 OA
ATOM      8  C   LIG    1       23.808 -12.944   4.306  0.00  0.00    +0.097 C 
ATOM      9  C   LIG    1       23.801 -14.452   4.104  0.00  0.00    +0.030 C 
ENDROOT
BRANCH   1  10
ATOM     10  C   LIG    1       25.019 -16.547   3.617  0.00  0.00    -0.032 A 
ATOM     11  C   LIG    1       23.794 -17.161   3.946  0.00  0.00    +0.005 A 
ATOM     12  C   LIG    1       23.643 -18.549   3.922  0.00  0.00    +0.000 A 
ATOM     13  C   LIG    1       24.723 -19.363   3.600  0.00  0.00    +0.000 A 
ATOM     14  C   LIG    1       25.954 -18.786   3.311  0.00  0.00    +0.000 A 
ATOM     15  C   LIG    1       26.104 -17.395   3.325  0.00  0.00    +0.005 A 
ENDBRANCH   1  10
BRANCH   1  17
ATOM     16  C   LIG    1       26.908 -13.646   2.245  0.00  0.00    +0.005 C 
ATOM     17  C   LIG    1       25.579 -14.401   2.265  0.00  0.00    +0.017 C 
ENDBRANCH   1  17
TORSDOF 2
ENDMDL
MODEL 7
REMARK VINA RESULT:      -2.5      2.573      4.272
REMARK  Name = *****
REMARK                            x       y       z     vdW  Elec       q    Type
REMARK                         _______ _______ _______ _____ _____    ______ ____
ROOT
ATOM      1  C   LIG    1       24.096 -18.649   4.033  0.00  0.00    +0.072 C 
ATOM      2  C   LIG    1       22.703 -18.641   4.703  0.00  0.00    +0.230 C 
ATOM      3  O   LIG    1       21.803 -17.854   4.406  0.00  0.00    -0.274 OA
ATOM      4  N   LIG    1       22.433 -19.634   5.616  0.00  0.00    -0.256 N 
ATOM      5  H   LIG    1       21.497 -19.624   5.999  0.00  0.00    +0.158 HD
ATOM      6  C   LIG    1       23.216 -20.690   6.003  0.00  0.00    +0.219 C 
ATOM      7  O   LIG    1       22.775 -21.572   6.732  0.00  0.00    -0.275 OA
ATOM      8  C   LIG    1       24.604 -20.745   5.420  0.00  0.00    +0.097 C 
ATOM      9  C   LIG    1       25.084 -19.365   4.996  0.00  0.00    +0.030 C 
ENDROOT
BRANCH   1  10
ATOM     10  C   LIG    1       24.680 -17.234   3.812  0.00  0.00    -0.032 A 
ATOM     11  C   LIG    1       26.006 -17.051   3.369  0.00  0.00    +0.005 A 
ATOM     12  C   LIG    1       26.541 -15.776   3.172  0.00  0.00    +0.000 A 
ATOM     13  C   LIG    1       25.774 -14.649   3.443  0.00  0.00    +0.000 A 
ATOM     14  C   LIG    1       24.477 -14.799   3.920  0.00  0.00    +0.000 A 
ATOM     15  C   LIG    1       23.937 -16.076   4.109  0.00  0.00    +0.005 A 
ENDBRANCH   1  10
BRANCH   1  17
ATOM     16  C   LIG    1       24.643 -20.827   2.700  0.00  0.00    +0.005 C 
ATOM     17  C   LIG    1       23.945 -19.467   2.708  0.00  0.00    +0.017 C 
ENDBRANCH   1  17
TORSDOF 2
ENDMDL
