MODEL 1
REMARK VINA RESULT:      -4.4      0.000      0.000
REMARK  Name = *****
REMARK                            x       y       z     vdW  Elec       q    Type
REMARK                         _______ _______ _______ _____ _____    ______ ____
ROOT
ATOM      1  C   LIG    1       25.617 -18.290   3.384  0.00  0.00    +0.180 C 
ATOM      2  O   LIG    1       25.716 -18.773   2.244  0.00  0.00    -0.290 OA
ENDROOT
BRANCH   1   3
ATOM      3  C   LIG    1       25.869 -16.816   3.557  0.00  0.00    +0.020 A 
ATOM      4  C   LIG    1       24.845 -15.862   3.601  0.00  0.00    +0.031 A 
ATOM      5  C   LIG    1       25.152 -14.506   3.757  0.00  0.00    +0.042 A 
ATOM      6 CL   LIG    1       23.876 -13.352   3.819  0.00  0.00    -0.084 Cl
ATOM      7  C   LIG    1       26.471 -14.079   3.873  0.00  0.00    +0.020 A 
ATOM      8  C   LIG    1       27.500 -15.015   3.818  0.00  0.00    +0.002 A 
ATOM      9  C   LIG    1       27.201 -16.372   3.653  0.00  0.00    +0.011 A 
ENDBRANCH   1   3
BRANCH   1  11
ATOM     10  C   LIG    1       26.451 -20.043   4.942  0.00  0.00    +0.032 C 
ATOM     11  C   LIG    1       25.232 -19.177   4.585  0.00  0.00    +0.123 C 
BRANCH  11  12
ATOM     12  N   LIG    1       24.119 -20.095   4.263  0.00  0.00    -0.302 NA
ATOM     13  H   LIG    1       23.865 -19.957   3.281  0.00  0.00    +0.123 HD
BRANCH  12  14
ATOM     14  C   LIG    1       22.909 -20.105   5.106  0.00  0.00    +0.011 C 
ATOM     15  C   LIG    1       22.256 -18.713   4.948  0.00  0.00    +0.027 C 
ATOM     16  C   LIG    1       23.196 -20.301   6.601  0.00  0.00    +0.027 C 
ATOM     17  C   LIG    1       21.884 -21.152   4.642  0.00  0.00    +0.027 C 
ENDBRANCH  12  14
ENDBRANCH  11  12
ENDBRANCH   1  11
TORSDOF 4
ENDMDL
MODEL 2
REMARK VINA RESULT:      -4.4      1.161      1.977
REMARK  Name = *****
REMARK                            x       y       z     vdW  Elec       q    Type
REMARK                         _______ _______ _______ _____ _____    ______ ____
ROOT
ATOM      1  C   LIG    1       25.566 -18.232   3.377  0.00  0.00    +0.180 C 
ATOM      2  O   LIG    1       25.839 -18.702   2.260  0.00  0.00    -0.290 OA
ENDROOT
BRANCH   1   3
ATOM      3  C   LIG    1       25.606 -16.736   3.549  0.00  0.00    +0.020 A 
ATOM      4  C   LIG    1       26.786 -15.987   3.474  0.00  0.00    +0.031 A 
ATOM      5  C   LIG    1       26.751 -14.599   3.650  0.00  0.00    +0.042 A 
ATOM      6 CL   LIG    1       28.214 -13.697   3.543  0.00  0.00    -0.084 Cl
ATOM      7  C   LIG    1       25.552 -13.939   3.899  0.00  0.00    +0.020 A 
ATOM      8  C   LIG    1       24.373 -14.673   3.988  0.00  0.00    +0.002 A 
ATOM      9  C   LIG    1       24.402 -16.062   3.823  0.00  0.00    +0.011 A 
ENDBRANCH   1   3
BRANCH   1  11
ATOM     10  C   LIG    1       26.404 -20.035   4.874  0.00  0.00    +0.032 C 
ATOM     11  C   LIG    1       25.185 -19.157   4.549  0.00  0.00    +0.123 C 
BRANCH  11  12
ATOM     12  N   LIG    1       24.069 -20.063   4.201  0.00  0.00    -0.302 NA
ATOM     13  H   LIG    1       23.887 -19.975   3.198  0.00  0.00    +0.123 HD
BRANCH  12  14
ATOM     14  C   LIG    1       22.804 -19.993   4.956  0.00  0.00    +0.011 C 
ATOM     15  C   LIG    1       23.175 -20.172   6.445  0.00  0.00    +0.027 C 
ATOM     16  C   LIG    1       21.809 -21.107   4.603  0.00  0.00    +0.027 C 
ATOM     17  C   LIG    1       22.114 -18.627   4.812  0.00  0.00    +0.027 C 
ENDBRANCH  12  14
ENDBRANCH  11  12
ENDBRANCH   1  11
TORSDOF 4
ENDMDL
MODEL 3
REMARK VINA RESULT:      -4.2      2.611      5.332
REMARK  Name = *****
REMARK                            x       y       z     vdW  Elec       q    Type
REMARK                         _______ _______ _______ _____ _____    ______ ____
ROOT
ATOM      1  C   LIG    1       26.504 -16.535   3.530  0.00  0.00    +0.180 C 
ATOM      2  O   LIG    1       27.697 -16.751   3.802  0.00  0.00    -0.290 OA
ENDROOT
BRANCH   1   3
ATOM      3  C   LIG    1       25.535 -17.683   3.620  0.00  0.00    +0.020 A 
ATOM      4  C   LIG    1       24.155 -17.512   3.787  0.00  0.00    +0.031 A 
ATOM      5  C   LIG    1       23.312 -18.626   3.870  0.00  0.00    +0.042 A 
ATOM      6 CL   LIG    1       21.618 -18.390   4.065  0.00  0.00    -0.084 Cl
ATOM      7  C   LIG    1       23.822 -19.918   3.786  0.00  0.00    +0.020 A 
ATOM      8  C   LIG    1       25.193 -20.103   3.631  0.00  0.00    +0.002 A 
ATOM      9  C   LIG    1       26.043 -18.994   3.558  0.00  0.00    +0.011 A 
ENDBRANCH   1   3
BRANCH   1  11
ATOM     10  C   LIG    1       27.248 -14.356   2.585  0.00  0.00    +0.032 C 
ATOM     11  C   LIG    1       26.032 -15.125   3.125  0.00  0.00    +0.123 C 
BRANCH  11  12
ATOM     12  N   LIG    1       25.504 -14.363   4.277  0.00  0.00    -0.302 NA
ATOM     13  H   LIG    1       25.450 -14.995   5.080  0.00  0.00    +0.123 HD
BRANCH  12  14
ATOM     14  C   LIG    1       24.248 -13.603   4.142  0.00  0.00    +0.011 C 
ATOM     15  C   LIG    1       23.118 -14.539   4.628  0.00  0.00    +0.027 C 
ATOM     16  C   LIG    1       23.915 -13.208   2.696  0.00  0.00    +0.027 C 
ATOM     17  C   LIG    1       24.225 -12.350   5.031  0.00  0.00    +0.027 C 
ENDBRANCH  12  14
ENDBRANCH  11  12
ENDBRANCH   1  11
TORSDOF 4
ENDMDL
MODEL 4
REMARK VINA RESULT:      -4.1      2.056      2.921
REMARK  Name = *****
REMARK                            x       y       z     vdW  Elec       q    Type
REMARK                         _______ _______ _______ _____ _____    ______ ____
ROOT
ATOM      1  C   LIG    1       22.692 -16.407   4.744  0.00  0.00    +0.180 C 
ATOM      2  O   LIG    1       21.965 -15.944   5.639  0.00  0.00    -0.290 OA
ENDROOT
BRANCH   1   3
ATOM      3  C   LIG    1       23.713 -15.497   4.114  0.00  0.00    +0.020 A 
ATOM      4  C   LIG    1       23.448 -14.165   3.774  0.00  0.00    +0.031 A 
ATOM      5  C   LIG    1       24.443 -13.377   3.185  0.00  0.00    +0.042 A 
ATOM      6 CL   LIG    1       24.097 -11.739   2.784  0.00  0.00    -0.084 Cl
ATOM      7  C   LIG    1       25.709 -13.895   2.930  0.00  0.00    +0.020 A 
ATOM      8  C   LIG    1       25.983 -15.222   3.252  0.00  0.00    +0.002 A 
ATOM      9  C   LIG    1       24.989 -16.018   3.832  0.00  0.00    +0.011 A 
ENDBRANCH   1   3
BRANCH   1  11
ATOM     10  C   LIG    1       21.244 -18.015   3.513  0.00  0.00    +0.032 C 
ATOM     11  C   LIG    1       22.557 -17.877   4.301  0.00  0.00    +0.123 C 
BRANCH  11  12
ATOM     12  N   LIG    1       22.477 -18.799   5.455  0.00  0.00    -0.302 NA
ATOM     13  H   LIG    1       22.844 -18.314   6.278  0.00  0.00    +0.123 HD
BRANCH  12  14
ATOM     14  C   LIG    1       23.060 -20.150   5.357  0.00  0.00    +0.011 C 
ATOM     15  C   LIG    1       23.548 -20.518   6.776  0.00  0.00    +0.027 C 
ATOM     16  C   LIG    1       24.277 -20.233   4.426  0.00  0.00    +0.027 C 
ATOM     17  C   LIG    1       22.023 -21.203   4.936  0.00  0.00    +0.027 C 
ENDBRANCH  12  14
ENDBRANCH  11  12
ENDBRANCH   1  11
TORSDOF 4
ENDMDL
MODEL 5
REMARK VINA RESULT:      -4.1      3.448      4.718
REMARK  Name = *****
REMARK                            x       y       z     vdW  Elec       q    Type
REMARK                         _______ _______ _______ _____ _____    ______ ____
ROOT
ATOM      1  C   LIG    1       24.722 -20.835   5.204  0.00  0.00    +0.180 C 
ATOM      2  O   LIG    1       24.529 -21.499   4.172  0.00  0.00    -0.290 OA
ENDROOT
BRANCH   1   3
ATOM      3  C   LIG    1       26.141 -20.644   5.671  0.00  0.00    +0.020 A 
ATOM      4  C   LIG    1       26.964 -19.605   5.222  0.00  0.00    +0.031 A 
ATOM      5  C   LIG    1       28.276 -19.492   5.695  0.00  0.00    +0.042 A 
ATOM      6 CL   LIG    1       29.267 -18.199   5.136  0.00  0.00    -0.084 Cl
ATOM      7  C   LIG    1       28.787 -20.401   6.616  0.00  0.00    +0.020 A 
ATOM      8  C   LIG    1       27.983 -21.447   7.062  0.00  0.00    +0.002 A 
ATOM      9  C   LIG    1       26.673 -21.572   6.586  0.00  0.00    +0.011 A 
ENDBRANCH   1   3
BRANCH   1  11
ATOM     10  C   LIG    1       23.109 -21.207   7.062  0.00  0.00    +0.032 C 
ATOM     11  C   LIG    1       23.541 -20.212   5.973  0.00  0.00    +0.123 C 
BRANCH  11  12
ATOM     12  N   LIG    1       22.370 -19.979   5.100  0.00  0.00    -0.302 NA
ATOM     13  H   LIG    1       22.234 -20.811   4.520  0.00  0.00    +0.123 HD
BRANCH  12  14
ATOM     14  C   LIG    1       22.305 -18.762   4.269  0.00  0.00    +0.011 C 
ATOM     15  C   LIG    1       22.318 -17.566   5.247  0.00  0.00    +0.027 C 
ATOM     16  C   LIG    1       21.021 -18.650   3.435  0.00  0.00    +0.027 C 
ATOM     17  C   LIG    1       23.526 -18.620   3.347  0.00  0.00    +0.027 C 
ENDBRANCH  12  14
ENDBRANCH  11  12
ENDBRANCH   1  11
TORSDOF 4
ENDMDL
MODEL 6
REMARK VINA RESULT:      -3.6      2.301      3.343
REMARK  Name = *****
REMARK                            x       y       z     vdW  Elec       q    Type
REMARK                         _______ _______ _______ _____ _____    ______ ____
ROOT
ATOM      1  C   LIG    1       22.612 -16.283   4.773  0.00  0.00    +0.180 C 
ATOM      2  O   LIG    1       21.870 -15.868   5.679  0.00  0.00    -0.290 OA
ENDROOT
BRANCH   1   3
ATOM      3  C   LIG    1       23.604 -15.324   4.171  0.00  0.00    +0.020 A 
ATOM      4  C   LIG    1       24.980 -15.577   4.117  0.00  0.00    +0.031 A 
ATOM      5  C   LIG    1       25.847 -14.638   3.548  0.00  0.00    +0.042 A 
ATOM      6 CL   LIG    1       27.534 -14.975   3.483  0.00  0.00    -0.084 Cl
ATOM      7  C   LIG    1       25.364 -13.441   3.026  0.00  0.00    +0.020 A 
ATOM      8  C   LIG    1       24.000 -13.171   3.084  0.00  0.00    +0.002 A 
ATOM      9  C   LIG    1       23.129 -14.102   3.660  0.00  0.00    +0.011 A 
ENDBRANCH   1   3
BRANCH   1  11
ATOM     10  C   LIG    1       21.221 -17.899   3.489  0.00  0.00    +0.032 C 
ATOM     11  C   LIG    1       22.524 -17.744   4.290  0.00  0.00    +0.123 C 
BRANCH  11  12
ATOM     12  N   LIG    1       22.464 -18.698   5.418  0.00  0.00    -0.302 NA
ATOM     13  H   LIG    1       22.860 -18.242   6.244  0.00  0.00    +0.123 HD
BRANCH  12  14
ATOM     14  C   LIG    1       23.029 -20.052   5.264  0.00  0.00    +0.011 C 
ATOM     15  C   LIG    1       23.567 -20.460   6.654  0.00  0.00    +0.027 C 
ATOM     16  C   LIG    1       24.208 -20.124   4.284  0.00  0.00    +0.027 C 
ATOM     17  C   LIG    1       21.965 -21.085   4.859  0.00  0.00    +0.027 C 
ENDBRANCH  12  14
ENDBRANCH  11  12
ENDBRANCH   1  11
TORSDOF 4
ENDMDL
MODEL 7
REMARK VINA RESULT:      -3.5      1.558      2.550
REMARK  Name = *****
REMARK                            x       y       z     vdW  Elec       q    Type
REMARK                         _______ _______ _______ _____ _____    ______ ____
ROOT
ATOM      1  C   LIG    1       24.725 -18.006   3.691  0.00  0.00    +0.180 C 
ATOM      2  O   LIG    1       25.704 -18.677   3.326  0.00  0.00    -0.290 OA
ENDROOT
BRANCH   1   3
ATOM      3  C   LIG    1       24.867 -16.508   3.740  0.00  0.00    +0.020 A 
ATOM      4  C   LIG    1       26.045 -15.837   3.388  0.00  0.00    +0.031 A 
ATOM      5  C   LIG    1       26.109 -14.442   3.463  0.00  0.00    +0.042 A 
ATOM      6 CL   LIG    1       27.565 -13.638   3.015  0.00  0.00    -0.084 Cl
ATOM      7  C   LIG    1       25.013 -13.695   3.883  0.00  0.00    +0.020 A 
ATOM      8  C   LIG    1       23.839 -14.350   4.248  0.00  0.00    +0.002 A 
ATOM      9  C   LIG    1       23.771 -15.746   4.185  0.00  0.00    +0.011 A 
ENDBRANCH   1   3
BRANCH   1  11
ATOM     10  C   LIG    1       22.342 -17.594   4.277  0.00  0.00    +0.032 C 
ATOM     11  C   LIG    1       23.398 -18.692   4.072  0.00  0.00    +0.123 C 
BRANCH  11  12
ATOM     12  N   LIG    1       23.505 -19.443   5.341  0.00  0.00    -0.302 NA
ATOM     13  H   LIG    1       24.430 -19.265   5.741  0.00  0.00    +0.123 HD
BRANCH  12  14
ATOM     14  C   LIG    1       23.210 -20.888   5.365  0.00  0.00    +0.011 C 
ATOM     15  C   LIG    1       24.264 -21.563   4.459  0.00  0.00    +0.027 C 
ATOM     16  C   LIG    1       21.830 -21.248   4.797  0.00  0.00    +0.027 C 
ATOM     17  C   LIG    1       23.355 -21.489   6.772  0.00  0.00    +0.027 C 
ENDBRANCH  12  14
ENDBRANCH  11  12
ENDBRANCH   1  11
TORSDOF 4
ENDMDL
MODEL 8
REMARK VINA RESULT:      -3.4      2.641      5.821
REMARK  Name = *****
REMARK                            x       y       z     vdW  Elec       q    Type
REMARK                         _______ _______ _______ _____ _____    ______ ____
ROOT
ATOM      1  C   LIG    1       25.221 -17.775   3.522  0.00  0.00    +0.180 C 
ATOM      2  O   LIG    1       25.997 -17.849   2.555  0.00  0.00    -0.290 OA
ENDROOT
BRANCH   1   3
ATOM      3  C   LIG    1       24.727 -19.057   4.139  0.00  0.00    +0.020 A 
ATOM      4  C   LIG    1       23.383 -19.447   4.126  0.00  0.00    +0.031 A 
ATOM      5  C   LIG    1       22.993 -20.650   4.724  0.00  0.00    +0.042 A 
ATOM      6 CL   LIG    1       21.335 -21.113   4.688  0.00  0.00    -0.084 Cl
ATOM      7  C   LIG    1       23.926 -21.481   5.337  0.00  0.00    +0.020 A 
ATOM      8  C   LIG    1       25.264 -21.100   5.367  0.00  0.00    +0.002 A 
ATOM      9  C   LIG    1       25.660 -19.893   4.780  0.00  0.00    +0.011 A 
ENDBRANCH   1   3
BRANCH   1  11
ATOM     10  C   LIG    1       23.255 -16.392   4.165  0.00  0.00    +0.032 C 
ATOM     11  C   LIG    1       24.790 -16.406   4.082  0.00  0.00    +0.123 C 
BRANCH  11  12
ATOM     12  N   LIG    1       25.193 -15.291   3.198  0.00  0.00    -0.302 NA
ATOM     13  H   LIG    1       25.501 -15.687   2.306  0.00  0.00    +0.123 HD
BRANCH  12  14
ATOM     14  C   LIG    1       26.167 -14.292   3.675  0.00  0.00    +0.011 C 
ATOM     15  C   LIG    1       26.317 -13.254   2.540  0.00  0.00    +0.027 C 
ATOM     16  C   LIG    1       27.564 -14.868   3.947  0.00  0.00    +0.027 C 
ATOM     17  C   LIG    1       25.671 -13.545   4.923  0.00  0.00    +0.027 C 
ENDBRANCH  12  14
ENDBRANCH  11  12
ENDBRANCH   1  11
TORSDOF 4
ENDMDL
MODEL 9
REMARK VINA RESULT:      -3.4      2.859      5.839
REMARK  Name = *****
REMARK                            x       y       z     vdW  Elec       q    Type
REMARK                         _______ _______ _______ _____ _____    ______ ____
ROOT
ATOM      1  C   LIG    1       24.847 -16.654   3.612  0.00  0.00    +0.180 C 
ATOM      2  O   LIG    1       25.761 -16.367   2.821  0.00  0.00    -0.290 OA
ENDROOT
BRANCH   1   3
ATOM      3  C   LIG    1       24.560 -18.110   3.869  0.00  0.00    +0.020 A 
ATOM      4  C   LIG    1       23.275 -18.606   4.121  0.00  0.00    +0.031 A 
ATOM      5  C   LIG    1       23.081 -19.971   4.357  0.00  0.00    +0.042 A 
ATOM      6 CL   LIG    1       21.490 -20.559   4.656  0.00  0.00    -0.084 Cl
ATOM      7  C   LIG    1       24.151 -20.860   4.345  0.00  0.00    +0.020 A 
ATOM      8  C   LIG    1       25.436 -20.379   4.107  0.00  0.00    +0.002 A 
ATOM      9  C   LIG    1       25.639 -19.013   3.880  0.00  0.00    +0.011 A 
ENDBRANCH   1   3
BRANCH   1  11
ATOM     10  C   LIG    1       22.625 -16.087   4.578  0.00  0.00    +0.032 C 
ATOM     11  C   LIG    1       24.042 -15.548   4.320  0.00  0.00    +0.123 C 
BRANCH  11  12
ATOM     12  N   LIG    1       23.907 -14.337   3.483  0.00  0.00    -0.302 NA
ATOM     13  H   LIG    1       23.904 -14.626   2.501  0.00  0.00    +0.123 HD
BRANCH  12  14
ATOM     14  C   LIG    1       24.830 -13.203   3.678  0.00  0.00    +0.011 C 
ATOM     15  C   LIG    1       23.949 -11.969   3.971  0.00  0.00    +0.027 C 
ATOM     16  C   LIG    1       25.674 -12.871   2.439  0.00  0.00    +0.027 C 
ATOM     17  C   LIG    1       25.758 -13.408   4.886  0.00  0.00    +0.027 C 
ENDBRANCH  12  14
ENDBRANCH  11  12
ENDBRANCH   1  11
TORSDOF 4
ENDMDL
