MODEL 1
REMARK VINA RESULT:      -5.9      0.000      0.000
REMARK  Name = *****
REMARK                            x       y       z     vdW  Elec       q    Type
REMARK                         _______ _______ _______ _____ _____    ______ ____
ROOT
ATOM      1  C   LIG    1       31.378 -18.990   8.507  0.00  0.00    +0.159 A 
ATOM      2  C   LIG    1       30.240 -19.143   7.562  0.00  0.00    +0.179 A 
ATOM      3  F   LIG    1       29.810 -18.059   6.894  0.00  0.00    -0.200 F 
ATOM      4  C   LIG    1       29.726 -20.361   7.428  0.00  0.00    +0.129 A 
ATOM      5  N   LIG    1       30.256 -21.389   8.153  0.00  0.00    -0.310 N 
ATOM      6  H   LIG    1       29.889 -22.329   8.083  0.00  0.00    +0.170 HD
ATOM      7  C   LIG    1       31.310 -21.242   9.030  0.00  0.00    +0.348 A 
ATOM      8  O   LIG    1       31.713 -22.229   9.638  0.00  0.00    -0.245 OA
ATOM      9  N   LIG    1       31.868 -19.993   9.179  0.00  0.00    -0.176 NA
ENDROOT
BRANCH   1  10
ATOM     10  N   LIG    1       31.965 -17.766   8.696  0.00  0.00    -0.341 N 
ATOM     11  H   LIG    1       32.153 -17.485   9.651  0.00  0.00    +0.144 HD
ATOM     12  H   LIG    1       31.580 -17.038   8.105  0.00  0.00    +0.144 HD
ENDBRANCH   1  10
TORSDOF 1
ENDMDL
MODEL 2
REMARK VINA RESULT:      -5.6      2.104      2.899
REMARK  Name = *****
REMARK                            x       y       z     vdW  Elec       q    Type
REMARK                         _______ _______ _______ _____ _____    ______ ____
ROOT
ATOM      1  C   LIG    1       31.232 -20.844   8.634  0.00  0.00    +0.159 A 
ATOM      2  C   LIG    1       29.971 -20.484   7.932  0.00  0.00    +0.179 A 
ATOM      3  F   LIG    1       29.253 -21.465   7.360  0.00  0.00    -0.200 F 
ATOM      4  C   LIG    1       29.627 -19.201   7.929  0.00  0.00    +0.129 A 
ATOM      5  N   LIG    1       30.434 -18.295   8.556  0.00  0.00    -0.310 N 
ATOM      6  H   LIG    1       30.209 -17.309   8.572  0.00  0.00    +0.170 HD
ATOM      7  C   LIG    1       31.603 -18.634   9.204  0.00  0.00    +0.348 A 
ATOM      8  O   LIG    1       32.261 -17.745   9.736  0.00  0.00    -0.245 OA
ATOM      9  N   LIG    1       31.977 -19.958   9.231  0.00  0.00    -0.176 NA
ENDROOT
BRANCH   1  10
ATOM     10  N   LIG    1       31.652 -22.148   8.684  0.00  0.00    -0.341 N 
ATOM     11  H   LIG    1       31.710 -22.581   9.598  0.00  0.00    +0.144 HD
ATOM     12  H   LIG    1       32.433 -22.345   8.068  0.00  0.00    +0.144 HD
ENDBRANCH   1  10
TORSDOF 1
ENDMDL
MODEL 3
REMARK VINA RESULT:      -5.6      1.320      2.555
REMARK  Name = *****
REMARK                            x       y       z     vdW  Elec       q    Type
REMARK                         _______ _______ _______ _____ _____    ______ ____
ROOT
ATOM      1  C   LIG    1       29.206 -20.980   7.770  0.00  0.00    +0.159 A 
ATOM      2  C   LIG    1       29.598 -19.840   6.898  0.00  0.00    +0.179 A 
ATOM      3  F   LIG    1       28.688 -19.345   6.042  0.00  0.00    -0.200 F 
ATOM      4  C   LIG    1       30.833 -19.372   7.035  0.00  0.00    +0.129 A 
ATOM      5  N   LIG    1       31.666 -19.952   7.949  0.00  0.00    -0.310 N 
ATOM      6  H   LIG    1       32.615 -19.628   8.079  0.00  0.00    +0.170 HD
ATOM      7  C   LIG    1       31.298 -21.010   8.754  0.00  0.00    +0.348 A 
ATOM      8  O   LIG    1       32.121 -21.462   9.544  0.00  0.00    -0.245 OA
ATOM      9  N   LIG    1       30.021 -21.506   8.640  0.00  0.00    -0.176 NA
ENDROOT
BRANCH   1  10
ATOM     10  N   LIG    1       27.946 -21.515   7.691  0.00  0.00    -0.341 N 
ATOM     11  H   LIG    1       27.766 -22.357   8.225  0.00  0.00    +0.144 HD
ATOM     12  H   LIG    1       27.567 -21.517   6.750  0.00  0.00    +0.144 HD
ENDBRANCH   1  10
TORSDOF 1
ENDMDL
MODEL 4
REMARK VINA RESULT:      -5.4      2.833      3.207
REMARK  Name = *****
REMARK                            x       y       z     vdW  Elec       q    Type
REMARK                         _______ _______ _______ _____ _____    ______ ____
ROOT
ATOM      1  C   LIG    1       29.210 -18.793   5.665  0.00  0.00    +0.159 A 
ATOM      2  C   LIG    1       28.363 -19.980   5.959  0.00  0.00    +0.179 A 
ATOM      3  F   LIG    1       27.192 -20.109   5.314  0.00  0.00    -0.200 F 
ATOM      4  C   LIG    1       28.834 -20.853   6.843  0.00  0.00    +0.129 A 
ATOM      5  N   LIG    1       30.046 -20.620   7.427  0.00  0.00    -0.310 N 
ATOM      6  H   LIG    1       30.436 -21.258   8.108  0.00  0.00    +0.170 HD
ATOM      7  C   LIG    1       30.826 -19.517   7.152  0.00  0.00    +0.348 A 
ATOM      8  O   LIG    1       31.901 -19.396   7.732  0.00  0.00    -0.245 OA
ATOM      9  N   LIG    1       30.367 -18.602   6.233  0.00  0.00    -0.176 NA
ENDROOT
BRANCH   1  10
ATOM     10  N   LIG    1       28.795 -17.850   4.761  0.00  0.00    -0.341 N 
ATOM     11  H   LIG    1       27.835 -17.906   4.441  0.00  0.00    +0.144 HD
ATOM     12  H   LIG    1       29.477 -17.659   4.035  0.00  0.00    +0.144 HD
ENDBRANCH   1  10
TORSDOF 1
ENDMDL
MODEL 5
REMARK VINA RESULT:      -5.2      5.568      6.172
REMARK  Name = *****
REMARK                            x       y       z     vdW  Elec       q    Type
REMARK                         _______ _______ _______ _____ _____    ______ ____
ROOT
ATOM      1  C   LIG    1       26.004 -20.443   5.921  0.00  0.00    +0.159 A 
ATOM      2  C   LIG    1       24.568 -20.674   5.610  0.00  0.00    +0.179 A 
ATOM      3  F   LIG    1       24.184 -20.679   4.323  0.00  0.00    -0.200 F 
ATOM      4  C   LIG    1       23.753 -20.878   6.638  0.00  0.00    +0.129 A 
ATOM      5  N   LIG    1       24.264 -20.861   7.905  0.00  0.00    -0.310 N 
ATOM      6  H   LIG    1       23.675 -21.007   8.714  0.00  0.00    +0.170 HD
ATOM      7  C   LIG    1       25.596 -20.644   8.188  0.00  0.00    +0.348 A 
ATOM      8  O   LIG    1       25.956 -20.647   9.361  0.00  0.00    -0.245 OA
ATOM      9  N   LIG    1       26.464 -20.441   7.140  0.00  0.00    -0.176 NA
ENDROOT
BRANCH   1  10
ATOM     10  N   LIG    1       26.909 -20.230   4.913  0.00  0.00    -0.341 N 
ATOM     11  H   LIG    1       26.945 -19.300   4.512  0.00  0.00    +0.144 HD
ATOM     12  H   LIG    1       26.948 -20.987   4.240  0.00  0.00    +0.144 HD
ENDBRANCH   1  10
TORSDOF 1
ENDMDL
MODEL 6
REMARK VINA RESULT:      -5.1      2.266      2.750
REMARK  Name = *****
REMARK                            x       y       z     vdW  Elec       q    Type
REMARK                         _______ _______ _______ _____ _____    ______ ____
ROOT
ATOM      1  C   LIG    1       30.209 -18.929   7.070  0.00  0.00    +0.159 A 
ATOM      2  C   LIG    1       30.048 -20.364   7.426  0.00  0.00    +0.179 A 
ATOM      3  F   LIG    1       29.239 -21.126   6.671  0.00  0.00    -0.200 F 
ATOM      4  C   LIG    1       30.736 -20.807   8.473  0.00  0.00    +0.129 A 
ATOM      5  N   LIG    1       31.537 -19.938   9.157  0.00  0.00    -0.310 N 
ATOM      6  H   LIG    1       32.072 -20.235   9.963  0.00  0.00    +0.170 HD
ATOM      7  C   LIG    1       31.681 -18.607   8.824  0.00  0.00    +0.348 A 
ATOM      8  O   LIG    1       32.424 -17.907   9.504  0.00  0.00    -0.245 OA
ATOM      9  N   LIG    1       30.988 -18.126   7.738  0.00  0.00    -0.176 NA
ENDROOT
BRANCH   1  10
ATOM     10  N   LIG    1       29.536 -18.398   5.999  0.00  0.00    -0.341 N 
ATOM     11  H   LIG    1       29.074 -17.507   6.138  0.00  0.00    +0.144 HD
ATOM     12  H   LIG    1       28.996 -19.083   5.482  0.00  0.00    +0.144 HD
ENDBRANCH   1  10
TORSDOF 1
ENDMDL
MODEL 7
REMARK VINA RESULT:      -5.0      2.191      2.704
REMARK  Name = *****
REMARK                            x       y       z     vdW  Elec       q    Type
REMARK                         _______ _______ _______ _____ _____    ______ ____
ROOT
ATOM      1  C   LIG    1       30.798 -20.547   8.365  0.00  0.00    +0.159 A 
ATOM      2  C   LIG    1       30.996 -19.393   7.448  0.00  0.00    +0.179 A 
ATOM      3  F   LIG    1       32.111 -18.655   7.576  0.00  0.00    -0.200 F 
ATOM      4  C   LIG    1       30.050 -19.175   6.541  0.00  0.00    +0.129 A 
ATOM      5  N   LIG    1       28.965 -20.003   6.500  0.00  0.00    -0.310 N 
ATOM      6  H   LIG    1       28.221 -19.866   5.827  0.00  0.00    +0.170 HD
ATOM      7  C   LIG    1       28.786 -21.070   7.354  0.00  0.00    +0.348 A 
ATOM      8  O   LIG    1       27.774 -21.754   7.238  0.00  0.00    -0.245 OA
ATOM      9  N   LIG    1       29.755 -21.325   8.296  0.00  0.00    -0.176 NA
ENDROOT
BRANCH   1  10
ATOM     10  N   LIG    1       31.732 -20.840   9.325  0.00  0.00    -0.341 N 
ATOM     11  H   LIG    1       32.478 -20.169   9.467  0.00  0.00    +0.144 HD
ATOM     12  H   LIG    1       32.028 -21.810   9.318  0.00  0.00    +0.144 HD
ENDBRANCH   1  10
TORSDOF 1
ENDMDL
MODEL 8
REMARK VINA RESULT:      -4.9      5.511      6.111
REMARK  Name = *****
REMARK                            x       y       z     vdW  Elec       q    Type
REMARK                         _______ _______ _______ _____ _____    ______ ____
ROOT
ATOM      1  C   LIG    1       25.990 -20.483   5.862  0.00  0.00    +0.159 A 
ATOM      2  C   LIG    1       27.006 -20.321   6.936  0.00  0.00    +0.179 A 
ATOM      3  F   LIG    1       28.259 -19.985   6.589  0.00  0.00    -0.200 F 
ATOM      4  C   LIG    1       26.597 -20.508   8.187  0.00  0.00    +0.129 A 
ATOM      5  N   LIG    1       25.292 -20.836   8.417  0.00  0.00    -0.310 N 
ATOM      6  H   LIG    1       24.944 -20.993   9.354  0.00  0.00    +0.170 HD
ATOM      7  C   LIG    1       24.354 -20.988   7.417  0.00  0.00    +0.348 A 
ATOM      8  O   LIG    1       23.206 -21.286   7.728  0.00  0.00    -0.245 OA
ATOM      9  N   LIG    1       24.749 -20.789   6.115  0.00  0.00    -0.176 NA
ENDROOT
BRANCH   1  10
ATOM     10  N   LIG    1       26.333 -20.301   4.548  0.00  0.00    -0.341 N 
ATOM     11  H   LIG    1       27.298 -20.475   4.292  0.00  0.00    +0.144 HD
ATOM     12  H   LIG    1       25.926 -19.469   4.135  0.00  0.00    +0.144 HD
ENDBRANCH   1  10
TORSDOF 1
ENDMDL
MODEL 9
REMARK VINA RESULT:      -4.9      2.911      3.298
REMARK  Name = *****
REMARK                            x       y       z     vdW  Elec       q    Type
REMARK                         _______ _______ _______ _____ _____    ______ ____
ROOT
ATOM      1  C   LIG    1       30.887 -19.747   8.108  0.00  0.00    +0.159 A 
ATOM      2  C   LIG    1       30.025 -20.958   8.093  0.00  0.00    +0.179 A 
ATOM      3  F   LIG    1       30.238 -21.909   9.018  0.00  0.00    -0.200 F 
ATOM      4  C   LIG    1       29.078 -21.014   7.162  0.00  0.00    +0.129 A 
ATOM      5  N   LIG    1       28.950 -19.978   6.282  0.00  0.00    -0.310 N 
ATOM      6  H   LIG    1       28.245 -19.986   5.556  0.00  0.00    +0.170 HD
ATOM      7  C   LIG    1       29.754 -18.857   6.299  0.00  0.00    +0.348 A 
ATOM      8  O   LIG    1       29.559 -17.981   5.463  0.00  0.00    -0.245 OA
ATOM      9  N   LIG    1       30.734 -18.770   7.260  0.00  0.00    -0.176 NA
ENDROOT
BRANCH   1  10
ATOM     10  N   LIG    1       31.882 -19.613   9.041  0.00  0.00    -0.341 N 
ATOM     11  H   LIG    1       31.613 -19.668  10.017  0.00  0.00    +0.144 HD
ATOM     12  H   LIG    1       32.545 -18.877   8.822  0.00  0.00    +0.144 HD
ENDBRANCH   1  10
TORSDOF 1
ENDMDL
