MODEL 1
REMARK VINA RESULT:      -2.8      0.000      0.000
REMARK  Name = *****
REMARK                            x       y       z     vdW  Elec       q    Type
REMARK                         _______ _______ _______ _____ _____    ______ ____
ROOT
ATOM      1  C   LIG    1       25.579 -19.472   4.167  0.00  0.00    +0.190 C 
ENDROOT
BRANCH   1   2
ATOM      2  C   LIG    1       24.057 -19.655   4.372  0.00  0.00    -0.005 A 
ATOM      3  C   LIG    1       23.537 -20.839   4.937  0.00  0.00    +0.007 A 
ATOM      4  C   LIG    1       22.159 -21.039   5.086  0.00  0.00    +0.000 A 
ATOM      5  C   LIG    1       21.263 -20.049   4.699  0.00  0.00    +0.000 A 
ATOM      6  C   LIG    1       21.747 -18.863   4.158  0.00  0.00    +0.000 A 
ATOM      7  C   LIG    1       23.126 -18.667   3.995  0.00  0.00    +0.007 A 
ENDBRANCH   1   2
BRANCH   1   8
ATOM      8  C   LIG    1       26.400 -19.370   5.490  0.00  0.00    +0.036 C 
ATOM      9  C   LIG    1       26.321 -20.618   6.398  0.00  0.00    +0.007 C 
ATOM     10  C   LIG    1       27.687 -20.728   7.062  0.00  0.00    +0.000 C 
ATOM     11  C   LIG    1       28.633 -20.335   5.948  0.00  0.00    +0.000 C 
ATOM     12  C   LIG    1       27.926 -19.172   5.262  0.00  0.00    +0.007 C 
ENDBRANCH   1   8
BRANCH   1  13
ATOM     13  C   LIG    1       25.865 -18.193   3.294  0.00  0.00    +0.344 C 
ATOM     14  O   LIG    1       26.271 -18.177   2.145  0.00  0.00    -0.247 OA
BRANCH  13  15
ATOM     15  O   LIG    1       25.616 -17.049   4.018  0.00  0.00    -0.454 OA
BRANCH  15  19
ATOM     16  C   LIG    1       27.097 -14.079   5.570  0.00  0.00    +0.192 C 
ATOM     17  N   LIG    1       26.792 -13.865   4.089  0.00  0.00    +0.242 N 
ATOM     18  C   LIG    1       26.931 -15.173   3.295  0.00  0.00    +0.178 C 
ATOM     19  C   LIG    1       25.539 -15.823   3.269  0.00  0.00    +0.226 C 
ATOM     20  C   LIG    1       24.598 -14.821   3.934  0.00  0.00    +0.101 C 
ATOM     21  C   LIG    1       25.329 -13.492   3.882  0.00  0.00    +0.136 C 
ATOM     22  C   LIG    1       27.730 -12.802   3.547  0.00  0.00    +0.192 C 
ENDBRANCH  15  19
ENDBRANCH  13  15
ENDBRANCH   1  13
BRANCH   1  23
ATOM     23  O   LIG    1       26.091 -20.609   3.433  0.00  0.00    -0.373 OA
ATOM     24  H   LIG    1       26.590 -21.147   4.071  0.00  0.00    +0.211 HD
ENDBRANCH   1  23
TORSDOF 6
ENDMDL
MODEL 2
REMARK VINA RESULT:      -2.5      2.176      7.132
REMARK  Name = *****
REMARK                            x       y       z     vdW  Elec       q    Type
REMARK                         _______ _______ _______ _____ _____    ______ ____
ROOT
ATOM      1  C   LIG    1       26.528 -14.780   3.232  0.00  0.00    +0.190 C 
ENDROOT
BRANCH   1   2
ATOM      2  C   LIG    1       27.463 -13.795   3.972  0.00  0.00    -0.005 A 
ATOM      3  C   LIG    1       27.274 -13.501   5.339  0.00  0.00    +0.007 A 
ATOM      4  C   LIG    1       28.084 -12.577   6.011  0.00  0.00    +0.000 A 
ATOM      5  C   LIG    1       29.123 -11.942   5.342  0.00  0.00    +0.000 A 
ATOM      6  C   LIG    1       29.347 -12.227   3.999  0.00  0.00    +0.000 A 
ATOM      7  C   LIG    1       28.528 -13.142   3.321  0.00  0.00    +0.007 A 
ENDBRANCH   1   2
BRANCH   1   8
ATOM      8  C   LIG    1       25.007 -14.497   3.431  0.00  0.00    +0.036 C 
ATOM      9  C   LIG    1       24.610 -14.064   4.860  0.00  0.00    +0.007 C 
ATOM     10  C   LIG    1       23.464 -13.076   4.685  0.00  0.00    +0.000 C 
ATOM     11  C   LIG    1       23.882 -12.292   3.459  0.00  0.00    +0.000 C 
ATOM     12  C   LIG    1       24.464 -13.350   2.530  0.00  0.00    +0.007 C 
ENDBRANCH   1   8
BRANCH   1  13
ATOM     13  C   LIG    1       26.830 -16.260   3.674  0.00  0.00    +0.344 C 
ATOM     14  O   LIG    1       27.849 -16.663   4.207  0.00  0.00    -0.247 OA
BRANCH  13  15
ATOM     15  O   LIG    1       25.775 -17.085   3.354  0.00  0.00    -0.454 OA
BRANCH  15  19
ATOM     16  C   LIG    1       23.279 -19.321   4.834  0.00  0.00    +0.192 C 
ATOM     17  N   LIG    1       24.292 -20.075   3.973  0.00  0.00    +0.242 N 
ATOM     18  C   LIG    1       24.790 -19.207   2.807  0.00  0.00    +0.178 C 
ATOM     19  C   LIG    1       26.059 -18.494   3.300  0.00  0.00    +0.226 C 
ATOM     20  C   LIG    1       26.342 -19.058   4.690  0.00  0.00    +0.101 C 
ATOM     21  C   LIG    1       25.567 -20.361   4.758  0.00  0.00    +0.136 C 
ATOM     22  C   LIG    1       23.644 -21.348   3.460  0.00  0.00    +0.192 C 
ENDBRANCH  15  19
ENDBRANCH  13  15
ENDBRANCH   1  13
BRANCH   1  23
ATOM     23  O   LIG    1       26.796 -14.699   1.812  0.00  0.00    -0.373 OA
ATOM     24  H   LIG    1       27.580 -14.132   1.712  0.00  0.00    +0.211 HD
ENDBRANCH   1  23
TORSDOF 6
ENDMDL
MODEL 3
REMARK VINA RESULT:      -2.4      1.248      2.043
REMARK  Name = *****
REMARK                            x       y       z     vdW  Elec       q    Type
REMARK                         _______ _______ _______ _____ _____    ______ ____
ROOT
ATOM      1  C   LIG    1       25.819 -18.909   3.646  0.00  0.00    +0.190 C 
ENDROOT
BRANCH   1   2
ATOM      2  C   LIG    1       24.332 -18.631   3.966  0.00  0.00    -0.005 A 
ATOM      3  C   LIG    1       23.407 -19.688   4.099  0.00  0.00    +0.007 A 
ATOM      4  C   LIG    1       22.048 -19.451   4.343  0.00  0.00    +0.000 A 
ATOM      5  C   LIG    1       21.581 -18.151   4.489  0.00  0.00    +0.000 A 
ATOM      6  C   LIG    1       22.472 -17.088   4.383  0.00  0.00    +0.000 A 
ATOM      7  C   LIG    1       23.831 -17.324   4.125  0.00  0.00    +0.007 A 
ENDBRANCH   1   2
BRANCH   1   8
ATOM      8  C   LIG    1       26.470 -20.023   4.522  0.00  0.00    +0.036 C 
ATOM      9  C   LIG    1       27.689 -19.565   5.352  0.00  0.00    +0.007 C 
ATOM     10  C   LIG    1       27.630 -20.367   6.645  0.00  0.00    +0.000 C 
ATOM     11  C   LIG    1       26.147 -20.407   6.946  0.00  0.00    +0.000 C 
ATOM     12  C   LIG    1       25.503 -20.626   5.581  0.00  0.00    +0.007 C 
ENDBRANCH   1   8
BRANCH   1  13
ATOM     13  C   LIG    1       26.667 -17.590   3.792  0.00  0.00    +0.344 C 
ATOM     14  O   LIG    1       27.735 -17.475   4.367  0.00  0.00    -0.247 OA
BRANCH  13  15
ATOM     15  O   LIG    1       26.021 -16.533   3.191  0.00  0.00    -0.454 OA
BRANCH  15  19
ATOM     16  C   LIG    1       23.659 -13.732   3.204  0.00  0.00    +0.192 C 
ATOM     17  N   LIG    1       25.018 -13.345   3.786  0.00  0.00    +0.242 N 
ATOM     18  C   LIG    1       25.687 -14.537   4.487  0.00  0.00    +0.178 C 
ATOM     19  C   LIG    1       26.571 -15.226   3.436  0.00  0.00    +0.226 C 
ATOM     20  C   LIG    1       26.498 -14.348   2.188  0.00  0.00    +0.101 C 
ATOM     21  C   LIG    1       26.006 -12.999   2.678  0.00  0.00    +0.136 C 
ATOM     22  C   LIG    1       24.823 -12.191   4.752  0.00  0.00    +0.192 C 
ENDBRANCH  15  19
ENDBRANCH  13  15
ENDBRANCH   1  13
BRANCH   1  23
ATOM     23  O   LIG    1       25.927 -19.331   2.267  0.00  0.00    -0.373 OA
ATOM     24  H   LIG    1       25.078 -19.747   2.038  0.00  0.00    +0.211 HD
ENDBRANCH   1  23
TORSDOF 6
ENDMDL
MODEL 4
REMARK VINA RESULT:      -0.8      2.496      6.560
REMARK  Name = *****
REMARK                            x       y       z     vdW  Elec       q    Type
REMARK                         _______ _______ _______ _____ _____    ______ ____
ROOT
ATOM      1  C   LIG    1       25.943 -14.674   4.370  0.00  0.00    +0.190 C 
ENDROOT
BRANCH   1   2
ATOM      2  C   LIG    1       25.110 -13.527   3.751  0.00  0.00    -0.005 A 
ATOM      3  C   LIG    1       24.390 -12.629   4.567  0.00  0.00    +0.007 A 
ATOM      4  C   LIG    1       23.595 -11.614   4.020  0.00  0.00    +0.000 A 
ATOM      5  C   LIG    1       23.520 -11.451   2.642  0.00  0.00    +0.000 A 
ATOM      6  C   LIG    1       24.235 -12.309   1.812  0.00  0.00    +0.000 A 
ATOM      7  C   LIG    1       25.021 -13.334   2.358  0.00  0.00    +0.007 A 
ENDBRANCH   1   2
BRANCH   1   8
ATOM      8  C   LIG    1       27.475 -14.394   4.438  0.00  0.00    +0.036 C 
ATOM      9  C   LIG    1       28.070 -13.738   3.172  0.00  0.00    +0.007 C 
ATOM     10  C   LIG    1       29.177 -12.818   3.670  0.00  0.00    +0.000 C 
ATOM     11  C   LIG    1       28.587 -12.240   4.938  0.00  0.00    +0.000 C 
ATOM     12  C   LIG    1       27.881 -13.426   5.586  0.00  0.00    +0.007 C 
ENDBRANCH   1   8
BRANCH   1  13
ATOM     13  C   LIG    1       25.706 -16.013   3.577  0.00  0.00    +0.344 C 
ATOM     14  O   LIG    1       26.325 -16.394   2.598  0.00  0.00    -0.247 OA
BRANCH  13  15
ATOM     15  O   LIG    1       24.660 -16.721   4.126  0.00  0.00    -0.454 OA
BRANCH  15  19
ATOM     16  C   LIG    1       23.723 -19.615   6.167  0.00  0.00    +0.192 C 
ATOM     17  N   LIG    1       23.295 -19.773   4.710  0.00  0.00    +0.242 N 
ATOM     18  C   LIG    1       22.957 -18.415   4.075  0.00  0.00    +0.178 C 
ATOM     19  C   LIG    1       24.249 -17.904   3.418  0.00  0.00    +0.226 C 
ATOM     20  C   LIG    1       25.270 -19.029   3.572  0.00  0.00    +0.101 C 
ATOM     21  C   LIG    1       24.451 -20.275   3.853  0.00  0.00    +0.136 C 
ATOM     22  C   LIG    1       22.099 -20.707   4.652  0.00  0.00    +0.192 C 
ENDBRANCH  15  19
ENDBRANCH  13  15
ENDBRANCH   1  13
BRANCH   1  23
ATOM     23  O   LIG    1       25.489 -14.899   5.726  0.00  0.00    -0.373 OA
ATOM     24  H   LIG    1       24.918 -14.145   5.954  0.00  0.00    +0.211 HD
ENDBRANCH   1  23
TORSDOF 6
ENDMDL
MODEL 5
REMARK VINA RESULT:      -0.1      0.815      3.774
REMARK  Name = *****
REMARK                            x       y       z     vdW  Elec       q    Type
REMARK                         _______ _______ _______ _____ _____    ______ ____
ROOT
ATOM      1  C   LIG    1       25.154 -19.324   4.581  0.00  0.00    +0.190 C 
ENDROOT
BRANCH   1   2
ATOM      2  C   LIG    1       26.313 -19.967   5.376  0.00  0.00    -0.005 A 
ATOM      3  C   LIG    1       26.074 -21.010   6.296  0.00  0.00    +0.007 A 
ATOM      4  C   LIG    1       27.106 -21.572   7.057  0.00  0.00    +0.000 A 
ATOM      5  C   LIG    1       28.412 -21.124   6.901  0.00  0.00    +0.000 A 
ATOM      6  C   LIG    1       28.683 -20.111   5.987  0.00  0.00    +0.000 A 
ATOM      7  C   LIG    1       27.648 -19.538   5.234  0.00  0.00    +0.007 A 
ENDBRANCH   1   2
BRANCH   1   8
ATOM      8  C   LIG    1       24.059 -20.329   4.110  0.00  0.00    +0.036 C 
ATOM      9  C   LIG    1       23.592 -21.331   5.189  0.00  0.00    +0.007 C 
ATOM     10  C   LIG    1       22.113 -21.569   4.915  0.00  0.00    +0.000 C 
ATOM     11  C   LIG    1       21.621 -20.194   4.516  0.00  0.00    +0.000 C 
ATOM     12  C   LIG    1       22.743 -19.644   3.643  0.00  0.00    +0.007 C 
ENDBRANCH   1   8
BRANCH   1  13
ATOM     13  C   LIG    1       25.711 -18.555   3.325  0.00  0.00    +0.344 C 
ATOM     14  O   LIG    1       25.728 -18.962   2.176  0.00  0.00    -0.247 OA
BRANCH  13  15
ATOM     15  O   LIG    1       26.220 -17.330   3.695  0.00  0.00    -0.454 OA
BRANCH  15  19
ATOM     16  C   LIG    1       26.866 -14.060   5.215  0.00  0.00    +0.192 C 
ATOM     17  N   LIG    1       26.350 -13.940   3.783  0.00  0.00    +0.242 N 
ATOM     18  C   LIG    1       26.801 -15.131   2.923  0.00  0.00    +0.178 C 
ATOM     19  C   LIG    1       25.685 -16.184   3.010  0.00  0.00    +0.226 C 
ATOM     20  C   LIG    1       24.558 -15.533   3.809  0.00  0.00    +0.101 C 
ATOM     21  C   LIG    1       24.830 -14.042   3.741  0.00  0.00    +0.136 C 
ATOM     22  C   LIG    1       26.846 -12.631   3.195  0.00  0.00    +0.192 C 
ENDBRANCH  15  19
ENDBRANCH  13  15
ENDBRANCH   1  13
BRANCH   1  23
ATOM     23  O   LIG    1       24.500 -18.343   5.421  0.00  0.00    -0.373 OA
ATOM     24  H   LIG    1       25.044 -18.263   6.224  0.00  0.00    +0.211 HD
ENDBRANCH   1  23
TORSDOF 6
ENDMDL
