MODEL 1
REMARK VINA RESULT:      -3.9      0.000      0.000
REMARK  Name = *****
REMARK                            x       y       z     vdW  Elec       q    Type
REMARK                         _______ _______ _______ _____ _____    ______ ____
ROOT
ATOM      1  C   LIG    1       24.227 -21.531   2.780  0.00  0.00    +0.036 C 
ATOM      2  C   LIG    1       23.837 -20.101   2.993  0.00  0.00    -0.021 C 
ATOM      3  C   LIG    1       24.337 -19.228   3.901  0.00  0.00    -0.015 C 
ENDROOT
BRANCH   3   4
ATOM      4  C   LIG    1       25.458 -19.665   4.760  0.00  0.00    -0.017 A 
ATOM      5  C   LIG    1       26.779 -19.323   4.436  0.00  0.00    +0.012 A 
ATOM      6  C   LIG    1       27.838 -19.789   5.218  0.00  0.00    +0.046 A 
ATOM      7  C   LIG    1       27.577 -20.593   6.323  0.00  0.00    +0.117 A 
ATOM      8  C   LIG    1       26.273 -20.937   6.664  0.00  0.00    +0.046 A 
ATOM      9  C   LIG    1       25.213 -20.467   5.884  0.00  0.00    +0.012 A 
BRANCH   7  10
ATOM     10  O   LIG    1       28.641 -21.035   7.051  0.00  0.00    -0.507 OA
ATOM     11  H   LIG    1       28.331 -21.711   7.675  0.00  0.00    +0.292 HD
ENDBRANCH   7  10
ENDBRANCH   3   4
BRANCH   3  12
ATOM     12  C   LIG    1       23.769 -17.875   4.002  0.00  0.00    -0.015 C 
ATOM     13  C   LIG    1       22.454 -17.644   4.231  0.00  0.00    -0.021 C 
ATOM     14  C   LIG    1       21.398 -18.671   4.496  0.00  0.00    +0.036 C 
BRANCH  12  15
ATOM     15  C   LIG    1       24.603 -16.658   3.866  0.00  0.00    -0.017 A 
ATOM     16  C   LIG    1       24.077 -15.401   4.196  0.00  0.00    +0.012 A 
ATOM     17  C   LIG    1       24.844 -14.246   4.022  0.00  0.00    +0.046 A 
ATOM     18  C   LIG    1       26.136 -14.346   3.522  0.00  0.00    +0.117 A 
ATOM     19  C   LIG    1       26.679 -15.585   3.191  0.00  0.00    +0.046 A 
ATOM     20  C   LIG    1       25.911 -16.741   3.364  0.00  0.00    +0.012 A 
BRANCH  18  21
ATOM     21  O   LIG    1       26.848 -13.193   3.368  0.00  0.00    -0.507 OA
ATOM     22  H   LIG    1       27.766 -13.420   3.148  0.00  0.00    +0.292 HD
ENDBRANCH  18  21
ENDBRANCH  12  15
ENDBRANCH   3  12
TORSDOF 5
ENDMDL
MODEL 2
REMARK VINA RESULT:      -3.2      1.748      3.114
REMARK  Name = *****
REMARK                            x       y       z     vdW  Elec       q    Type
REMARK                         _______ _______ _______ _____ _____    ______ ____
ROOT
ATOM      1  C   LIG    1       20.532 -18.434   3.251  0.00  0.00    +0.036 C 
ATOM      2  C   LIG    1       21.209 -17.177   3.700  0.00  0.00    -0.021 C 
ATOM      3  C   LIG    1       22.419 -17.050   4.297  0.00  0.00    -0.015 C 
ENDROOT
BRANCH   3   4
ATOM      4  C   LIG    1       23.247 -18.261   4.483  0.00  0.00    -0.017 A 
ATOM      5  C   LIG    1       22.966 -19.163   5.519  0.00  0.00    +0.012 A 
ATOM      6  C   LIG    1       23.787 -20.273   5.726  0.00  0.00    +0.046 A 
ATOM      7  C   LIG    1       24.885 -20.482   4.900  0.00  0.00    +0.117 A 
ATOM      8  C   LIG    1       25.177 -19.601   3.863  0.00  0.00    +0.046 A 
ATOM      9  C   LIG    1       24.353 -18.493   3.652  0.00  0.00    +0.012 A 
BRANCH   7  10
ATOM     10  O   LIG    1       25.667 -21.572   5.146  0.00  0.00    -0.507 OA
ATOM     11  H   LIG    1       26.599 -21.303   5.095  0.00  0.00    +0.292 HD
ENDBRANCH   7  10
ENDBRANCH   3   4
BRANCH   3  12
ATOM     12  C   LIG    1       22.884 -15.724   4.730  0.00  0.00    -0.015 C 
ATOM     13  C   LIG    1       22.355 -15.069   5.791  0.00  0.00    -0.021 C 
ATOM     14  C   LIG    1       21.308 -15.582   6.728  0.00  0.00    +0.036 C 
BRANCH  12  15
ATOM     15  C   LIG    1       23.979 -15.006   4.035  0.00  0.00    -0.017 A 
ATOM     16  C   LIG    1       25.208 -15.640   3.810  0.00  0.00    +0.012 A 
ATOM     17  C   LIG    1       26.258 -14.950   3.199  0.00  0.00    +0.046 A 
ATOM     18  C   LIG    1       26.080 -13.628   2.810  0.00  0.00    +0.117 A 
ATOM     19  C   LIG    1       24.866 -12.980   3.022  0.00  0.00    +0.046 A 
ATOM     20  C   LIG    1       23.816 -13.671   3.634  0.00  0.00    +0.012 A 
BRANCH  18  21
ATOM     21  O   LIG    1       27.132 -12.993   2.218  0.00  0.00    -0.507 OA
ATOM     22  H   LIG    1       26.909 -12.055   2.111  0.00  0.00    +0.292 HD
ENDBRANCH  18  21
ENDBRANCH  12  15
ENDBRANCH   3  12
TORSDOF 5
ENDMDL
MODEL 3
REMARK VINA RESULT:      -2.8      2.430      5.927
REMARK  Name = *****
REMARK                            x       y       z     vdW  Elec       q    Type
REMARK                         _______ _______ _______ _____ _____    ______ ____
ROOT
ATOM      1  C   LIG    1       23.868 -12.608   1.849  0.00  0.00    +0.036 C 
ATOM      2  C   LIG    1       23.413 -13.702   2.764  0.00  0.00    -0.021 C 
ATOM      3  C   LIG    1       24.148 -14.387   3.673  0.00  0.00    -0.015 C 
ENDROOT
BRANCH   3   4
ATOM      4  C   LIG    1       25.560 -13.998   3.880  0.00  0.00    -0.017 A 
ATOM      5  C   LIG    1       25.972 -13.440   5.099  0.00  0.00    +0.012 A 
ATOM      6  C   LIG    1       27.293 -13.020   5.267  0.00  0.00    +0.046 A 
ATOM      7  C   LIG    1       28.199 -13.157   4.221  0.00  0.00    +0.117 A 
ATOM      8  C   LIG    1       27.809 -13.714   3.007  0.00  0.00    +0.046 A 
ATOM      9  C   LIG    1       26.489 -14.139   2.840  0.00  0.00    +0.012 A 
BRANCH   7  10
ATOM     10  O   LIG    1       29.475 -12.722   4.425  0.00  0.00    -0.507 OA
ATOM     11  H   LIG    1       30.080 -13.474   4.319  0.00  0.00    +0.292 HD
ENDBRANCH   7  10
ENDBRANCH   3   4
BRANCH   3  12
ATOM     12  C   LIG    1       23.530 -15.483   4.434  0.00  0.00    -0.015 C 
ATOM     13  C   LIG    1       22.731 -15.275   5.508  0.00  0.00    -0.021 C 
ATOM     14  C   LIG    1       22.279 -13.953   6.043  0.00  0.00    +0.036 C 
BRANCH  12  15
ATOM     15  C   LIG    1       23.735 -16.906   4.075  0.00  0.00    -0.017 A 
ATOM     16  C   LIG    1       22.706 -17.838   4.266  0.00  0.00    +0.012 A 
ATOM     17  C   LIG    1       22.913 -19.189   3.975  0.00  0.00    +0.046 A 
ATOM     18  C   LIG    1       24.145 -19.609   3.490  0.00  0.00    +0.117 A 
ATOM     19  C   LIG    1       25.180 -18.699   3.290  0.00  0.00    +0.046 A 
ATOM     20  C   LIG    1       24.974 -17.347   3.583  0.00  0.00    +0.012 A 
BRANCH  18  21
ATOM     21  O   LIG    1       24.302 -20.937   3.220  0.00  0.00    -0.507 OA
ATOM     22  H   LIG    1       23.973 -21.113   2.324  0.00  0.00    +0.292 HD
ENDBRANCH  18  21
ENDBRANCH  12  15
ENDBRANCH   3  12
TORSDOF 5
ENDMDL
MODEL 4
REMARK VINA RESULT:      -2.8      1.409      5.284
REMARK  Name = *****
REMARK                            x       y       z     vdW  Elec       q    Type
REMARK                         _______ _______ _______ _____ _____    ______ ____
ROOT
ATOM      1  C   LIG    1       20.457 -18.032   2.954  0.00  0.00    +0.036 C 
ATOM      2  C   LIG    1       21.224 -19.071   3.713  0.00  0.00    -0.021 C 
ATOM      3  C   LIG    1       22.437 -18.944   4.304  0.00  0.00    -0.015 C 
ENDROOT
BRANCH   3   4
ATOM      4  C   LIG    1       23.094 -17.620   4.295  0.00  0.00    -0.017 A 
ATOM      5  C   LIG    1       22.460 -16.507   4.864  0.00  0.00    +0.012 A 
ATOM      6  C   LIG    1       23.060 -15.247   4.799  0.00  0.00    +0.046 A 
ATOM      7  C   LIG    1       24.290 -15.101   4.169  0.00  0.00    +0.117 A 
ATOM      8  C   LIG    1       24.938 -16.196   3.604  0.00  0.00    +0.046 A 
ATOM      9  C   LIG    1       24.340 -17.457   3.673  0.00  0.00    +0.012 A 
BRANCH   7  10
ATOM     10  O   LIG    1       24.833 -13.852   4.118  0.00  0.00    -0.507 OA
ATOM     11  H   LIG    1       24.374 -13.287   4.761  0.00  0.00    +0.292 HD
ENDBRANCH   7  10
ENDBRANCH   3   4
BRANCH   3  12
ATOM     12  C   LIG    1       23.060 -20.111   4.947  0.00  0.00    -0.015 C 
ATOM     13  C   LIG    1       22.387 -21.258   5.201  0.00  0.00    -0.021 C 
ATOM     14  C   LIG    1       20.975 -21.572   4.818  0.00  0.00    +0.036 C 
BRANCH  12  15
ATOM     15  C   LIG    1       24.483 -20.116   5.361  0.00  0.00    -0.017 A 
ATOM     16  C   LIG    1       25.490 -19.821   4.431  0.00  0.00    +0.012 A 
ATOM     17  C   LIG    1       26.835 -19.874   4.805  0.00  0.00    +0.046 A 
ATOM     18  C   LIG    1       27.175 -20.218   6.107  0.00  0.00    +0.117 A 
ATOM     19  C   LIG    1       26.191 -20.513   7.047  0.00  0.00    +0.046 A 
ATOM     20  C   LIG    1       24.844 -20.461   6.672  0.00  0.00    +0.012 A 
BRANCH  18  21
ATOM     21  O   LIG    1       28.500 -20.258   6.428  0.00  0.00    -0.507 OA
ATOM     22  H   LIG    1       28.638 -20.948   7.096  0.00  0.00    +0.292 HD
ENDBRANCH  18  21
ENDBRANCH  12  15
ENDBRANCH   3  12
TORSDOF 5
ENDMDL
MODEL 5
REMARK VINA RESULT:      -1.3      2.057      3.436
REMARK  Name = *****
REMARK                            x       y       z     vdW  Elec       q    Type
REMARK                         _______ _______ _______ _____ _____    ______ ____
ROOT
ATOM      1  C   LIG    1       25.536 -20.339   1.813  0.00  0.00    +0.036 C 
ATOM      2  C   LIG    1       26.078 -19.052   2.355  0.00  0.00    -0.021 C 
ATOM      3  C   LIG    1       25.803 -18.470   3.548  0.00  0.00    -0.015 C 
ENDROOT
BRANCH   3   4
ATOM      4  C   LIG    1       24.926 -19.186   4.500  0.00  0.00    -0.017 A 
ATOM      5  C   LIG    1       25.472 -20.052   5.457  0.00  0.00    +0.012 A 
ATOM      6  C   LIG    1       24.635 -20.770   6.314  0.00  0.00    +0.046 A 
ATOM      7  C   LIG    1       23.256 -20.622   6.214  0.00  0.00    +0.117 A 
ATOM      8  C   LIG    1       22.697 -19.763   5.274  0.00  0.00    +0.046 A 
ATOM      9  C   LIG    1       23.534 -19.040   4.420  0.00  0.00    +0.012 A 
BRANCH   7  10
ATOM     10  O   LIG    1       22.477 -21.352   7.062  0.00  0.00    -0.507 OA
ATOM     11  H   LIG    1       22.391 -20.867   7.899  0.00  0.00    +0.292 HD
ENDBRANCH   7  10
ENDBRANCH   3   4
BRANCH   3  12
ATOM     12  C   LIG    1       26.387 -17.160   3.872  0.00  0.00    -0.015 C 
ATOM     13  C   LIG    1       27.596 -17.019   4.467  0.00  0.00    -0.021 C 
ATOM     14  C   LIG    1       28.556 -18.113   4.811  0.00  0.00    +0.036 C 
BRANCH  12  15
ATOM     15  C   LIG    1       25.690 -15.889   3.563  0.00  0.00    -0.017 A 
ATOM     16  C   LIG    1       26.352 -14.874   2.858  0.00  0.00    +0.012 A 
ATOM     17  C   LIG    1       25.715 -13.656   2.609  0.00  0.00    +0.046 A 
ATOM     18  C   LIG    1       24.417 -13.451   3.061  0.00  0.00    +0.117 A 
ATOM     19  C   LIG    1       23.741 -14.447   3.761  0.00  0.00    +0.046 A 
ATOM     20  C   LIG    1       24.379 -15.666   4.011  0.00  0.00    +0.012 A 
BRANCH  18  21
ATOM     21  O   LIG    1       23.835 -12.247   2.795  0.00  0.00    -0.507 OA
ATOM     22  H   LIG    1       24.276 -11.564   3.326  0.00  0.00    +0.292 HD
ENDBRANCH  18  21
ENDBRANCH  12  15
ENDBRANCH   3  12
TORSDOF 5
ENDMDL
MODEL 6
REMARK VINA RESULT:      -1.2      2.660      4.168
REMARK  Name = *****
REMARK                            x       y       z     vdW  Elec       q    Type
REMARK                         _______ _______ _______ _____ _____    ______ ____
ROOT
ATOM      1  C   LIG    1       22.099 -15.535   5.209  0.00  0.00    +0.036 C 
ATOM      2  C   LIG    1       23.413 -15.742   4.521  0.00  0.00    -0.021 C 
ATOM      3  C   LIG    1       23.971 -16.912   4.125  0.00  0.00    -0.015 C 
ENDROOT
BRANCH   3   4
ATOM      4  C   LIG    1       23.198 -18.160   4.301  0.00  0.00    -0.017 A 
ATOM      5  C   LIG    1       21.999 -18.359   3.602  0.00  0.00    +0.012 A 
ATOM      6  C   LIG    1       21.243 -19.513   3.817  0.00  0.00    +0.046 A 
ATOM      7  C   LIG    1       21.685 -20.466   4.729  0.00  0.00    +0.117 A 
ATOM      8  C   LIG    1       22.875 -20.288   5.428  0.00  0.00    +0.046 A 
ATOM      9  C   LIG    1       23.633 -19.136   5.209  0.00  0.00    +0.012 A 
BRANCH   7  10
ATOM     10  O   LIG    1       20.910 -21.571   4.917  0.00  0.00    -0.507 OA
ATOM     11  H   LIG    1       20.490 -21.511   5.791  0.00  0.00    +0.292 HD
ENDBRANCH   7  10
ENDBRANCH   3   4
BRANCH   3  12
ATOM     12  C   LIG    1       25.313 -16.914   3.523  0.00  0.00    -0.015 C 
ATOM     13  C   LIG    1       25.895 -18.032   3.027  0.00  0.00    -0.021 C 
ATOM     14  C   LIG    1       25.279 -19.392   2.926  0.00  0.00    +0.036 C 
BRANCH  12  15
ATOM     15  C   LIG    1       26.128 -15.682   3.410  0.00  0.00    -0.017 A 
ATOM     16  C   LIG    1       27.313 -15.548   4.147  0.00  0.00    +0.012 A 
ATOM     17  C   LIG    1       28.057 -14.368   4.081  0.00  0.00    +0.046 A 
ATOM     18  C   LIG    1       27.622 -13.323   3.276  0.00  0.00    +0.117 A 
ATOM     19  C   LIG    1       26.449 -13.436   2.533  0.00  0.00    +0.046 A 
ATOM     20  C   LIG    1       25.703 -14.616   2.601  0.00  0.00    +0.012 A 
BRANCH  18  21
ATOM     21  O   LIG    1       28.380 -12.189   3.242  0.00  0.00    -0.507 OA
ATOM     22  H   LIG    1       28.002 -11.582   2.586  0.00  0.00    +0.292 HD
ENDBRANCH  18  21
ENDBRANCH  12  15
ENDBRANCH   3  12
TORSDOF 5
ENDMDL
MODEL 7
REMARK VINA RESULT:      -1.2      2.719      5.856
REMARK  Name = *****
REMARK                            x       y       z     vdW  Elec       q    Type
REMARK                         _______ _______ _______ _____ _____    ______ ____
ROOT
ATOM      1  C   LIG    1       28.297 -17.377   3.964  0.00  0.00    +0.036 C 
ATOM      2  C   LIG    1       26.842 -17.078   3.777  0.00  0.00    -0.021 C 
ATOM      3  C   LIG    1       26.210 -15.888   3.931  0.00  0.00    -0.015 C 
ENDROOT
BRANCH   3   4
ATOM      4  C   LIG    1       27.020 -14.692   4.247  0.00  0.00    -0.017 A 
ATOM      5  C   LIG    1       27.948 -14.196   3.321  0.00  0.00    +0.012 A 
ATOM      6  C   LIG    1       28.752 -13.102   3.649  0.00  0.00    +0.046 A 
ATOM      7  C   LIG    1       28.628 -12.505   4.899  0.00  0.00    +0.117 A 
ATOM      8  C   LIG    1       27.708 -12.981   5.829  0.00  0.00    +0.046 A 
ATOM      9  C   LIG    1       26.900 -14.072   5.499  0.00  0.00    +0.012 A 
BRANCH   7  10
ATOM     10  O   LIG    1       29.441 -11.448   5.181  0.00  0.00    -0.507 OA
ATOM     11  H   LIG    1       28.887 -10.676   5.382  0.00  0.00    +0.292 HD
ENDBRANCH   7  10
ENDBRANCH   3   4
BRANCH   3  12
ATOM     12  C   LIG    1       24.750 -15.811   3.769  0.00  0.00    -0.015 C 
ATOM     13  C   LIG    1       24.106 -14.666   3.440  0.00  0.00    -0.021 C 
ATOM     14  C   LIG    1       24.734 -13.349   3.112  0.00  0.00    +0.036 C 
BRANCH  12  15
ATOM     15  C   LIG    1       23.874 -16.992   3.950  0.00  0.00    -0.017 A 
ATOM     16  C   LIG    1       22.590 -16.842   4.493  0.00  0.00    +0.012 A 
ATOM     17  C   LIG    1       21.780 -17.959   4.711  0.00  0.00    +0.046 A 
ATOM     18  C   LIG    1       22.250 -19.226   4.385  0.00  0.00    +0.117 A 
ATOM     19  C   LIG    1       23.520 -19.396   3.842  0.00  0.00    +0.046 A 
ATOM     20  C   LIG    1       24.332 -18.278   3.625  0.00  0.00    +0.012 A 
BRANCH  18  21
ATOM     21  O   LIG    1       21.425 -20.288   4.615  0.00  0.00    -0.507 OA
ATOM     22  H   LIG    1       21.682 -21.015   4.026  0.00  0.00    +0.292 HD
ENDBRANCH  18  21
ENDBRANCH  12  15
ENDBRANCH   3  12
TORSDOF 5
ENDMDL
