MODEL 1
REMARK VINA RESULT:      -7.9      0.000      0.000
REMARK  Name = *****
REMARK                            x       y       z     vdW  Elec       q    Type
REMARK                         _______ _______ _______ _____ _____    ______ ____
ROOT
ATOM      1  C   LIG    1       22.398 -23.171   6.798  0.00  0.00    +0.035 C 
ATOM      2  C   LIG    1       22.809 -21.826   7.382  0.00  0.00    -0.028 C 
ATOM      3  C   LIG    1       24.087 -21.360   7.314  0.00  0.00    -0.042 C 
ATOM      4  C   LIG    1       25.009 -21.112   6.087  0.00  0.00    +0.069 C 
ATOM      5  C   LIG    1       26.416 -20.503   6.478  0.00  0.00    -0.004 C 
ATOM      6  C   LIG    1       26.766 -20.279   7.763  0.00  0.00    +0.025 C 
ATOM      7  C   LIG    1       25.857 -20.666   8.889  0.00  0.00    +0.065 C 
ATOM      8  N   LIG    1       28.051 -19.910   8.106  0.00  0.00    -0.326 N 
ATOM      9  H   LIG    1       28.294 -19.757   9.077  0.00  0.00    +0.169 HD
ATOM     10  C   LIG    1       29.095 -19.895   7.232  0.00  0.00    +0.249 C 
ATOM     11  O   LIG    1       30.259 -19.665   7.584  0.00  0.00    -0.268 OA
ATOM     12  C   LIG    1       28.765 -20.206   5.827  0.00  0.00    +0.070 C 
ATOM     13  C   LIG    1       27.486 -20.433   5.478  0.00  0.00    +0.013 C 
ATOM     14  C   LIG    1       25.257 -22.520   5.505  0.00  0.00    +0.061 C 
ATOM     15  C   LIG    1       25.763 -23.462   6.607  0.00  0.00    -0.074 C 
ATOM     16  C   LIG    1       26.229 -24.785   6.093  0.00  0.00    +0.038 C 
ATOM     17  C   LIG    1       25.717 -23.117   7.923  0.00  0.00    -0.020 C 
ATOM     18  C   LIG    1       24.983 -21.850   8.447  0.00  0.00    +0.045 C 
ENDROOT
BRANCH   4  19
ATOM     19  N   LIG    1       24.336 -20.203   5.153  0.00  0.00    -0.317 NA
ATOM     20  H   LIG    1       23.625 -20.742   4.656  0.00  0.00    +0.119 HD
ATOM     21  H   LIG    1       23.825 -19.495   5.673  0.00  0.00    +0.119 HD
ENDBRANCH   4  19
TORSDOF 1
ENDMDL
MODEL 2
REMARK VINA RESULT:      -6.9      2.932      4.366
REMARK  Name = *****
REMARK                            x       y       z     vdW  Elec       q    Type
REMARK                         _______ _______ _______ _____ _____    ______ ____
ROOT
ATOM      1  C   LIG    1       25.891 -24.373   7.263  0.00  0.00    +0.035 C 
ATOM      2  C   LIG    1       24.480 -24.137   6.740  0.00  0.00    -0.028 C 
ATOM      3  C   LIG    1       24.085 -22.944   6.217  0.00  0.00    -0.042 C 
ATOM      4  C   LIG    1       24.664 -22.118   5.033  0.00  0.00    +0.069 C 
ATOM      5  C   LIG    1       23.843 -20.800   4.733  0.00  0.00    -0.004 C 
ATOM      6  C   LIG    1       22.780 -20.433   5.481  0.00  0.00    +0.025 C 
ATOM      7  C   LIG    1       22.371 -21.230   6.682  0.00  0.00    +0.065 C 
ATOM      8  N   LIG    1       22.176 -19.203   5.322  0.00  0.00    -0.326 N 
ATOM      9  H   LIG    1       21.387 -18.945   5.901  0.00  0.00    +0.169 HD
ATOM     10  C   LIG    1       22.677 -18.208   4.537  0.00  0.00    +0.249 C 
ATOM     11  O   LIG    1       22.178 -17.076   4.493  0.00  0.00    -0.268 OA
ATOM     12  C   LIG    1       23.883 -18.547   3.757  0.00  0.00    +0.070 C 
ATOM     13  C   LIG    1       24.386 -19.792   3.816  0.00  0.00    +0.013 C 
ATOM     14  C   LIG    1       26.068 -21.693   5.514  0.00  0.00    +0.061 C 
ATOM     15  C   LIG    1       25.968 -21.012   6.886  0.00  0.00    -0.074 C 
ATOM     16  C   LIG    1       27.246 -20.380   7.333  0.00  0.00    +0.038 C 
ATOM     17  C   LIG    1       24.826 -21.053   7.627  0.00  0.00    -0.020 C 
ATOM     18  C   LIG    1       23.604 -21.941   7.260  0.00  0.00    +0.045 C 
ENDROOT
BRANCH   4  19
ATOM     19  N   LIG    1       24.687 -22.953   3.827  0.00  0.00    -0.317 NA
ATOM     20  H   LIG    1       24.096 -23.766   4.003  0.00  0.00    +0.119 HD
ATOM     21  H   LIG    1       24.245 -22.457   3.059  0.00  0.00    +0.119 HD
ENDBRANCH   4  19
TORSDOF 1
ENDMDL
MODEL 3
REMARK VINA RESULT:      -6.2      1.680      2.914
REMARK  Name = *****
REMARK                            x       y       z     vdW  Elec       q    Type
REMARK                         _______ _______ _______ _____ _____    ______ ____
ROOT
ATOM      1  C   LIG    1       21.353 -22.204   5.268  0.00  0.00    +0.035 C 
ATOM      2  C   LIG    1       22.171 -23.034   6.249  0.00  0.00    -0.028 C 
ATOM      3  C   LIG    1       23.436 -22.691   6.617  0.00  0.00    -0.042 C 
ATOM      4  C   LIG    1       23.983 -21.386   7.262  0.00  0.00    +0.069 C 
ATOM      5  C   LIG    1       25.533 -21.448   7.574  0.00  0.00    -0.004 C 
ATOM      6  C   LIG    1       26.284 -22.524   7.255  0.00  0.00    +0.025 C 
ATOM      7  C   LIG    1       25.692 -23.688   6.523  0.00  0.00    +0.065 C 
ATOM      8  N   LIG    1       27.659 -22.504   7.375  0.00  0.00    -0.326 N 
ATOM      9  H   LIG    1       28.203 -23.319   7.121  0.00  0.00    +0.169 HD
ATOM     10  C   LIG    1       28.379 -21.383   7.659  0.00  0.00    +0.249 C 
ATOM     11  O   LIG    1       29.617 -21.365   7.655  0.00  0.00    -0.268 OA
ATOM     12  C   LIG    1       27.594 -20.166   7.943  0.00  0.00    +0.070 C 
ATOM     13  C   LIG    1       26.251 -20.228   7.957  0.00  0.00    +0.013 C 
ATOM     14  C   LIG    1       23.770 -20.307   6.178  0.00  0.00    +0.061 C 
ATOM     15  C   LIG    1       24.386 -20.768   4.850  0.00  0.00    -0.074 C 
ATOM     16  C   LIG    1       24.414 -19.702   3.804  0.00  0.00    +0.038 C 
ATOM     17  C   LIG    1       24.801 -22.051   4.657  0.00  0.00    -0.020 C 
ATOM     18  C   LIG    1       24.514 -23.199   5.665  0.00  0.00    +0.045 C 
ENDROOT
BRANCH   4  19
ATOM     19  N   LIG    1       23.253 -21.118   8.505  0.00  0.00    -0.317 NA
ATOM     20  H   LIG    1       22.293 -21.437   8.374  0.00  0.00    +0.119 HD
ATOM     21  H   LIG    1       23.630 -21.693   9.254  0.00  0.00    +0.119 HD
ENDBRANCH   4  19
TORSDOF 1
ENDMDL
MODEL 4
REMARK VINA RESULT:      -6.0      3.011      4.022
REMARK  Name = *****
REMARK                            x       y       z     vdW  Elec       q    Type
REMARK                         _______ _______ _______ _____ _____    ______ ____
ROOT
ATOM      1  C   LIG    1       22.759 -23.418   6.943  0.00  0.00    +0.035 C 
ATOM      2  C   LIG    1       22.184 -22.625   5.777  0.00  0.00    -0.028 C 
ATOM      3  C   LIG    1       22.831 -21.558   5.230  0.00  0.00    -0.042 C 
ATOM      4  C   LIG    1       24.251 -21.447   4.607  0.00  0.00    +0.069 C 
ATOM      5  C   LIG    1       24.570 -20.007   4.036  0.00  0.00    -0.004 C 
ATOM      6  C   LIG    1       23.692 -18.986   4.140  0.00  0.00    +0.025 C 
ATOM      7  C   LIG    1       22.394 -19.156   4.868  0.00  0.00    +0.065 C 
ATOM      8  N   LIG    1       24.042 -17.697   3.794  0.00  0.00    -0.326 N 
ATOM      9  H   LIG    1       23.370 -16.945   3.889  0.00  0.00    +0.169 HD
ATOM     10  C   LIG    1       25.311 -17.313   3.482  0.00  0.00    +0.249 C 
ATOM     11  O   LIG    1       25.622 -16.132   3.280  0.00  0.00    -0.268 OA
ATOM     12  C   LIG    1       26.317 -18.392   3.430  0.00  0.00    +0.070 C 
ATOM     13  C   LIG    1       25.939 -19.665   3.636  0.00  0.00    +0.013 C 
ATOM     14  C   LIG    1       25.208 -21.701   5.793  0.00  0.00    +0.061 C 
ATOM     15  C   LIG    1       24.857 -20.766   6.959  0.00  0.00    -0.074 C 
ATOM     16  C   LIG    1       25.860 -20.791   8.066  0.00  0.00    +0.038 C 
ATOM     17  C   LIG    1       23.703 -20.043   6.978  0.00  0.00    -0.020 C 
ATOM     18  C   LIG    1       22.558 -20.239   5.945  0.00  0.00    +0.045 C 
ENDROOT
BRANCH   4  19
ATOM     19  N   LIG    1       24.384 -22.432   3.529  0.00  0.00    -0.317 NA
ATOM     20  H   LIG    1       24.575 -21.921   2.666  0.00  0.00    +0.119 HD
ATOM     21  H   LIG    1       25.206 -23.008   3.691  0.00  0.00    +0.119 HD
ENDBRANCH   4  19
TORSDOF 1
ENDMDL
MODEL 5
REMARK VINA RESULT:      -5.8      7.122      9.207
REMARK  Name = *****
REMARK                            x       y       z     vdW  Elec       q    Type
REMARK                         _______ _______ _______ _____ _____    ______ ____
ROOT
ATOM      1  C   LIG    1       25.142 -32.979  11.078  0.00  0.00    +0.035 C 
ATOM      2  C   LIG    1       25.013 -31.468  11.226  0.00  0.00    -0.028 C 
ATOM      3  C   LIG    1       25.126 -30.619  10.168  0.00  0.00    -0.042 C 
ATOM      4  C   LIG    1       24.332 -30.557   8.832  0.00  0.00    +0.069 C 
ATOM      5  C   LIG    1       24.768 -29.353   7.903  0.00  0.00    -0.004 C 
ATOM      6  C   LIG    1       25.767 -28.511   8.246  0.00  0.00    +0.025 C 
ATOM      7  C   LIG    1       26.558 -28.724   9.500  0.00  0.00    +0.065 C 
ATOM      8  N   LIG    1       26.253 -27.571   7.360  0.00  0.00    -0.326 N 
ATOM      9  H   LIG    1       27.009 -26.956   7.636  0.00  0.00    +0.169 HD
ATOM     10  C   LIG    1       25.900 -27.514   6.046  0.00  0.00    +0.249 C 
ATOM     11  O   LIG    1       26.430 -26.732   5.245  0.00  0.00    -0.268 OA
ATOM     12  C   LIG    1       24.861 -28.469   5.615  0.00  0.00    +0.070 C 
ATOM     13  C   LIG    1       24.296 -29.290   6.516  0.00  0.00    +0.013 C 
ATOM     14  C   LIG    1       24.709 -31.866   8.104  0.00  0.00    +0.061 C 
ATOM     15  C   LIG    1       26.236 -32.004   8.030  0.00  0.00    -0.074 C 
ATOM     16  C   LIG    1       26.691 -33.130   7.160  0.00  0.00    +0.038 C 
ATOM     17  C   LIG    1       27.066 -31.201   8.750  0.00  0.00    -0.020 C 
ATOM     18  C   LIG    1       26.562 -30.220   9.847  0.00  0.00    +0.045 C 
ENDROOT
BRANCH   4  19
ATOM     19  N   LIG    1       22.900 -30.443   9.125  0.00  0.00    -0.317 NA
ATOM     20  H   LIG    1       22.577 -29.553   8.745  0.00  0.00    +0.119 HD
ATOM     21  H   LIG    1       22.388 -31.158   8.615  0.00  0.00    +0.119 HD
ENDBRANCH   4  19
TORSDOF 1
ENDMDL
MODEL 6
REMARK VINA RESULT:      -5.5      3.037      4.801
REMARK  Name = *****
REMARK                            x       y       z     vdW  Elec       q    Type
REMARK                         _______ _______ _______ _____ _____    ______ ____
ROOT
ATOM      1  C   LIG    1       22.682 -19.223   5.827  0.00  0.00    +0.035 C 
ATOM      2  C   LIG    1       22.375 -20.476   5.017  0.00  0.00    -0.028 C 
ATOM      3  C   LIG    1       23.081 -21.631   5.164  0.00  0.00    -0.042 C 
ATOM      4  C   LIG    1       23.337 -22.507   6.423  0.00  0.00    +0.069 C 
ATOM      5  C   LIG    1       24.178 -23.810   6.115  0.00  0.00    -0.004 C 
ATOM      6  C   LIG    1       24.652 -24.081   4.879  0.00  0.00    +0.025 C 
ATOM      7  C   LIG    1       24.459 -23.114   3.751  0.00  0.00    +0.065 C 
ATOM      8  N   LIG    1       25.524 -25.126   4.654  0.00  0.00    -0.326 N 
ATOM      9  H   LIG    1       25.874 -25.304   3.721  0.00  0.00    +0.169 HD
ATOM     10  C   LIG    1       26.100 -25.860   5.647  0.00  0.00    +0.249 C 
ATOM     11  O   LIG    1       26.962 -26.722   5.427  0.00  0.00    -0.268 OA
ATOM     12  C   LIG    1       25.662 -25.545   7.020  0.00  0.00    +0.070 C 
ATOM     13  C   LIG    1       24.711 -24.616   7.219  0.00  0.00    +0.013 C 
ATOM     14  C   LIG    1       24.191 -21.609   7.344  0.00  0.00    +0.061 C 
ATOM     15  C   LIG    1       25.410 -21.078   6.576  0.00  0.00    -0.074 C 
ATOM     16  C   LIG    1       26.402 -20.374   7.444  0.00  0.00    +0.038 C 
ATOM     17  C   LIG    1       25.515 -21.197   5.224  0.00  0.00    -0.020 C 
ATOM     18  C   LIG    1       24.350 -21.690   4.319  0.00  0.00    +0.045 C 
ENDROOT
BRANCH   4  19
ATOM     19  N   LIG    1       22.051 -22.893   7.013  0.00  0.00    -0.317 NA
ATOM     20  H   LIG    1       21.361 -22.913   6.261  0.00  0.00    +0.119 HD
ATOM     21  H   LIG    1       22.106 -23.848   7.356  0.00  0.00    +0.119 HD
ENDBRANCH   4  19
TORSDOF 1
ENDMDL
MODEL 7
REMARK VINA RESULT:      -5.4      8.584     10.521
REMARK  Name = *****
REMARK                            x       y       z     vdW  Elec       q    Type
REMARK                         _______ _______ _______ _____ _____    ______ ____
ROOT
ATOM      1  C   LIG    1       24.006 -33.792   4.384  0.00  0.00    +0.035 C 
ATOM      2  C   LIG    1       23.050 -33.222   5.424  0.00  0.00    -0.028 C 
ATOM      3  C   LIG    1       23.473 -32.426   6.446  0.00  0.00    -0.042 C 
ATOM      4  C   LIG    1       24.254 -31.082   6.424  0.00  0.00    +0.069 C 
ATOM      5  C   LIG    1       24.486 -30.473   7.865  0.00  0.00    -0.004 C 
ATOM      6  C   LIG    1       24.074 -31.107   8.984  0.00  0.00    +0.025 C 
ATOM      7  C   LIG    1       23.438 -32.461   8.913  0.00  0.00    +0.065 C 
ATOM      8  N   LIG    1       24.428 -30.656  10.240  0.00  0.00    -0.326 N 
ATOM      9  H   LIG    1       24.116 -31.153  11.065  0.00  0.00    +0.169 HD
ATOM     10  C   LIG    1       25.329 -29.659  10.461  0.00  0.00    +0.249 C 
ATOM     11  O   LIG    1       25.711 -29.343  11.596  0.00  0.00    -0.268 OA
ATOM     12  C   LIG    1       25.857 -28.987   9.258  0.00  0.00    +0.070 C 
ATOM     13  C   LIG    1       25.405 -29.344   8.043  0.00  0.00    +0.013 C 
ATOM     14  C   LIG    1       25.638 -31.455   5.848  0.00  0.00    +0.061 C 
ATOM     15  C   LIG    1       26.238 -32.624   6.641  0.00  0.00    -0.074 C 
ATOM     16  C   LIG    1       27.662 -32.913   6.292  0.00  0.00    +0.038 C 
ATOM     17  C   LIG    1       25.497 -33.348   7.525  0.00  0.00    -0.020 C 
ATOM     18  C   LIG    1       23.956 -33.198   7.669  0.00  0.00    +0.045 C 
ENDROOT
BRANCH   4  19
ATOM     19  N   LIG    1       23.523 -30.111   5.604  0.00  0.00    -0.317 NA
ATOM     20  H   LIG    1       23.119 -30.616   4.814  0.00  0.00    +0.119 HD
ATOM     21  H   LIG    1       22.730 -29.749   6.128  0.00  0.00    +0.119 HD
ENDBRANCH   4  19
TORSDOF 1
ENDMDL
MODEL 8
REMARK VINA RESULT:      -5.0      7.724      9.944
REMARK  Name = *****
REMARK                            x       y       z     vdW  Elec       q    Type
REMARK                         _______ _______ _______ _____ _____    ______ ____
ROOT
ATOM      1  C   LIG    1       24.737 -32.962  12.058  0.00  0.00    +0.035 C 
ATOM      2  C   LIG    1       25.040 -33.144  10.577  0.00  0.00    -0.028 C 
ATOM      3  C   LIG    1       25.041 -32.103   9.698  0.00  0.00    -0.042 C 
ATOM      4  C   LIG    1       25.854 -30.777   9.704  0.00  0.00    +0.069 C 
ATOM      5  C   LIG    1       25.574 -29.870   8.438  0.00  0.00    -0.004 C 
ATOM      6  C   LIG    1       24.677 -30.220   7.491  0.00  0.00    +0.025 C 
ATOM      7  C   LIG    1       23.849 -31.461   7.635  0.00  0.00    +0.065 C 
ATOM      8  N   LIG    1       24.315 -29.350   6.484  0.00  0.00    -0.326 N 
ATOM      9  H   LIG    1       23.632 -29.630   5.790  0.00  0.00    +0.169 HD
ATOM     10  C   LIG    1       24.690 -28.041   6.441  0.00  0.00    +0.249 C 
ATOM     11  O   LIG    1       24.266 -27.251   5.587  0.00  0.00    -0.268 OA
ATOM     12  C   LIG    1       25.615 -27.600   7.503  0.00  0.00    +0.070 C 
ATOM     13  C   LIG    1       26.069 -28.490   8.403  0.00  0.00    +0.013 C 
ATOM     14  C   LIG    1       25.336 -30.017  10.944  0.00  0.00    +0.061 C 
ATOM     15  C   LIG    1       23.805 -29.923  10.901  0.00  0.00    -0.074 C 
ATOM     16  C   LIG    1       23.232 -29.024  11.948  0.00  0.00    +0.038 C 
ATOM     17  C   LIG    1       23.065 -30.652  10.020  0.00  0.00    -0.020 C 
ATOM     18  C   LIG    1       23.666 -31.775   9.128  0.00  0.00    +0.045 C 
ENDROOT
BRANCH   4  19
ATOM     19  N   LIG    1       27.286 -31.088   9.764  0.00  0.00    -0.317 NA
ATOM     20  H   LIG    1       27.391 -32.090   9.605  0.00  0.00    +0.119 HD
ATOM     21  H   LIG    1       27.766 -30.638   8.989  0.00  0.00    +0.119 HD
ENDBRANCH   4  19
TORSDOF 1
ENDMDL
MODEL 9
REMARK VINA RESULT:      -5.0      8.189     10.206
REMARK  Name = *****
REMARK                            x       y       z     vdW  Elec       q    Type
REMARK                         _______ _______ _______ _____ _____    ______ ____
ROOT
ATOM      1  C   LIG    1       27.652 -28.979  15.326  0.00  0.00    +0.035 C 
ATOM      2  C   LIG    1       27.658 -30.163  14.369  0.00  0.00    -0.028 C 
ATOM      3  C   LIG    1       27.134 -30.090  13.114  0.00  0.00    -0.042 C 
ATOM      4  C   LIG    1       27.465 -29.133  11.934  0.00  0.00    +0.069 C 
ATOM      5  C   LIG    1       26.638 -29.449  10.624  0.00  0.00    -0.004 C 
ATOM      6  C   LIG    1       25.709 -30.430  10.584  0.00  0.00    +0.025 C 
ATOM      7  C   LIG    1       25.371 -31.221  11.809  0.00  0.00    +0.065 C 
ATOM      8  N   LIG    1       24.875 -30.589   9.496  0.00  0.00    -0.326 N 
ATOM      9  H   LIG    1       24.180 -31.325   9.491  0.00  0.00    +0.169 HD
ATOM     10  C   LIG    1       24.798 -29.703   8.464  0.00  0.00    +0.249 C 
ATOM     11  O   LIG    1       23.967 -29.809   7.552  0.00  0.00    -0.268 OA
ATOM     12  C   LIG    1       25.749 -28.575   8.508  0.00  0.00    +0.070 C 
ATOM     13  C   LIG    1       26.650 -28.503   9.504  0.00  0.00    +0.013 C 
ATOM     14  C   LIG    1       27.025 -27.741  12.437  0.00  0.00    +0.061 C 
ATOM     15  C   LIG    1       25.574 -27.797  12.934  0.00  0.00    -0.074 C 
ATOM     16  C   LIG    1       24.996 -26.454  13.241  0.00  0.00    +0.038 C 
ATOM     17  C   LIG    1       24.925 -28.979  13.125  0.00  0.00    -0.020 C 
ATOM     18  C   LIG    1       25.634 -30.361  13.055  0.00  0.00    +0.045 C 
ENDROOT
BRANCH   4  19
ATOM     19  N   LIG    1       28.897 -29.218  11.630  0.00  0.00    -0.317 NA
ATOM     20  H   LIG    1       28.991 -29.386  10.627  0.00  0.00    +0.119 HD
ATOM     21  H   LIG    1       29.337 -28.317  11.797  0.00  0.00    +0.119 HD
ENDBRANCH   4  19
TORSDOF 1
ENDMDL
