MODEL 1
REMARK VINA RESULT:      -8.0      0.000      0.000
REMARK  Name = *****
REMARK                            x       y       z     vdW  Elec       q    Type
REMARK                         _______ _______ _______ _____ _____    ______ ____
ROOT
ATOM      1  C   LIG    1       26.633 -21.688   6.516  0.00  0.00    +0.064 C 
ATOM      2  C   LIG    1       26.158 -22.523   7.739  0.00  0.00    +0.117 C 
ATOM      3  C   LIG    1       24.830 -23.279   7.436  0.00  0.00    +0.062 C 
ATOM      4  C   LIG    1       23.688 -22.326   7.040  0.00  0.00    +0.151 C 
ATOM      5  C   LIG    1       24.120 -21.141   6.202  0.00  0.00    -0.011 A 
ATOM      6  C   LIG    1       23.097 -20.338   5.655  0.00  0.00    +0.056 A 
ATOM      7  C   LIG    1       23.430 -19.403   4.705  0.00  0.00    +0.167 A 
ATOM      8  O   LIG    1       22.562 -18.587   4.051  0.00  0.00    -0.453 OA
ATOM      9  C   LIG    1       23.462 -17.899   3.158  0.00  0.00    +0.466 C 
ATOM     10  O   LIG    1       24.834 -18.330   3.284  0.00  0.00    -0.453 OA
ATOM     11  C   LIG    1       24.723 -19.250   4.279  0.00  0.00    +0.167 A 
ATOM     12  C   LIG    1       25.759 -19.980   4.826  0.00  0.00    +0.054 A 
ATOM     13  C   LIG    1       25.483 -20.900   5.862  0.00  0.00    -0.030 A 
ENDROOT
BRANCH   1  18
ATOM     14  C   LIG    1       30.003 -20.551   8.082  0.00  0.00    +0.165 A 
ATOM     15  C   LIG    1       30.294 -19.378   7.363  0.00  0.00    +0.203 A 
ATOM     16  C   LIG    1       29.417 -18.993   6.325  0.00  0.00    +0.165 A 
ATOM     17  C   LIG    1       28.254 -19.755   6.062  0.00  0.00    +0.053 A 
ATOM     18  C   LIG    1       27.937 -20.913   6.797  0.00  0.00    -0.032 A 
ATOM     19  C   LIG    1       28.847 -21.302   7.790  0.00  0.00    +0.053 A 
BRANCH  14  21
ATOM     20  C   LIG    1       31.385 -22.225   9.063  0.00  0.00    +0.277 C 
ATOM     21  O   LIG    1       30.847 -20.910   9.103  0.00  0.00    -0.491 OA
ENDBRANCH  14  21
BRANCH  15  22
ATOM     22  O   LIG    1       31.409 -18.599   7.537  0.00  0.00    -0.488 OA
ATOM     23  C   LIG    1       31.552 -17.723   8.641  0.00  0.00    +0.277 C 
ENDBRANCH  15  22
BRANCH  16  24
ATOM     24  O   LIG    1       29.538 -17.905   5.486  0.00  0.00    -0.491 OA
ATOM     25  C   LIG    1       28.423 -17.544   4.673  0.00  0.00    +0.277 C 
ENDBRANCH  16  24
ENDBRANCH   1  18
BRANCH   2  26
ATOM     26  C   LIG    1       26.020 -21.691   9.000  0.00  0.00    +0.309 C 
ATOM     27  O   LIG    1       26.298 -20.494   9.158  0.00  0.00    -0.251 OA
BRANCH  26  28
ATOM     28  O   LIG    1       25.427 -22.389   9.994  0.00  0.00    -0.480 OA
ATOM     29  H   LIG    1       25.626 -23.331   9.794  0.00  0.00    +0.295 HD
ENDBRANCH  26  28
ENDBRANCH   2  26
BRANCH   4  30
ATOM     30  O   LIG    1       22.952 -21.897   8.180  0.00  0.00    -0.387 OA
ATOM     31  H   LIG    1       22.004 -21.918   7.949  0.00  0.00    +0.210 HD
ENDBRANCH   4  30
BRANCH   3  32
ATOM     32  C   LIG    1       25.000 -24.334   6.328  0.00  0.00    +0.163 C 
BRANCH  32  33
ATOM     33  O   LIG    1       23.742 -24.900   5.996  0.00  0.00    -0.395 OA
ATOM     34  H   LIG    1       23.839 -25.868   6.045  0.00  0.00    +0.209 HD
ENDBRANCH  32  33
ENDBRANCH   3  32
TORSDOF 9
ENDMDL
MODEL 2
REMARK VINA RESULT:      -7.9      0.247      2.344
REMARK  Name = *****
REMARK                            x       y       z     vdW  Elec       q    Type
REMARK                         _______ _______ _______ _____ _____    ______ ____
ROOT
ATOM      1  C   LIG    1       26.441 -21.735   6.557  0.00  0.00    +0.064 C 
ATOM      2  C   LIG    1       25.985 -22.562   7.793  0.00  0.00    +0.117 C 
ATOM      3  C   LIG    1       24.656 -23.325   7.513  0.00  0.00    +0.062 C 
ATOM      4  C   LIG    1       23.505 -22.378   7.126  0.00  0.00    +0.151 C 
ATOM      5  C   LIG    1       23.922 -21.198   6.274  0.00  0.00    -0.011 A 
ATOM      6  C   LIG    1       22.889 -20.402   5.734  0.00  0.00    +0.056 A 
ATOM      7  C   LIG    1       23.206 -19.473   4.773  0.00  0.00    +0.167 A 
ATOM      8  O   LIG    1       22.326 -18.665   4.125  0.00  0.00    -0.453 OA
ATOM      9  C   LIG    1       23.212 -17.981   3.215  0.00  0.00    +0.466 C 
ATOM     10  O   LIG    1       24.586 -18.406   3.325  0.00  0.00    -0.453 OA
ATOM     11  C   LIG    1       24.492 -19.319   4.329  0.00  0.00    +0.167 A 
ATOM     12  C   LIG    1       25.539 -20.041   4.867  0.00  0.00    +0.054 A 
ATOM     13  C   LIG    1       25.279 -20.955   5.913  0.00  0.00    -0.030 A 
ENDROOT
BRANCH   1  18
ATOM     14  C   LIG    1       29.345 -19.171   6.249  0.00  0.00    +0.165 A 
ATOM     15  C   LIG    1       30.236 -19.597   7.252  0.00  0.00    +0.203 A 
ATOM     16  C   LIG    1       29.858 -20.686   8.067  0.00  0.00    +0.165 A 
ATOM     17  C   LIG    1       28.630 -21.350   7.834  0.00  0.00    +0.053 A 
ATOM     18  C   LIG    1       27.746 -20.953   6.814  0.00  0.00    -0.032 A 
ATOM     19  C   LIG    1       28.121 -19.840   6.048  0.00  0.00    +0.053 A 
BRANCH  14  21
ATOM     20  C   LIG    1       28.699 -17.456   4.728  0.00  0.00    +0.277 C 
ATOM     21  O   LIG    1       29.726 -18.126   5.446  0.00  0.00    -0.491 OA
ENDBRANCH  14  21
BRANCH  15  22
ATOM     22  O   LIG    1       31.429 -18.994   7.557  0.00  0.00    -0.488 OA
ATOM     23  C   LIG    1       31.558 -18.077   8.629  0.00  0.00    +0.277 C 
ENDBRANCH  15  22
BRANCH  16  24
ATOM     24  O   LIG    1       30.566 -21.233   9.117  0.00  0.00    -0.491 OA
ATOM     25  C   LIG    1       31.491 -22.282   8.841  0.00  0.00    +0.277 C 
ENDBRANCH  16  24
ENDBRANCH   1  18
BRANCH   2  26
ATOM     26  C   LIG    1       25.862 -21.722   9.050  0.00  0.00    +0.309 C 
ATOM     27  O   LIG    1       26.053 -20.503   9.174  0.00  0.00    -0.251 OA
BRANCH  26  28
ATOM     28  O   LIG    1       25.391 -22.446  10.088  0.00  0.00    -0.480 OA
ATOM     29  H   LIG    1       25.649 -21.938  10.889  0.00  0.00    +0.295 HD
ENDBRANCH  26  28
ENDBRANCH   2  26
BRANCH   4  30
ATOM     30  O   LIG    1       22.783 -21.943   8.272  0.00  0.00    -0.387 OA
ATOM     31  H   LIG    1       21.962 -21.516   7.964  0.00  0.00    +0.210 HD
ENDBRANCH   4  30
BRANCH   3  32
ATOM     32  C   LIG    1       24.815 -24.387   6.411  0.00  0.00    +0.163 C 
BRANCH  32  33
ATOM     33  O   LIG    1       23.560 -24.985   6.125  0.00  0.00    -0.395 OA
ATOM     34  H   LIG    1       23.512 -25.106   5.160  0.00  0.00    +0.209 HD
ENDBRANCH  32  33
ENDBRANCH   3  32
TORSDOF 9
ENDMDL
MODEL 3
REMARK VINA RESULT:      -7.2      6.663     10.132
REMARK  Name = *****
REMARK                            x       y       z     vdW  Elec       q    Type
REMARK                         _______ _______ _______ _____ _____    ______ ____
ROOT
ATOM      1  C   LIG    1       26.000 -30.255   8.682  0.00  0.00    +0.064 C 
ATOM      2  C   LIG    1       25.295 -31.617   8.422  0.00  0.00    +0.117 C 
ATOM      3  C   LIG    1       25.304 -31.988   6.910  0.00  0.00    +0.062 C 
ATOM      4  C   LIG    1       24.612 -30.923   6.039  0.00  0.00    +0.151 C 
ATOM      5  C   LIG    1       24.837 -29.496   6.495  0.00  0.00    -0.011 A 
ATOM      6  C   LIG    1       24.385 -28.472   5.635  0.00  0.00    +0.056 A 
ATOM      7  C   LIG    1       24.774 -27.179   5.889  0.00  0.00    +0.167 A 
ATOM      8  O   LIG    1       24.465 -26.091   5.136  0.00  0.00    -0.453 OA
ATOM      9  C   LIG    1       25.188 -25.062   5.842  0.00  0.00    +0.466 C 
ATOM     10  O   LIG    1       25.923 -25.557   6.981  0.00  0.00    -0.453 OA
ATOM     11  C   LIG    1       25.592 -26.877   6.945  0.00  0.00    +0.167 A 
ATOM     12  C   LIG    1       26.013 -27.841   7.839  0.00  0.00    +0.054 A 
ATOM     13  C   LIG    1       25.579 -29.174   7.668  0.00  0.00    -0.030 A 
ENDROOT
BRANCH   1  18
ATOM     14  C   LIG    1       24.910 -28.810  12.121  0.00  0.00    +0.165 A 
ATOM     15  C   LIG    1       26.051 -29.022  12.917  0.00  0.00    +0.203 A 
ATOM     16  C   LIG    1       27.154 -29.691  12.343  0.00  0.00    +0.165 A 
ATOM     17  C   LIG    1       27.112 -30.089  10.986  0.00  0.00    +0.053 A 
ATOM     18  C   LIG    1       25.989 -29.854  10.172  0.00  0.00    -0.032 A 
ATOM     19  C   LIG    1       24.887 -29.231  10.776  0.00  0.00    +0.053 A 
BRANCH  14  21
ATOM     20  C   LIG    1       22.572 -28.757  12.571  0.00  0.00    +0.277 C 
ATOM     21  O   LIG    1       23.848 -28.142  12.676  0.00  0.00    -0.491 OA
ENDBRANCH  14  21
BRANCH  15  22
ATOM     22  O   LIG    1       26.163 -28.691  14.243  0.00  0.00    -0.488 OA
ATOM     23  C   LIG    1       26.693 -27.448  14.668  0.00  0.00    +0.277 C 
ENDBRANCH  15  22
BRANCH  16  24
ATOM     24  O   LIG    1       28.344 -30.023  12.956  0.00  0.00    -0.491 OA
ATOM     25  C   LIG    1       29.555 -29.484  12.430  0.00  0.00    +0.277 C 
ENDBRANCH  16  24
ENDBRANCH   1  18
BRANCH   2  26
ATOM     26  C   LIG    1       23.882 -31.661   8.973  0.00  0.00    +0.309 C 
ATOM     27  O   LIG    1       22.946 -30.885   8.733  0.00  0.00    -0.251 OA
BRANCH  26  28
ATOM     28  O   LIG    1       23.678 -32.761   9.731  0.00  0.00    -0.480 OA
ATOM     29  H   LIG    1       23.949 -32.496  10.638  0.00  0.00    +0.295 HD
ENDBRANCH  26  28
ENDBRANCH   2  26
BRANCH   4  30
ATOM     30  O   LIG    1       23.222 -31.193   5.895  0.00  0.00    -0.387 OA
ATOM     31  H   LIG    1       23.077 -32.135   6.104  0.00  0.00    +0.210 HD
ENDBRANCH   4  30
BRANCH   3  32
ATOM     32  C   LIG    1       26.728 -32.216   6.374  0.00  0.00    +0.163 C 
BRANCH  32  33
ATOM     33  O   LIG    1       26.677 -32.663   5.027  0.00  0.00    -0.395 OA
ATOM     34  H   LIG    1       27.396 -32.214   4.548  0.00  0.00    +0.209 HD
ENDBRANCH  32  33
ENDBRANCH   3  32
TORSDOF 9
ENDMDL
MODEL 4
REMARK VINA RESULT:      -7.1      6.701     10.072
REMARK  Name = *****
REMARK                            x       y       z     vdW  Elec       q    Type
REMARK                         _______ _______ _______ _____ _____    ______ ____
ROOT
ATOM      1  C   LIG    1       25.997 -30.265   8.625  0.00  0.00    +0.064 C 
ATOM      2  C   LIG    1       25.292 -31.625   8.355  0.00  0.00    +0.117 C 
ATOM      3  C   LIG    1       25.288 -31.977   6.837  0.00  0.00    +0.062 C 
ATOM      4  C   LIG    1       24.587 -30.903   5.986  0.00  0.00    +0.151 C 
ATOM      5  C   LIG    1       24.814 -29.482   6.457  0.00  0.00    -0.011 A 
ATOM      6  C   LIG    1       24.353 -28.448   5.613  0.00  0.00    +0.056 A 
ATOM      7  C   LIG    1       24.742 -27.157   5.881  0.00  0.00    +0.167 A 
ATOM      8  O   LIG    1       24.424 -26.060   5.143  0.00  0.00    -0.453 OA
ATOM      9  C   LIG    1       25.152 -25.039   5.856  0.00  0.00    +0.466 C 
ATOM     10  O   LIG    1       25.897 -25.547   6.983  0.00  0.00    -0.453 OA
ATOM     11  C   LIG    1       25.568 -26.866   6.933  0.00  0.00    +0.167 A 
ATOM     12  C   LIG    1       25.998 -27.840   7.811  0.00  0.00    +0.054 A 
ATOM     13  C   LIG    1       25.565 -29.172   7.628  0.00  0.00    -0.030 A 
ENDROOT
BRANCH   1  18
ATOM     14  C   LIG    1       27.074 -29.799  12.330  0.00  0.00    +0.165 A 
ATOM     15  C   LIG    1       25.915 -29.261  12.920  0.00  0.00    +0.203 A 
ATOM     16  C   LIG    1       24.802 -28.995  12.091  0.00  0.00    +0.165 A 
ATOM     17  C   LIG    1       24.855 -29.314  10.714  0.00  0.00    +0.053 A 
ATOM     18  C   LIG    1       25.997 -29.882  10.120  0.00  0.00    -0.032 A 
ATOM     19  C   LIG    1       27.105 -30.093  10.952  0.00  0.00    +0.053 A 
BRANCH  14  21
ATOM     20  C   LIG    1       29.398 -29.518  12.768  0.00  0.00    +0.277 C 
ATOM     21  O   LIG    1       28.145 -30.075  13.142  0.00  0.00    -0.491 OA
ENDBRANCH  14  21
BRANCH  15  22
ATOM     22  O   LIG    1       25.792 -28.901  14.237  0.00  0.00    -0.488 OA
ATOM     23  C   LIG    1       26.198 -27.630  14.712  0.00  0.00    +0.277 C 
ENDBRANCH  15  22
BRANCH  16  24
ATOM     24  O   LIG    1       23.594 -28.443  12.462  0.00  0.00    -0.491 OA
ATOM     25  C   LIG    1       22.400 -29.168  12.181  0.00  0.00    +0.277 C 
ENDBRANCH  16  24
ENDBRANCH   1  18
BRANCH   2  26
ATOM     26  C   LIG    1       23.884 -31.679   8.916  0.00  0.00    +0.309 C 
ATOM     27  O   LIG    1       22.946 -30.897   8.700  0.00  0.00    -0.251 OA
BRANCH  26  28
ATOM     28  O   LIG    1       23.685 -32.793   9.654  0.00  0.00    -0.480 OA
ATOM     29  H   LIG    1       23.227 -32.480  10.466  0.00  0.00    +0.295 HD
ENDBRANCH  26  28
ENDBRANCH   2  26
BRANCH   4  30
ATOM     30  O   LIG    1       23.197 -31.174   5.850  0.00  0.00    -0.387 OA
ATOM     31  H   LIG    1       22.786 -30.410   5.403  0.00  0.00    +0.210 HD
ENDBRANCH   4  30
BRANCH   3  32
ATOM     32  C   LIG    1       26.708 -32.195   6.287  0.00  0.00    +0.163 C 
BRANCH  32  33
ATOM     33  O   LIG    1       26.647 -32.661   4.947  0.00  0.00    -0.395 OA
ATOM     34  H   LIG    1       27.045 -33.549   4.933  0.00  0.00    +0.209 HD
ENDBRANCH  32  33
ENDBRANCH   3  32
TORSDOF 9
ENDMDL
MODEL 5
REMARK VINA RESULT:      -6.6      8.941     11.795
REMARK  Name = *****
REMARK                            x       y       z     vdW  Elec       q    Type
REMARK                         _______ _______ _______ _____ _____    ______ ____
ROOT
ATOM      1  C   LIG    1       25.549 -30.280  12.014  0.00  0.00    +0.064 C 
ATOM      2  C   LIG    1       27.026 -29.945  12.369  0.00  0.00    +0.117 C 
ATOM      3  C   LIG    1       27.168 -29.477  13.848  0.00  0.00    +0.062 C 
ATOM      4  C   LIG    1       26.314 -28.234  14.156  0.00  0.00    +0.151 C 
ATOM      5  C   LIG    1       24.973 -28.204  13.453  0.00  0.00    -0.011 A 
ATOM      6  C   LIG    1       24.072 -27.187  13.838  0.00  0.00    +0.056 A 
ATOM      7  C   LIG    1       22.771 -27.261  13.404  0.00  0.00    +0.167 A 
ATOM      8  O   LIG    1       21.774 -26.393  13.721  0.00  0.00    -0.453 OA
ATOM      9  C   LIG    1       20.657 -27.009  13.047  0.00  0.00    +0.466 C 
ATOM     10  O   LIG    1       21.005 -28.232  12.364  0.00  0.00    -0.453 OA
ATOM     11  C   LIG    1       22.338 -28.300  12.623  0.00  0.00    +0.167 A 
ATOM     12  C   LIG    1       23.199 -29.286  12.182  0.00  0.00    +0.054 A 
ATOM     13  C   LIG    1       24.565 -29.215  12.535  0.00  0.00    -0.030 A 
ENDROOT
BRANCH   1  18
ATOM     14  C   LIG    1       24.537 -30.371   8.263  0.00  0.00    +0.165 A 
ATOM     15  C   LIG    1       24.976 -31.645   7.859  0.00  0.00    +0.203 A 
ATOM     16  C   LIG    1       25.657 -32.450   8.799  0.00  0.00    +0.165 A 
ATOM     17  C   LIG    1       25.840 -31.987  10.124  0.00  0.00    +0.053 A 
ATOM     18  C   LIG    1       25.377 -30.728  10.547  0.00  0.00    -0.032 A 
ATOM     19  C   LIG    1       24.747 -29.927   9.584  0.00  0.00    +0.053 A 
BRANCH  14  21
ATOM     20  C   LIG    1       24.588 -28.559   6.718  0.00  0.00    +0.277 C 
ATOM     21  O   LIG    1       23.859 -29.601   7.352  0.00  0.00    -0.491 OA
ENDBRANCH  14  21
BRANCH  15  22
ATOM     22  O   LIG    1       24.861 -32.157   6.592  0.00  0.00    -0.488 OA
ATOM     23  C   LIG    1       25.829 -31.907   5.587  0.00  0.00    +0.277 C 
ENDBRANCH  15  22
BRANCH  16  24
ATOM     24  O   LIG    1       26.192 -33.705   8.597  0.00  0.00    -0.491 OA
ATOM     25  C   LIG    1       27.601 -33.823   8.417  0.00  0.00    +0.277 C 
ENDBRANCH  16  24
ENDBRANCH   1  18
BRANCH   2  26
ATOM     26  C   LIG    1       27.640 -28.926  11.427  0.00  0.00    +0.309 C 
ATOM     27  O   LIG    1       27.096 -27.938  10.914  0.00  0.00    -0.251 OA
BRANCH  26  28
ATOM     28  O   LIG    1       28.963 -29.142  11.256  0.00  0.00    -0.480 OA
ATOM     29  H   LIG    1       29.309 -29.318  12.160  0.00  0.00    +0.295 HD
ENDBRANCH  26  28
ENDBRANCH   2  26
BRANCH   4  30
ATOM     30  O   LIG    1       27.038 -27.033  13.914  0.00  0.00    -0.387 OA
ATOM     31  H   LIG    1       27.683 -26.922  14.637  0.00  0.00    +0.210 HD
ENDBRANCH   4  30
BRANCH   3  32
ATOM     32  C   LIG    1       26.804 -30.588  14.848  0.00  0.00    +0.163 C 
BRANCH  32  33
ATOM     33  O   LIG    1       27.727 -31.661  14.743  0.00  0.00    -0.395 OA
ATOM     34  H   LIG    1       28.448 -31.365  14.159  0.00  0.00    +0.209 HD
ENDBRANCH  32  33
ENDBRANCH   3  32
TORSDOF 9
ENDMDL
MODEL 6
REMARK VINA RESULT:      -6.3      1.667      4.172
REMARK  Name = *****
REMARK                            x       y       z     vdW  Elec       q    Type
REMARK                         _______ _______ _______ _____ _____    ______ ____
ROOT
ATOM      1  C   LIG    1       25.980 -21.148   6.816  0.00  0.00    +0.064 C 
ATOM      2  C   LIG    1       25.255 -20.062   5.971  0.00  0.00    +0.117 C 
ATOM      3  C   LIG    1       23.763 -20.431   5.721  0.00  0.00    +0.062 C 
ATOM      4  C   LIG    1       23.605 -21.780   4.995  0.00  0.00    +0.151 C 
ATOM      5  C   LIG    1       24.612 -22.835   5.402  0.00  0.00    -0.011 A 
ATOM      6  C   LIG    1       24.403 -24.141   4.911  0.00  0.00    +0.056 A 
ATOM      7  C   LIG    1       25.146 -25.170   5.438  0.00  0.00    +0.167 A 
ATOM      8  O   LIG    1       25.035 -26.484   5.109  0.00  0.00    -0.453 OA
ATOM      9  C   LIG    1       25.996 -27.069   6.012  0.00  0.00    +0.466 C 
ATOM     10  O   LIG    1       26.640 -26.101   6.867  0.00  0.00    -0.453 OA
ATOM     11  C   LIG    1       26.066 -24.949   6.428  0.00  0.00    +0.167 A 
ATOM     12  C   LIG    1       26.337 -23.679   6.899  0.00  0.00    +0.054 A 
ATOM     13  C   LIG    1       25.657 -22.577   6.337  0.00  0.00    -0.030 A 
ENDROOT
BRANCH   1  18
ATOM     14  C   LIG    1       29.573 -21.119   8.296  0.00  0.00    +0.165 A 
ATOM     15  C   LIG    1       30.196 -20.091   7.565  0.00  0.00    +0.203 A 
ATOM     16  C   LIG    1       29.457 -19.448   6.547  0.00  0.00    +0.165 A 
ATOM     17  C   LIG    1       28.109 -19.812   6.316  0.00  0.00    +0.053 A 
ATOM     18  C   LIG    1       27.467 -20.817   7.062  0.00  0.00    -0.032 A 
ATOM     19  C   LIG    1       28.234 -21.473   8.035  0.00  0.00    +0.053 A 
BRANCH  14  21
ATOM     20  C   LIG    1       31.510 -22.351   8.930  0.00  0.00    +0.277 C 
ATOM     21  O   LIG    1       30.288 -21.726   9.298  0.00  0.00    -0.491 OA
ENDBRANCH  14  21
BRANCH  15  22
ATOM     22  O   LIG    1       31.502 -19.697   7.710  0.00  0.00    -0.488 OA
ATOM     23  C   LIG    1       31.870 -18.586   8.508  0.00  0.00    +0.277 C 
ENDBRANCH  15  22
BRANCH  16  24
ATOM     24  O   LIG    1       29.889 -18.448   5.702  0.00  0.00    -0.491 OA
ATOM     25  C   LIG    1       28.921 -17.746   4.927  0.00  0.00    +0.277 C 
ENDBRANCH  16  24
ENDBRANCH   1  18
BRANCH   2  26
ATOM     26  C   LIG    1       25.959 -19.773   4.659  0.00  0.00    +0.309 C 
ATOM     27  O   LIG    1       25.791 -18.807   3.900  0.00  0.00    -0.251 OA
BRANCH  26  28
ATOM     28  O   LIG    1       26.935 -20.673   4.410  0.00  0.00    -0.480 OA
ATOM     29  H   LIG    1       27.389 -20.337   3.605  0.00  0.00    +0.295 HD
ENDBRANCH  26  28
ENDBRANCH   2  26
BRANCH   4  30
ATOM     30  O   LIG    1       23.594 -21.611   3.582  0.00  0.00    -0.387 OA
ATOM     31  H   LIG    1       24.461 -21.899   3.240  0.00  0.00    +0.210 HD
ENDBRANCH   4  30
BRANCH   3  32
ATOM     32  C   LIG    1       22.947 -20.473   7.024  0.00  0.00    +0.163 C 
BRANCH  32  33
ATOM     33  O   LIG    1       22.906 -21.797   7.533  0.00  0.00    -0.395 OA
ATOM     34  H   LIG    1       23.630 -21.880   8.180  0.00  0.00    +0.209 HD
ENDBRANCH  32  33
ENDBRANCH   3  32
TORSDOF 9
ENDMDL
MODEL 7
REMARK VINA RESULT:      -6.2      7.302     11.525
REMARK  Name = *****
REMARK                            x       y       z     vdW  Elec       q    Type
REMARK                         _______ _______ _______ _____ _____    ______ ____
ROOT
ATOM      1  C   LIG    1       25.278 -31.036   8.332  0.00  0.00    +0.064 C 
ATOM      2  C   LIG    1       25.110 -32.462   7.732  0.00  0.00    +0.117 C 
ATOM      3  C   LIG    1       26.062 -32.689   6.521  0.00  0.00    +0.062 C 
ATOM      4  C   LIG    1       25.831 -31.669   5.391  0.00  0.00    +0.151 C 
ATOM      5  C   LIG    1       25.492 -30.271   5.866  0.00  0.00    -0.011 A 
ATOM      6  C   LIG    1       25.453 -29.256   4.887  0.00  0.00    +0.056 A 
ATOM      7  C   LIG    1       25.384 -27.946   5.298  0.00  0.00    +0.167 A 
ATOM      8  O   LIG    1       25.385 -26.855   4.488  0.00  0.00    -0.453 OA
ATOM      9  C   LIG    1       25.366 -25.795   5.465  0.00  0.00    +0.466 C 
ATOM     10  O   LIG    1       25.375 -26.272   6.828  0.00  0.00    -0.453 OA
ATOM     11  C   LIG    1       25.367 -27.618   6.627  0.00  0.00    +0.167 A 
ATOM     12  C   LIG    1       25.351 -28.583   7.615  0.00  0.00    +0.054 A 
ATOM     13  C   LIG    1       25.342 -29.946   7.245  0.00  0.00    -0.030 A 
ENDROOT
BRANCH   1  18
ATOM     14  C   LIG    1       22.078 -30.520  10.476  0.00  0.00    +0.165 A 
ATOM     15  C   LIG    1       22.605 -30.177  11.735  0.00  0.00    +0.203 A 
ATOM     16  C   LIG    1       24.009 -30.174  11.896  0.00  0.00    +0.165 A 
ATOM     17  C   LIG    1       24.847 -30.464  10.794  0.00  0.00    +0.053 A 
ATOM     18  C   LIG    1       24.331 -30.777   9.523  0.00  0.00    -0.032 A 
ATOM     19  C   LIG    1       22.935 -30.821   9.398  0.00  0.00    +0.053 A 
BRANCH  14  21
ATOM     20  C   LIG    1       20.038 -31.748  10.416  0.00  0.00    +0.277 C 
ATOM     21  O   LIG    1       20.715 -30.502  10.319  0.00  0.00    -0.491 OA
ENDBRANCH  14  21
BRANCH  15  22
ATOM     22  O   LIG    1       21.864 -29.908  12.857  0.00  0.00    -0.488 OA
ATOM     23  C   LIG    1       21.394 -28.606  13.155  0.00  0.00    +0.277 C 
ENDBRANCH  15  22
BRANCH  16  24
ATOM     24  O   LIG    1       24.719 -29.901  13.046  0.00  0.00    -0.491 OA
ATOM     25  C   LIG    1       26.124 -30.145  13.052  0.00  0.00    +0.277 C 
ENDBRANCH  16  24
ENDBRANCH   1  18
BRANCH   2  26
ATOM     26  C   LIG    1       23.675 -32.771   7.347  0.00  0.00    +0.309 C 
ATOM     27  O   LIG    1       22.998 -32.251   6.448  0.00  0.00    -0.251 OA
BRANCH  26  28
ATOM     28  O   LIG    1       23.185 -33.813   8.052  0.00  0.00    -0.480 OA
ATOM     29  H   LIG    1       22.419 -34.136   7.528  0.00  0.00    +0.295 HD
ENDBRANCH  26  28
ENDBRANCH   2  26
BRANCH   4  30
ATOM     30  O   LIG    1       24.859 -32.135   4.461  0.00  0.00    -0.387 OA
ATOM     31  H   LIG    1       25.262 -32.116   3.573  0.00  0.00    +0.210 HD
ENDBRANCH   4  30
BRANCH   3  32
ATOM     32  C   LIG    1       27.545 -32.646   6.929  0.00  0.00    +0.163 C 
BRANCH  32  33
ATOM     33  O   LIG    1       28.329 -33.374   5.997  0.00  0.00    -0.395 OA
ATOM     34  H   LIG    1       29.185 -32.916   5.921  0.00  0.00    +0.209 HD
ENDBRANCH  32  33
ENDBRANCH   3  32
TORSDOF 9
ENDMDL
MODEL 8
REMARK VINA RESULT:      -6.0      1.619      4.820
REMARK  Name = *****
REMARK                            x       y       z     vdW  Elec       q    Type
REMARK                         _______ _______ _______ _____ _____    ______ ____
ROOT
ATOM      1  C   LIG    1       25.860 -21.148   6.721  0.00  0.00    +0.064 C 
ATOM      2  C   LIG    1       25.104 -20.093   5.863  0.00  0.00    +0.117 C 
ATOM      3  C   LIG    1       23.638 -20.534   5.574  0.00  0.00    +0.062 C 
ATOM      4  C   LIG    1       23.564 -21.884   4.838  0.00  0.00    +0.151 C 
ATOM      5  C   LIG    1       24.612 -22.891   5.266  0.00  0.00    -0.011 A 
ATOM      6  C   LIG    1       24.480 -24.203   4.764  0.00  0.00    +0.056 A 
ATOM      7  C   LIG    1       25.259 -25.197   5.305  0.00  0.00    +0.167 A 
ATOM      8  O   LIG    1       25.221 -26.513   4.968  0.00  0.00    -0.453 OA
ATOM      9  C   LIG    1       26.186 -27.055   5.892  0.00  0.00    +0.466 C 
ATOM     10  O   LIG    1       26.761 -26.062   6.768  0.00  0.00    -0.453 OA
ATOM     11  C   LIG    1       26.142 -24.937   6.319  0.00  0.00    +0.167 A 
ATOM     12  C   LIG    1       26.339 -23.658   6.802  0.00  0.00    +0.054 A 
ATOM     13  C   LIG    1       25.619 -22.587   6.228  0.00  0.00    -0.030 A 
ENDROOT
BRANCH   1  18
ATOM     14  C   LIG    1       29.330 -19.411   6.519  0.00  0.00    +0.165 A 
ATOM     15  C   LIG    1       30.076 -20.104   7.490  0.00  0.00    +0.203 A 
ATOM     16  C   LIG    1       29.425 -21.100   8.251  0.00  0.00    +0.165 A 
ATOM     17  C   LIG    1       28.068 -21.410   7.996  0.00  0.00    +0.053 A 
ATOM     18  C   LIG    1       27.322 -20.745   7.006  0.00  0.00    -0.032 A 
ATOM     19  C   LIG    1       27.975 -19.728   6.295  0.00  0.00    +0.053 A 
BRANCH  14  21
ATOM     20  C   LIG    1       29.181 -17.723   4.845  0.00  0.00    +0.277 C 
ATOM     21  O   LIG    1       29.972 -18.459   5.767  0.00  0.00    -0.491 OA
ENDBRANCH  14  21
BRANCH  15  22
ATOM     22  O   LIG    1       31.383 -19.848   7.815  0.00  0.00    -0.488 OA
ATOM     23  C   LIG    1       31.758 -18.739   8.612  0.00  0.00    +0.277 C 
ENDBRANCH  15  22
BRANCH  16  24
ATOM     24  O   LIG    1       29.962 -21.865   9.265  0.00  0.00    -0.491 OA
ATOM     25  C   LIG    1       31.300 -22.337   9.125  0.00  0.00    +0.277 C 
ENDBRANCH  16  24
ENDBRANCH   1  18
BRANCH   2  26
ATOM     26  C   LIG    1       25.825 -19.763   4.570  0.00  0.00    +0.309 C 
ATOM     27  O   LIG    1       25.777 -18.710   3.917  0.00  0.00    -0.251 OA
BRANCH  26  28
ATOM     28  O   LIG    1       26.672 -20.750   4.207  0.00  0.00    -0.480 OA
ATOM     29  H   LIG    1       26.145 -21.577   4.285  0.00  0.00    +0.295 HD
ENDBRANCH  26  28
ENDBRANCH   2  26
BRANCH   4  30
ATOM     30  O   LIG    1       23.581 -21.708   3.426  0.00  0.00    -0.387 OA
ATOM     31  H   LIG    1       22.656 -21.664   3.119  0.00  0.00    +0.210 HD
ENDBRANCH   4  30
BRANCH   3  32
ATOM     32  C   LIG    1       22.793 -20.622   6.856  0.00  0.00    +0.163 C 
BRANCH  32  33
ATOM     33  O   LIG    1       23.619 -20.459   7.998  0.00  0.00    -0.395 OA
ATOM     34  H   LIG    1       23.031 -20.314   8.761  0.00  0.00    +0.209 HD
ENDBRANCH  32  33
ENDBRANCH   3  32
TORSDOF 9
ENDMDL
MODEL 9
REMARK VINA RESULT:      -6.0      9.209     12.326
REMARK  Name = *****
REMARK                            x       y       z     vdW  Elec       q    Type
REMARK                         _______ _______ _______ _____ _____    ______ ____
ROOT
ATOM      1  C   LIG    1       25.262 -29.376  10.999  0.00  0.00    +0.064 C 
ATOM      2  C   LIG    1       23.940 -29.767  11.720  0.00  0.00    +0.117 C 
ATOM      3  C   LIG    1       23.868 -29.163  13.153  0.00  0.00    +0.062 C 
ATOM      4  C   LIG    1       25.042 -29.612  14.041  0.00  0.00    +0.151 C 
ATOM      5  C   LIG    1       26.365 -29.743  13.315  0.00  0.00    -0.011 A 
ATOM      6  C   LIG    1       27.510 -29.970  14.109  0.00  0.00    +0.056 A 
ATOM      7  C   LIG    1       28.748 -29.860  13.525  0.00  0.00    +0.167 A 
ATOM      8  O   LIG    1       29.943 -30.002  14.157  0.00  0.00    -0.453 OA
ATOM      9  C   LIG    1       30.854 -29.716  13.076  0.00  0.00    +0.466 C 
ATOM     10  O   LIG    1       30.188 -29.394  11.836  0.00  0.00    -0.453 OA
ATOM     11  C   LIG    1       28.885 -29.526  12.204  0.00  0.00    +0.167 A 
ATOM     12  C   LIG    1       27.791 -29.348  11.381  0.00  0.00    +0.054 A 
ATOM     13  C   LIG    1       26.494 -29.525  11.913  0.00  0.00    -0.030 A 
ENDROOT
BRANCH   1  18
ATOM     14  C   LIG    1       24.624 -30.149   7.245  0.00  0.00    +0.165 A 
ATOM     15  C   LIG    1       25.520 -31.205   6.994  0.00  0.00    +0.203 A 
ATOM     16  C   LIG    1       26.374 -31.623   8.039  0.00  0.00    +0.165 A 
ATOM     17  C   LIG    1       26.283 -31.014   9.312  0.00  0.00    +0.053 A 
ATOM     18  C   LIG    1       25.369 -29.979   9.583  0.00  0.00    -0.032 A 
ATOM     19  C   LIG    1       24.564 -29.549   8.519  0.00  0.00    +0.053 A 
BRANCH  14  21
ATOM     20  C   LIG    1       24.201 -28.666   5.430  0.00  0.00    +0.277 C 
ATOM     21  O   LIG    1       23.782 -29.761   6.234  0.00  0.00    -0.491 OA
ENDBRANCH  14  21
BRANCH  15  22
ATOM     22  O   LIG    1       25.688 -31.829   5.785  0.00  0.00    -0.488 OA
ATOM     23  C   LIG    1       24.939 -32.974   5.417  0.00  0.00    +0.277 C 
ENDBRANCH  15  22
BRANCH  16  24
ATOM     24  O   LIG    1       27.338 -32.608   7.990  0.00  0.00    -0.491 OA
ATOM     25  C   LIG    1       27.159 -33.775   8.789  0.00  0.00    +0.277 C 
ENDBRANCH  16  24
ENDBRANCH   1  18
BRANCH   2  26
ATOM     26  C   LIG    1       23.717 -31.267  11.763  0.00  0.00    +0.309 C 
ATOM     27  O   LIG    1       24.508 -32.145  12.140  0.00  0.00    -0.251 OA
BRANCH  26  28
ATOM     28  O   LIG    1       22.450 -31.592  11.426  0.00  0.00    -0.480 OA
ATOM     29  H   LIG    1       22.400 -31.438  10.456  0.00  0.00    +0.295 HD
ENDBRANCH  26  28
ENDBRANCH   2  26
BRANCH   4  30
ATOM     30  O   LIG    1       24.732 -30.810  14.745  0.00  0.00    -0.387 OA
ATOM     31  H   LIG    1       25.405 -30.931  15.441  0.00  0.00    +0.210 HD
ENDBRANCH   4  30
BRANCH   3  32
ATOM     32  C   LIG    1       23.822 -27.625  13.135  0.00  0.00    +0.163 C 
BRANCH  32  33
ATOM     33  O   LIG    1       22.484 -27.178  12.975  0.00  0.00    -0.395 OA
ATOM     34  H   LIG    1       21.998 -27.885  12.514  0.00  0.00    +0.209 HD
ENDBRANCH  32  33
ENDBRANCH   3  32
TORSDOF 9
ENDMDL
