MODEL 1
REMARK VINA RESULT:      -4.4      0.000      0.000
REMARK  Name = *****
REMARK                            x       y       z     vdW  Elec       q    Type
REMARK                         _______ _______ _______ _____ _____    ______ ____
ROOT
ATOM      1  C   LIG    1       24.550 -18.914   3.571  0.00  0.00    +0.030 A 
ATOM      2  C   LIG    1       24.612 -17.547   3.785  0.00  0.00    +0.003 A 
ATOM      3  C   LIG    1       25.757 -16.603   3.634  0.00  0.00    +0.146 C 
ATOM      4  N   LIG    1       25.159 -15.309   3.930  0.00  0.00    -0.281 N 
ATOM      5  C   LIG    1       23.851 -15.432   4.368  0.00  0.00    +0.248 C 
ATOM      6  O   LIG    1       23.119 -14.568   4.809  0.00  0.00    -0.270 OA
ATOM      7  C   LIG    1       23.485 -16.844   4.219  0.00  0.00    +0.043 A 
ATOM      8  C   LIG    1       22.258 -17.441   4.426  0.00  0.00    +0.013 A 
ATOM      9  C   LIG    1       22.163 -18.803   4.152  0.00  0.00    +0.003 A 
ATOM     10  C   LIG    1       23.291 -19.521   3.706  0.00  0.00    +0.023 A 
ENDROOT
BRANCH   4  11
ATOM     11  C   LIG    1       25.967 -14.104   4.059  0.00  0.00    +0.163 C 
ATOM     12  C   LIG    1       27.035 -14.037   2.956  0.00  0.00    +0.240 C 
ATOM     13  O   LIG    1       26.853 -14.454   1.812  0.00  0.00    -0.273 OA
ATOM     14  N   LIG    1       28.183 -13.346   3.267  0.00  0.00    -0.255 N 
ATOM     15  H   LIG    1       28.869 -13.275   2.527  0.00  0.00    +0.158 HD
ATOM     16  C   LIG    1       28.439 -12.605   4.394  0.00  0.00    +0.219 C 
ATOM     17  O   LIG    1       29.426 -11.879   4.462  0.00  0.00    -0.275 OA
ATOM     18  C   LIG    1       27.390 -12.641   5.481  0.00  0.00    +0.098 C 
ATOM     19  C   LIG    1       26.600 -13.938   5.440  0.00  0.00    +0.041 C 
ENDBRANCH   4  11
BRANCH   1  20
ATOM     20  N   LIG    1       25.616 -19.626   3.016  0.00  0.00    -0.358 N 
ATOM     21  H   LIG    1       26.347 -19.870   3.677  0.00  0.00    +0.142 HD
ATOM     22  H   LIG    1       25.325 -20.433   2.472  0.00  0.00    +0.142 HD
ENDBRANCH   1  20
TORSDOF 2
ENDMDL
MODEL 2
REMARK VINA RESULT:      -3.7      1.461      1.684
REMARK  Name = *****
REMARK                            x       y       z     vdW  Elec       q    Type
REMARK                         _______ _______ _______ _____ _____    ______ ____
ROOT
ATOM      1  C   LIG    1       24.086 -20.023   4.001  0.00  0.00    +0.030 A 
ATOM      2  C   LIG    1       24.378 -18.678   3.839  0.00  0.00    +0.003 A 
ATOM      3  C   LIG    1       25.621 -18.018   3.346  0.00  0.00    +0.146 C 
ATOM      4  N   LIG    1       25.266 -16.607   3.340  0.00  0.00    -0.281 N 
ATOM      5  C   LIG    1       24.021 -16.385   3.906  0.00  0.00    +0.248 C 
ATOM      6  O   LIG    1       23.489 -15.323   4.164  0.00  0.00    -0.270 OA
ATOM      7  C   LIG    1       23.433 -17.703   4.168  0.00  0.00    +0.043 A 
ATOM      8  C   LIG    1       22.168 -18.003   4.630  0.00  0.00    +0.013 A 
ATOM      9  C   LIG    1       21.837 -19.351   4.736  0.00  0.00    +0.003 A 
ATOM     10  C   LIG    1       22.779 -20.345   4.400  0.00  0.00    +0.023 A 
ENDROOT
BRANCH   4  11
ATOM     11  C   LIG    1       26.254 -15.570   3.076  0.00  0.00    +0.163 C 
ATOM     12  C   LIG    1       27.491 -15.747   3.970  0.00  0.00    +0.240 C 
ATOM     13  O   LIG    1       27.928 -16.847   4.308  0.00  0.00    -0.273 OA
ATOM     14  N   LIG    1       28.190 -14.601   4.269  0.00  0.00    -0.255 N 
ATOM     15  H   LIG    1       29.022 -14.726   4.830  0.00  0.00    +0.158 HD
ATOM     16  C   LIG    1       27.990 -13.339   3.766  0.00  0.00    +0.219 C 
ATOM     17  O   LIG    1       28.806 -12.444   3.965  0.00  0.00    -0.275 OA
ATOM     18  C   LIG    1       26.792 -13.150   2.867  0.00  0.00    +0.098 C 
ATOM     19  C   LIG    1       25.696 -14.152   3.192  0.00  0.00    +0.041 C 
ENDBRANCH   4  11
BRANCH   1  20
ATOM     20  N   LIG    1       24.954 -21.026   3.565  0.00  0.00    -0.358 N 
ATOM     21  H   LIG    1       24.575 -21.623   2.837  0.00  0.00    +0.142 HD
ATOM     22  H   LIG    1       25.879 -20.684   3.318  0.00  0.00    +0.142 HD
ENDBRANCH   1  20
TORSDOF 2
ENDMDL
MODEL 3
REMARK VINA RESULT:      -3.5      2.458      6.574
REMARK  Name = *****
REMARK                            x       y       z     vdW  Elec       q    Type
REMARK                         _______ _______ _______ _____ _____    ______ ____
ROOT
ATOM      1  C   LIG    1       25.055 -13.395   4.139  0.00  0.00    +0.030 A 
ATOM      2  C   LIG    1       25.061 -14.762   3.912  0.00  0.00    +0.003 A 
ATOM      3  C   LIG    1       23.955 -15.757   4.022  0.00  0.00    +0.146 C 
ATOM      4  N   LIG    1       24.580 -16.994   3.578  0.00  0.00    -0.281 N 
ATOM      5  C   LIG    1       25.940 -16.840   3.369  0.00  0.00    +0.248 C 
ATOM      6  O   LIG    1       26.767 -17.696   3.119  0.00  0.00    -0.270 OA
ATOM      7  C   LIG    1       26.234 -15.412   3.523  0.00  0.00    +0.043 A 
ATOM      8  C   LIG    1       27.428 -14.752   3.312  0.00  0.00    +0.013 A 
ATOM      9  C   LIG    1       27.422 -13.369   3.473  0.00  0.00    +0.003 A 
ATOM     10  C   LIG    1       26.243 -12.701   3.857  0.00  0.00    +0.023 A 
ENDROOT
BRANCH   4  11
ATOM     11  C   LIG    1       23.896 -18.277   3.679  0.00  0.00    +0.163 C 
ATOM     12  C   LIG    1       22.668 -18.174   4.598  0.00  0.00    +0.240 C 
ATOM     13  O   LIG    1       21.961 -17.169   4.671  0.00  0.00    -0.273 OA
ATOM     14  N   LIG    1       22.299 -19.331   5.244  0.00  0.00    -0.255 N 
ATOM     15  H   LIG    1       21.471 -19.268   5.821  0.00  0.00    +0.158 HD
ATOM     16  C   LIG    1       22.817 -20.591   5.074  0.00  0.00    +0.219 C 
ATOM     17  O   LIG    1       22.268 -21.571   5.569  0.00  0.00    -0.275 OA
ATOM     18  C   LIG    1       24.011 -20.715   4.157  0.00  0.00    +0.098 C 
ATOM     19  C   LIG    1       24.809 -19.422   4.115  0.00  0.00    +0.041 C 
ENDBRANCH   4  11
BRANCH   1  20
ATOM     20  N   LIG    1       23.877 -12.693   4.404  0.00  0.00    -0.358 N 
ATOM     21  H   LIG    1       23.400 -12.347   3.578  0.00  0.00    +0.142 HD
ATOM     22  H   LIG    1       23.238 -13.190   5.018  0.00  0.00    +0.142 HD
ENDBRANCH   1  20
TORSDOF 2
ENDMDL
MODEL 4
REMARK VINA RESULT:      -2.2      4.069      6.813
REMARK  Name = *****
REMARK                            x       y       z     vdW  Elec       q    Type
REMARK                         _______ _______ _______ _____ _____    ______ ____
ROOT
ATOM      1  C   LIG    1       28.605 -18.789   5.332  0.00  0.00    +0.030 A 
ATOM      2  C   LIG    1       27.337 -19.331   5.202  0.00  0.00    +0.003 A 
ATOM      3  C   LIG    1       26.225 -18.961   4.279  0.00  0.00    +0.146 C 
ATOM      4  N   LIG    1       25.201 -19.950   4.583  0.00  0.00    -0.281 N 
ATOM      5  C   LIG    1       25.551 -20.740   5.665  0.00  0.00    +0.248 C 
ATOM      6  O   LIG    1       24.874 -21.566   6.246  0.00  0.00    -0.270 OA
ATOM      7  C   LIG    1       26.929 -20.387   6.020  0.00  0.00    +0.043 A 
ATOM      8  C   LIG    1       27.750 -20.970   6.965  0.00  0.00    +0.013 A 
ATOM      9  C   LIG    1       29.049 -20.479   7.062  0.00  0.00    +0.003 A 
ATOM     10  C   LIG    1       29.475 -19.419   6.237  0.00  0.00    +0.023 A 
ENDROOT
BRANCH   4  11
ATOM     11  C   LIG    1       23.861 -19.864   4.017  0.00  0.00    +0.163 C 
ATOM     12  C   LIG    1       23.468 -18.401   3.755  0.00  0.00    +0.240 C 
ATOM     13  O   LIG    1       24.271 -17.539   3.397  0.00  0.00    -0.273 OA
ATOM     14  N   LIG    1       22.123 -18.120   3.802  0.00  0.00    -0.255 N 
ATOM     15  H   LIG    1       21.864 -17.164   3.596  0.00  0.00    +0.158 HD
ATOM     16  C   LIG    1       21.082 -19.007   3.930  0.00  0.00    +0.219 C 
ATOM     17  O   LIG    1       19.921 -18.646   3.761  0.00  0.00    -0.275 OA
ATOM     18  C   LIG    1       21.450 -20.453   4.166  0.00  0.00    +0.098 C 
ATOM     19  C   LIG    1       22.798 -20.572   4.856  0.00  0.00    +0.041 C 
ENDBRANCH   4  11
BRANCH   1  20
ATOM     20  N   LIG    1       29.090 -17.821   4.450  0.00  0.00    -0.358 N 
ATOM     21  H   LIG    1       29.814 -18.152   3.820  0.00  0.00    +0.142 HD
ATOM     22  H   LIG    1       28.359 -17.328   3.946  0.00  0.00    +0.142 HD
ENDBRANCH   1  20
TORSDOF 2
ENDMDL
MODEL 5
REMARK VINA RESULT:      -2.1      2.471      3.507
REMARK  Name = *****
REMARK                            x       y       z     vdW  Elec       q    Type
REMARK                         _______ _______ _______ _____ _____    ______ ____
ROOT
ATOM      1  C   LIG    1       22.939 -19.612   4.233  0.00  0.00    +0.030 A 
ATOM      2  C   LIG    1       23.838 -18.573   4.051  0.00  0.00    +0.003 A 
ATOM      3  C   LIG    1       23.609 -17.100   4.022  0.00  0.00    +0.146 C 
ATOM      4  N   LIG    1       24.952 -16.560   3.876  0.00  0.00    -0.281 N 
ATOM      5  C   LIG    1       25.891 -17.558   3.675  0.00  0.00    +0.248 C 
ATOM      6  O   LIG    1       27.069 -17.441   3.397  0.00  0.00    -0.270 OA
ATOM      7  C   LIG    1       25.194 -18.837   3.845  0.00  0.00    +0.043 A 
ATOM      8  C   LIG    1       25.723 -20.111   3.843  0.00  0.00    +0.013 A 
ATOM      9  C   LIG    1       24.843 -21.161   4.090  0.00  0.00    +0.003 A 
ATOM     10  C   LIG    1       23.474 -20.908   4.307  0.00  0.00    +0.023 A 
ENDROOT
BRANCH   4  11
ATOM     11  C   LIG    1       25.186 -15.141   3.640  0.00  0.00    +0.163 C 
ATOM     12  C   LIG    1       23.888 -14.335   3.806  0.00  0.00    +0.240 C 
ATOM     13  O   LIG    1       23.018 -14.618   4.630  0.00  0.00    -0.273 OA
ATOM     14  N   LIG    1       23.801 -13.173   3.076  0.00  0.00    -0.255 N 
ATOM     15  H   LIG    1       22.961 -12.628   3.214  0.00  0.00    +0.158 HD
ATOM     16  C   LIG    1       24.779 -12.583   2.315  0.00  0.00    +0.219 C 
ATOM     17  O   LIG    1       24.636 -11.447   1.872  0.00  0.00    -0.275 OA
ATOM     18  C   LIG    1       26.071 -13.351   2.158  0.00  0.00    +0.098 C 
ATOM     19  C   LIG    1       25.841 -14.847   2.291  0.00  0.00    +0.041 C 
ENDBRANCH   4  11
BRANCH   1  20
ATOM     20  N   LIG    1       21.602 -19.384   4.567  0.00  0.00    -0.358 N 
ATOM     21  H   LIG    1       20.933 -19.868   3.977  0.00  0.00    +0.142 HD
ATOM     22  H   LIG    1       21.400 -19.531   5.552  0.00  0.00    +0.142 HD
ENDBRANCH   1  20
TORSDOF 2
ENDMDL
MODEL 6
REMARK VINA RESULT:      -1.5      1.720      2.049
REMARK  Name = *****
REMARK                            x       y       z     vdW  Elec       q    Type
REMARK                         _______ _______ _______ _____ _____    ______ ____
ROOT
ATOM      1  C   LIG    1       24.383 -19.929   3.643  0.00  0.00    +0.030 A 
ATOM      2  C   LIG    1       24.287 -18.558   3.816  0.00  0.00    +0.003 A 
ATOM      3  C   LIG    1       25.269 -17.480   3.503  0.00  0.00    +0.146 C 
ATOM      4  N   LIG    1       24.544 -16.265   3.840  0.00  0.00    -0.281 N 
ATOM      5  C   LIG    1       23.325 -16.539   4.439  0.00  0.00    +0.248 C 
ATOM      6  O   LIG    1       22.542 -15.760   4.946  0.00  0.00    -0.270 OA
ATOM      7  C   LIG    1       23.136 -17.991   4.369  0.00  0.00    +0.043 A 
ATOM      8  C   LIG    1       22.033 -18.733   4.740  0.00  0.00    +0.013 A 
ATOM      9  C   LIG    1       22.089 -20.105   4.511  0.00  0.00    +0.003 A 
ATOM     10  C   LIG    1       23.241 -20.688   3.946  0.00  0.00    +0.023 A 
ENDROOT
BRANCH   4  11
ATOM     11  C   LIG    1       25.194 -14.960   3.841  0.00  0.00    +0.163 C 
ATOM     12  C   LIG    1       24.361 -13.931   3.060  0.00  0.00    +0.240 C 
ATOM     13  O   LIG    1       23.130 -13.930   3.043  0.00  0.00    -0.273 OA
ATOM     14  N   LIG    1       25.064 -12.900   2.481  0.00  0.00    -0.255 N 
ATOM     15  H   LIG    1       24.510 -12.206   1.996  0.00  0.00    +0.158 HD
ATOM     16  C   LIG    1       26.399 -12.611   2.619  0.00  0.00    +0.219 C 
ATOM     17  O   LIG    1       26.862 -11.551   2.207  0.00  0.00    -0.275 OA
ATOM     18  C   LIG    1       27.229 -13.600   3.403  0.00  0.00    +0.098 C 
ATOM     19  C   LIG    1       26.634 -14.996   3.331  0.00  0.00    +0.041 C 
ENDBRANCH   4  11
BRANCH   1  20
ATOM     20  N   LIG    1       25.461 -20.518   2.978  0.00  0.00    -0.358 N 
ATOM     21  H   LIG    1       26.187 -19.867   2.696  0.00  0.00    +0.142 HD
ATOM     22  H   LIG    1       25.852 -21.318   3.469  0.00  0.00    +0.142 HD
ENDBRANCH   1  20
TORSDOF 2
ENDMDL
