MODEL 1
REMARK VINA RESULT:      -8.3      0.000      0.000
REMARK  Name = *****
REMARK                            x       y       z     vdW  Elec       q    Type
REMARK                         _______ _______ _______ _____ _____    ______ ____
ROOT
ATOM      1  C   LIG    1       26.666 -22.663   6.536  0.00  0.00    +0.028 C 
ENDROOT
BRANCH   1   2
ATOM      2  C   LIG    1       25.920 -23.752   7.330  0.00  0.00    +0.017 C 
BRANCH   2   3
ATOM      3  C   LIG    1       25.842 -25.042   6.487  0.00  0.00    +0.084 C 
BRANCH   3   4
ATOM      4  N   LIG    1       24.527 -25.314   5.880  0.00  0.00    -0.305 NA
ATOM      5  C   LIG    1       23.459 -24.543   6.529  0.00  0.00    +0.105 C 
BRANCH   4   6
ATOM      6  C   LIG    1       24.174 -26.750   5.973  0.00  0.00    +0.089 C 
BRANCH   6   7
ATOM      7  C   LIG    1       25.362 -27.726   6.052  0.00  0.00    +0.050 C 
BRANCH   7  11
ATOM      8  C   LIG    1       25.322 -29.865   9.810  0.00  0.00    +0.162 A 
ATOM      9  C   LIG    1       26.325 -28.918   9.553  0.00  0.00    +0.162 A 
ATOM     10  C   LIG    1       26.335 -28.253   8.319  0.00  0.00    +0.053 A 
ATOM     11  C   LIG    1       25.350 -28.496   7.351  0.00  0.00    -0.043 A 
ATOM     12  C   LIG    1       24.364 -29.450   7.613  0.00  0.00    +0.007 A 
ATOM     13  C   LIG    1       24.354 -30.127   8.830  0.00  0.00    +0.050 A 
BRANCH   8  15
ATOM     14  C   LIG    1       23.920 -30.552  11.602  0.00  0.00    +0.277 C 
ATOM     15  O   LIG    1       25.171 -30.636  10.933  0.00  0.00    -0.491 OA
ENDBRANCH   8  15
BRANCH   9  16
ATOM     16  O   LIG    1       27.312 -28.725  10.482  0.00  0.00    -0.491 OA
ATOM     17  C   LIG    1       27.021 -27.786  11.513  0.00  0.00    +0.277 C 
ENDBRANCH   9  16
ENDBRANCH   7  11
ENDBRANCH   6   7
ENDBRANCH   4   6
ENDBRANCH   3   4
ENDBRANCH   2   3
ENDBRANCH   1   2
BRANCH   1  18
ATOM     18  C   LIG    1       26.554 -21.177   7.041  0.00  0.00    +0.085 C 
BRANCH  18  19
ATOM     19  C   LIG    1       27.976 -20.589   7.120  0.00  0.00    -0.024 A 
ATOM     20  C   LIG    1       28.898 -20.974   8.112  0.00  0.00    +0.054 A 
ATOM     21  C   LIG    1       30.193 -20.419   8.185  0.00  0.00    +0.162 A 
ATOM     22  C   LIG    1       30.578 -19.431   7.257  0.00  0.00    +0.162 A 
ATOM     23  C   LIG    1       29.649 -19.010   6.305  0.00  0.00    +0.050 A 
ATOM     24  C   LIG    1       28.381 -19.576   6.236  0.00  0.00    +0.009 A 
BRANCH  21  25
ATOM     25  O   LIG    1       31.103 -20.788   9.151  0.00  0.00    -0.491 OA
ATOM     26  C   LIG    1       31.349 -22.189   9.274  0.00  0.00    +0.277 C 
ENDBRANCH  21  25
BRANCH  22  27
ATOM     27  O   LIG    1       31.843 -18.893   7.334  0.00  0.00    -0.491 OA
ATOM     28  C   LIG    1       32.030 -17.898   8.346  0.00  0.00    +0.277 C 
ENDBRANCH  22  27
ENDBRANCH  18  19
BRANCH  18  29
ATOM     29  C   LIG    1       25.530 -20.333   6.176  0.00  0.00    +0.007 C 
ATOM     30  C   LIG    1       24.039 -20.606   6.468  0.00  0.00    +0.009 C 
ATOM     31  C   LIG    1       25.744 -20.505   4.655  0.00  0.00    +0.009 C 
ENDBRANCH  18  29
BRANCH  18  32
ATOM     32  C   LIG    1       25.965 -21.269   8.421  0.00  0.00    +0.074 C 
ATOM     33  N   LIG    1       25.578 -21.374   9.489  0.00  0.00    -0.196 NA
ENDBRANCH  18  32
ENDBRANCH   1  18
TORSDOF 14
ENDMDL
MODEL 2
REMARK VINA RESULT:      -8.2      1.692      2.234
REMARK  Name = *****
REMARK                            x       y       z     vdW  Elec       q    Type
REMARK                         _______ _______ _______ _____ _____    ______ ____
ROOT
ATOM      1  C   LIG    1       26.485 -22.842   6.642  0.00  0.00    +0.028 C 
ENDROOT
BRANCH   1   2
ATOM      2  C   LIG    1       25.406 -23.820   7.141  0.00  0.00    +0.017 C 
BRANCH   2   3
ATOM      3  C   LIG    1       25.841 -25.268   6.837  0.00  0.00    +0.084 C 
BRANCH   3   4
ATOM      4  N   LIG    1       26.031 -25.578   5.410  0.00  0.00    -0.305 NA
ATOM      5  C   LIG    1       24.855 -25.207   4.611  0.00  0.00    +0.105 C 
BRANCH   4   6
ATOM      6  C   LIG    1       26.288 -27.022   5.197  0.00  0.00    +0.089 C 
BRANCH   6   7
ATOM      7  C   LIG    1       25.040 -27.899   4.988  0.00  0.00    +0.050 C 
BRANCH   7  11
ATOM      8  C   LIG    1       25.066 -31.239   7.734  0.00  0.00    +0.162 A 
ATOM      9  C   LIG    1       25.489 -31.418   6.407  0.00  0.00    +0.162 A 
ATOM     10  C   LIG    1       25.450 -30.329   5.526  0.00  0.00    +0.053 A 
ATOM     11  C   LIG    1       25.023 -29.062   5.951  0.00  0.00    -0.043 A 
ATOM     12  C   LIG    1       24.592 -28.899   7.270  0.00  0.00    +0.007 A 
ATOM     13  C   LIG    1       24.613 -29.979   8.149  0.00  0.00    +0.050 A 
BRANCH   8  15
ATOM     14  C   LIG    1       25.471 -31.803  10.007  0.00  0.00    +0.277 C 
ATOM     15  O   LIG    1       24.998 -32.186   8.722  0.00  0.00    -0.491 OA
ENDBRANCH   8  15
BRANCH   9  16
ATOM     16  O   LIG    1       25.856 -32.670   5.989  0.00  0.00    -0.491 OA
ATOM     17  C   LIG    1       27.245 -32.971   6.072  0.00  0.00    +0.277 C 
ENDBRANCH   9  16
ENDBRANCH   7  11
ENDBRANCH   6   7
ENDBRANCH   4   6
ENDBRANCH   3   4
ENDBRANCH   2   3
ENDBRANCH   1   2
BRANCH   1  18
ATOM     18  C   LIG    1       26.381 -21.337   7.091  0.00  0.00    +0.085 C 
BRANCH  18  19
ATOM     19  C   LIG    1       27.800 -20.738   7.092  0.00  0.00    -0.024 A 
ATOM     20  C   LIG    1       28.763 -21.080   8.062  0.00  0.00    +0.054 A 
ATOM     21  C   LIG    1       30.055 -20.514   8.064  0.00  0.00    +0.162 A 
ATOM     22  C   LIG    1       30.396 -19.559   7.087  0.00  0.00    +0.162 A 
ATOM     23  C   LIG    1       29.428 -19.180   6.156  0.00  0.00    +0.050 A 
ATOM     24  C   LIG    1       28.163 -19.755   6.157  0.00  0.00    +0.009 A 
BRANCH  21  25
ATOM     25  O   LIG    1       31.004 -20.842   9.007  0.00  0.00    -0.491 OA
ATOM     26  C   LIG    1       31.203 -22.237   9.234  0.00  0.00    +0.277 C 
ENDBRANCH  21  25
BRANCH  22  27
ATOM     27  O   LIG    1       31.659 -19.011   7.095  0.00  0.00    -0.491 OA
ATOM     28  C   LIG    1       31.919 -18.076   8.147  0.00  0.00    +0.277 C 
ENDBRANCH  22  27
ENDBRANCH  18  19
BRANCH  18  29
ATOM     29  C   LIG    1       25.319 -20.535   6.231  0.00  0.00    +0.007 C 
ATOM     30  C   LIG    1       23.877 -20.553   6.783  0.00  0.00    +0.009 C 
ATOM     31  C   LIG    1       25.259 -21.006   4.760  0.00  0.00    +0.009 C 
ENDBRANCH  18  29
BRANCH  18  32
ATOM     32  C   LIG    1       25.844 -21.377   8.494  0.00  0.00    +0.074 C 
ATOM     33  N   LIG    1       25.466 -21.341   9.570  0.00  0.00    -0.196 NA
ENDBRANCH  18  32
ENDBRANCH   1  18
TORSDOF 14
ENDMDL
MODEL 3
REMARK VINA RESULT:      -8.1      1.499      2.439
REMARK  Name = *****
REMARK                            x       y       z     vdW  Elec       q    Type
REMARK                         _______ _______ _______ _____ _____    ______ ____
ROOT
ATOM      1  C   LIG    1       24.744 -22.491   5.130  0.00  0.00    +0.028 C 
ENDROOT
BRANCH   1   2
ATOM      2  C   LIG    1       24.882 -23.789   5.947  0.00  0.00    +0.017 C 
BRANCH   2   3
ATOM      3  C   LIG    1       25.145 -24.974   4.994  0.00  0.00    +0.084 C 
BRANCH   3   4
ATOM      4  N   LIG    1       25.729 -26.169   5.627  0.00  0.00    -0.305 NA
ATOM      5  C   LIG    1       26.130 -27.171   4.630  0.00  0.00    +0.105 C 
BRANCH   4   6
ATOM      6  C   LIG    1       24.774 -26.810   6.560  0.00  0.00    +0.089 C 
BRANCH   6   7
ATOM      7  C   LIG    1       24.551 -28.319   6.354  0.00  0.00    +0.050 C 
BRANCH   7  11
ATOM      8  C   LIG    1       25.900 -30.523   9.821  0.00  0.00    +0.162 A 
ATOM      9  C   LIG    1       26.455 -29.267   9.530  0.00  0.00    +0.162 A 
ATOM     10  C   LIG    1       26.022 -28.580   8.387  0.00  0.00    +0.053 A 
ATOM     11  C   LIG    1       25.029 -29.110   7.549  0.00  0.00    -0.043 A 
ATOM     12  C   LIG    1       24.495 -30.366   7.843  0.00  0.00    +0.007 A 
ATOM     13  C   LIG    1       24.929 -31.064   8.967  0.00  0.00    +0.050 A 
BRANCH   8  15
ATOM     14  C   LIG    1       25.319 -31.379  11.961  0.00  0.00    +0.277 C 
ATOM     15  O   LIG    1       26.221 -31.354  10.863  0.00  0.00    -0.491 OA
ENDBRANCH   8  15
BRANCH   9  16
ATOM     16  O   LIG    1       27.459 -28.781  10.324  0.00  0.00    -0.491 OA
ATOM     17  C   LIG    1       27.050 -27.946  11.403  0.00  0.00    +0.277 C 
ENDBRANCH   9  16
ENDBRANCH   7  11
ENDBRANCH   6   7
ENDBRANCH   4   6
ENDBRANCH   3   4
ENDBRANCH   2   3
ENDBRANCH   1   2
BRANCH   1  18
ATOM     18  C   LIG    1       24.650 -21.132   5.916  0.00  0.00    +0.085 C 
BRANCH  18  19
ATOM     19  C   LIG    1       26.031 -20.838   6.533  0.00  0.00    -0.024 A 
ATOM     20  C   LIG    1       27.091 -20.292   5.783  0.00  0.00    +0.054 A 
ATOM     21  C   LIG    1       28.357 -20.040   6.353  0.00  0.00    +0.162 A 
ATOM     22  C   LIG    1       28.586 -20.363   7.705  0.00  0.00    +0.162 A 
ATOM     23  C   LIG    1       27.553 -20.951   8.437  0.00  0.00    +0.050 A 
ATOM     24  C   LIG    1       26.307 -21.181   7.866  0.00  0.00    +0.009 A 
BRANCH  21  25
ATOM     25  O   LIG    1       29.401 -19.507   5.630  0.00  0.00    -0.491 OA
ATOM     26  C   LIG    1       29.289 -18.122   5.301  0.00  0.00    +0.277 C 
ENDBRANCH  21  25
BRANCH  22  27
ATOM     27  O   LIG    1       29.823 -20.115   8.255  0.00  0.00    -0.491 OA
ATOM     28  C   LIG    1       30.560 -21.272   8.664  0.00  0.00    +0.277 C 
ENDBRANCH  22  27
ENDBRANCH  18  19
BRANCH  18  29
ATOM     29  C   LIG    1       24.058 -19.968   5.019  0.00  0.00    +0.007 C 
ATOM     30  C   LIG    1       22.568 -19.643   5.259  0.00  0.00    +0.009 C 
ATOM     31  C   LIG    1       24.238 -20.227   3.506  0.00  0.00    +0.009 C 
ENDBRANCH  18  29
BRANCH  18  32
ATOM     32  C   LIG    1       23.646 -21.374   7.009  0.00  0.00    +0.074 C 
ATOM     33  N   LIG    1       22.929 -21.609   7.865  0.00  0.00    -0.196 NA
ENDBRANCH  18  32
ENDBRANCH   1  18
TORSDOF 14
ENDMDL
MODEL 4
REMARK VINA RESULT:      -8.1      2.105      3.310
REMARK  Name = *****
REMARK                            x       y       z     vdW  Elec       q    Type
REMARK                         _______ _______ _______ _____ _____    ______ ____
ROOT
ATOM      1  C   LIG    1       24.786 -22.477   5.280  0.00  0.00    +0.028 C 
ENDROOT
BRANCH   1   2
ATOM      2  C   LIG    1       24.568 -23.747   6.122  0.00  0.00    +0.017 C 
BRANCH   2   3
ATOM      3  C   LIG    1       25.931 -24.393   6.446  0.00  0.00    +0.084 C 
BRANCH   3   4
ATOM      4  N   LIG    1       26.157 -25.716   5.841  0.00  0.00    -0.305 NA
ATOM      5  C   LIG    1       25.363 -25.898   4.619  0.00  0.00    +0.105 C 
BRANCH   4   6
ATOM      6  C   LIG    1       25.806 -26.808   6.779  0.00  0.00    +0.089 C 
BRANCH   6   7
ATOM      7  C   LIG    1       24.505 -27.568   6.462  0.00  0.00    +0.050 C 
BRANCH   7  11
ATOM      8  C   LIG    1       25.044 -31.856   6.626  0.00  0.00    +0.162 A 
ATOM      9  C   LIG    1       24.529 -31.171   7.737  0.00  0.00    +0.162 A 
ATOM     10  C   LIG    1       24.385 -29.778   7.673  0.00  0.00    +0.053 A 
ATOM     11  C   LIG    1       24.720 -29.063   6.514  0.00  0.00    -0.043 A 
ATOM     12  C   LIG    1       25.244 -29.753   5.420  0.00  0.00    +0.007 A 
ATOM     13  C   LIG    1       25.405 -31.135   5.479  0.00  0.00    +0.050 A 
BRANCH   8  15
ATOM     14  C   LIG    1       26.625 -33.626   6.750  0.00  0.00    +0.277 C 
ATOM     15  O   LIG    1       25.290 -33.199   6.515  0.00  0.00    -0.491 OA
ENDBRANCH   8  15
BRANCH   9  16
ATOM     16  O   LIG    1       24.253 -31.871   8.882  0.00  0.00    -0.491 OA
ATOM     17  C   LIG    1       22.912 -32.330   9.022  0.00  0.00    +0.277 C 
ENDBRANCH   9  16
ENDBRANCH   7  11
ENDBRANCH   6   7
ENDBRANCH   4   6
ENDBRANCH   3   4
ENDBRANCH   2   3
ENDBRANCH   1   2
BRANCH   1  18
ATOM     18  C   LIG    1       24.648 -21.084   5.998  0.00  0.00    +0.085 C 
BRANCH  18  19
ATOM     19  C   LIG    1       26.018 -20.718   6.602  0.00  0.00    -0.024 A 
ATOM     20  C   LIG    1       27.080 -20.224   5.821  0.00  0.00    +0.054 A 
ATOM     21  C   LIG    1       28.335 -19.906   6.381  0.00  0.00    +0.162 A 
ATOM     22  C   LIG    1       28.551 -20.108   7.758  0.00  0.00    +0.162 A 
ATOM     23  C   LIG    1       27.517 -20.645   8.526  0.00  0.00    +0.050 A 
ATOM     24  C   LIG    1       26.281 -20.941   7.963  0.00  0.00    +0.009 A 
BRANCH  21  25
ATOM     25  O   LIG    1       29.381 -19.422   5.626  0.00  0.00    -0.491 OA
ATOM     26  C   LIG    1       29.262 -18.068   5.190  0.00  0.00    +0.277 C 
ENDBRANCH  21  25
BRANCH  22  27
ATOM     27  O   LIG    1       29.778 -19.795   8.298  0.00  0.00    -0.491 OA
ATOM     28  C   LIG    1       30.633 -20.910   8.574  0.00  0.00    +0.277 C 
ENDBRANCH  22  27
ENDBRANCH  18  19
BRANCH  18  29
ATOM     29  C   LIG    1       24.025 -19.984   5.043  0.00  0.00    +0.007 C 
ATOM     30  C   LIG    1       22.511 -19.740   5.218  0.00  0.00    +0.009 C 
ATOM     31  C   LIG    1       24.278 -20.276   3.546  0.00  0.00    +0.009 C 
ENDBRANCH  18  29
BRANCH  18  32
ATOM     32  C   LIG    1       23.648 -21.301   7.098  0.00  0.00    +0.074 C 
ATOM     33  N   LIG    1       22.924 -21.529   7.951  0.00  0.00    -0.196 NA
ENDBRANCH  18  32
ENDBRANCH   1  18
TORSDOF 14
ENDMDL
MODEL 5
REMARK VINA RESULT:      -8.1      1.248      2.101
REMARK  Name = *****
REMARK                            x       y       z     vdW  Elec       q    Type
REMARK                         _______ _______ _______ _____ _____    ______ ____
ROOT
ATOM      1  C   LIG    1       26.540 -22.838   6.573  0.00  0.00    +0.028 C 
ENDROOT
BRANCH   1   2
ATOM      2  C   LIG    1       25.445 -23.839   6.984  0.00  0.00    +0.017 C 
BRANCH   2   3
ATOM      3  C   LIG    1       25.190 -24.829   5.828  0.00  0.00    +0.084 C 
BRANCH   3   4
ATOM      4  N   LIG    1       26.136 -25.955   5.749  0.00  0.00    -0.305 NA
ATOM      5  C   LIG    1       25.911 -26.770   4.548  0.00  0.00    +0.105 C 
BRANCH   4   6
ATOM      6  C   LIG    1       26.022 -26.843   6.930  0.00  0.00    +0.089 C 
BRANCH   6   7
ATOM      7  C   LIG    1       24.919 -27.915   6.855  0.00  0.00    +0.050 C 
BRANCH   7  11
ATOM      8  C   LIG    1       25.817 -31.268   9.433  0.00  0.00    +0.162 A 
ATOM      9  C   LIG    1       25.056 -31.462   8.270  0.00  0.00    +0.162 A 
ATOM     10  C   LIG    1       24.755 -30.358   7.461  0.00  0.00    +0.053 A 
ATOM     11  C   LIG    1       25.221 -29.073   7.776  0.00  0.00    -0.043 A 
ATOM     12  C   LIG    1       25.967 -28.891   8.942  0.00  0.00    +0.007 A 
ATOM     13  C   LIG    1       26.259 -29.979   9.761  0.00  0.00    +0.050 A 
BRANCH   8  15
ATOM     14  C   LIG    1       25.314 -32.373  11.476  0.00  0.00    +0.277 C 
ATOM     15  O   LIG    1       26.178 -32.211  10.360  0.00  0.00    -0.491 OA
ENDBRANCH   8  15
BRANCH   9  16
ATOM     16  O   LIG    1       24.562 -32.710   7.997  0.00  0.00    -0.491 OA
ATOM     17  C   LIG    1       23.160 -32.878   8.180  0.00  0.00    +0.277 C 
ENDBRANCH   9  16
ENDBRANCH   7  11
ENDBRANCH   6   7
ENDBRANCH   4   6
ENDBRANCH   3   4
ENDBRANCH   2   3
ENDBRANCH   1   2
BRANCH   1  18
ATOM     18  C   LIG    1       26.426 -21.361   7.104  0.00  0.00    +0.085 C 
BRANCH  18  19
ATOM     19  C   LIG    1       27.840 -20.750   7.131  0.00  0.00    -0.024 A 
ATOM     20  C   LIG    1       28.786 -21.079   8.122  0.00  0.00    +0.054 A 
ATOM     21  C   LIG    1       30.073 -20.503   8.147  0.00  0.00    +0.162 A 
ATOM     22  C   LIG    1       30.426 -19.550   7.170  0.00  0.00    +0.162 A 
ATOM     23  C   LIG    1       29.475 -19.185   6.218  0.00  0.00    +0.050 A 
ATOM     24  C   LIG    1       28.214 -19.771   6.197  0.00  0.00    +0.009 A 
BRANCH  21  25
ATOM     25  O   LIG    1       31.005 -20.817   9.111  0.00  0.00    -0.491 OA
ATOM     26  C   LIG    1       31.309 -22.204   9.257  0.00  0.00    +0.277 C 
ENDBRANCH  21  25
BRANCH  22  27
ATOM     27  O   LIG    1       31.684 -18.993   7.201  0.00  0.00    -0.491 OA
ATOM     28  C   LIG    1       31.914 -18.046   8.250  0.00  0.00    +0.277 C 
ENDBRANCH  22  27
ENDBRANCH  18  19
BRANCH  18  29
ATOM     29  C   LIG    1       25.352 -20.522   6.296  0.00  0.00    +0.007 C 
ATOM     30  C   LIG    1       23.910 -20.599   6.841  0.00  0.00    +0.009 C 
ATOM     31  C   LIG    1       25.302 -20.897   4.797  0.00  0.00    +0.009 C 
ENDBRANCH  18  29
BRANCH  18  32
ATOM     32  C   LIG    1       25.897 -21.483   8.506  0.00  0.00    +0.074 C 
ATOM     33  N   LIG    1       25.555 -21.537   9.593  0.00  0.00    -0.196 NA
ENDBRANCH  18  32
ENDBRANCH   1  18
TORSDOF 14
ENDMDL
MODEL 6
REMARK VINA RESULT:      -8.0      2.310      3.395
REMARK  Name = *****
REMARK                            x       y       z     vdW  Elec       q    Type
REMARK                         _______ _______ _______ _____ _____    ______ ____
ROOT
ATOM      1  C   LIG    1       24.835 -22.492   5.376  0.00  0.00    +0.028 C 
ENDROOT
BRANCH   1   2
ATOM      2  C   LIG    1       24.598 -23.737   6.251  0.00  0.00    +0.017 C 
BRANCH   2   3
ATOM      3  C   LIG    1       25.945 -24.432   6.534  0.00  0.00    +0.084 C 
BRANCH   3   4
ATOM      4  N   LIG    1       26.123 -25.741   5.883  0.00  0.00    -0.305 NA
ATOM      5  C   LIG    1       25.341 -25.843   4.644  0.00  0.00    +0.105 C 
BRANCH   4   6
ATOM      6  C   LIG    1       25.711 -26.851   6.774  0.00  0.00    +0.089 C 
BRANCH   6   7
ATOM      7  C   LIG    1       24.547 -27.720   6.263  0.00  0.00    +0.050 C 
BRANCH   7  11
ATOM      8  C   LIG    1       25.236 -31.877   7.237  0.00  0.00    +0.162 A 
ATOM      9  C   LIG    1       25.662 -31.366   6.001  0.00  0.00    +0.162 A 
ATOM     10  C   LIG    1       25.407 -30.023   5.694  0.00  0.00    +0.053 A 
ATOM     11  C   LIG    1       24.761 -29.176   6.607  0.00  0.00    -0.043 A 
ATOM     12  C   LIG    1       24.331 -29.698   7.828  0.00  0.00    +0.007 A 
ATOM     13  C   LIG    1       24.566 -31.036   8.136  0.00  0.00    +0.050 A 
BRANCH   8  15
ATOM     14  C   LIG    1       26.455 -33.427   8.564  0.00  0.00    +0.277 C 
ATOM     15  O   LIG    1       25.361 -33.162   7.696  0.00  0.00    -0.491 OA
ENDBRANCH   8  15
BRANCH   9  16
ATOM     16  O   LIG    1       26.245 -32.213   5.096  0.00  0.00    -0.491 OA
ATOM     17  C   LIG    1       25.377 -32.768   4.113  0.00  0.00    +0.277 C 
ENDBRANCH   9  16
ENDBRANCH   7  11
ENDBRANCH   6   7
ENDBRANCH   4   6
ENDBRANCH   3   4
ENDBRANCH   2   3
ENDBRANCH   1   2
BRANCH   1  18
ATOM     18  C   LIG    1       24.669 -21.078   6.045  0.00  0.00    +0.085 C 
BRANCH  18  19
ATOM     19  C   LIG    1       26.023 -20.677   6.662  0.00  0.00    -0.024 A 
ATOM     20  C   LIG    1       27.107 -20.232   5.880  0.00  0.00    +0.054 A 
ATOM     21  C   LIG    1       28.347 -19.882   6.452  0.00  0.00    +0.162 A 
ATOM     22  C   LIG    1       28.528 -20.000   7.844  0.00  0.00    +0.162 A 
ATOM     23  C   LIG    1       27.473 -20.489   8.616  0.00  0.00    +0.050 A 
ATOM     24  C   LIG    1       26.251 -20.817   8.040  0.00  0.00    +0.009 A 
BRANCH  21  25
ATOM     25  O   LIG    1       29.414 -19.446   5.697  0.00  0.00    -0.491 OA
ATOM     26  C   LIG    1       29.317 -18.115   5.191  0.00  0.00    +0.277 C 
ENDBRANCH  21  25
BRANCH  22  27
ATOM     27  O   LIG    1       29.741 -19.657   8.396  0.00  0.00    -0.491 OA
ATOM     28  C   LIG    1       30.701 -20.715   8.483  0.00  0.00    +0.277 C 
ENDBRANCH  22  27
ENDBRANCH  18  19
BRANCH  18  29
ATOM     29  C   LIG    1       24.052 -20.017   5.044  0.00  0.00    +0.007 C 
ATOM     30  C   LIG    1       22.542 -19.748   5.217  0.00  0.00    +0.009 C 
ATOM     31  C   LIG    1       24.291 -20.381   3.561  0.00  0.00    +0.009 C 
ENDBRANCH  18  29
BRANCH  18  32
ATOM     32  C   LIG    1       23.651 -21.271   7.135  0.00  0.00    +0.074 C 
ATOM     33  N   LIG    1       22.909 -21.483   7.975  0.00  0.00    -0.196 NA
ENDBRANCH  18  32
ENDBRANCH   1  18
TORSDOF 14
ENDMDL
MODEL 7
REMARK VINA RESULT:      -7.6      3.346     10.227
REMARK  Name = *****
REMARK                            x       y       z     vdW  Elec       q    Type
REMARK                         _______ _______ _______ _____ _____    ______ ____
ROOT
ATOM      1  C   LIG    1       25.577 -29.299   8.205  0.00  0.00    +0.028 C 
ENDROOT
BRANCH   1   2
ATOM      2  C   LIG    1       24.427 -29.210   7.185  0.00  0.00    +0.017 C 
BRANCH   2   3
ATOM      3  C   LIG    1       25.005 -29.176   5.755  0.00  0.00    +0.084 C 
BRANCH   3   4
ATOM      4  N   LIG    1       25.002 -27.852   5.110  0.00  0.00    -0.305 NA
ATOM      5  C   LIG    1       26.355 -27.432   4.724  0.00  0.00    +0.105 C 
BRANCH   4   6
ATOM      6  C   LIG    1       24.441 -26.814   6.006  0.00  0.00    +0.089 C 
BRANCH   6   7
ATOM      7  C   LIG    1       25.465 -25.856   6.642  0.00  0.00    +0.050 C 
BRANCH   7  11
ATOM      8  C   LIG    1       23.903 -21.834   6.929  0.00  0.00    +0.162 A 
ATOM      9  C   LIG    1       25.285 -22.058   7.030  0.00  0.00    +0.162 A 
ATOM     10  C   LIG    1       25.769 -23.372   6.959  0.00  0.00    +0.053 A 
ATOM     11  C   LIG    1       24.904 -24.459   6.763  0.00  0.00    -0.043 A 
ATOM     12  C   LIG    1       23.531 -24.224   6.676  0.00  0.00    +0.007 A 
ATOM     13  C   LIG    1       23.038 -22.924   6.760  0.00  0.00    +0.050 A 
BRANCH   8  15
ATOM     14  C   LIG    1       22.789 -20.071   5.789  0.00  0.00    +0.277 C 
ATOM     15  O   LIG    1       23.245 -20.635   7.011  0.00  0.00    -0.491 OA
ENDBRANCH   8  15
BRANCH   9  16
ATOM     16  O   LIG    1       26.116 -20.997   7.273  0.00  0.00    -0.491 OA
ATOM     17  C   LIG    1       26.677 -20.370   6.124  0.00  0.00    +0.277 C 
ENDBRANCH   9  16
ENDBRANCH   7  11
ENDBRANCH   6   7
ENDBRANCH   4   6
ENDBRANCH   3   4
ENDBRANCH   2   3
ENDBRANCH   1   2
BRANCH   1  18
ATOM     18  C   LIG    1       25.525 -30.450   9.276  0.00  0.00    +0.085 C 
BRANCH  18  19
ATOM     19  C   LIG    1       24.299 -30.211  10.178  0.00  0.00    -0.024 A 
ATOM     20  C   LIG    1       22.999 -30.606   9.806  0.00  0.00    +0.054 A 
ATOM     21  C   LIG    1       21.881 -30.369  10.632  0.00  0.00    +0.162 A 
ATOM     22  C   LIG    1       22.053 -29.696  11.857  0.00  0.00    +0.162 A 
ATOM     23  C   LIG    1       23.331 -29.258  12.205  0.00  0.00    +0.050 A 
ATOM     24  C   LIG    1       24.427 -29.510  11.388  0.00  0.00    +0.009 A 
BRANCH  21  25
ATOM     25  O   LIG    1       20.606 -30.751  10.277  0.00  0.00    -0.491 OA
ATOM     26  C   LIG    1       20.285 -32.126  10.488  0.00  0.00    +0.277 C 
ENDBRANCH  21  25
BRANCH  22  27
ATOM     27  O   LIG    1       20.957 -29.468  12.658  0.00  0.00    -0.491 OA
ATOM     28  C   LIG    1       21.009 -30.063  13.959  0.00  0.00    +0.277 C 
ENDBRANCH  22  27
ENDBRANCH  18  19
BRANCH  18  29
ATOM     29  C   LIG    1       25.593 -31.885   8.608  0.00  0.00    +0.007 C 
ATOM     30  C   LIG    1       25.694 -33.067   9.596  0.00  0.00    +0.009 C 
ATOM     31  C   LIG    1       26.755 -32.023   7.599  0.00  0.00    +0.009 C 
ENDBRANCH  18  29
BRANCH  18  32
ATOM     32  C   LIG    1       26.786 -30.300  10.081  0.00  0.00    +0.074 C 
ATOM     33  N   LIG    1       27.781 -30.192  10.630  0.00  0.00    -0.196 NA
ENDBRANCH  18  32
ENDBRANCH   1  18
TORSDOF 14
ENDMDL
MODEL 8
REMARK VINA RESULT:      -7.6      3.320      8.840
REMARK  Name = *****
REMARK                            x       y       z     vdW  Elec       q    Type
REMARK                         _______ _______ _______ _____ _____    ______ ____
ROOT
ATOM      1  C   LIG    1       24.799 -29.669  10.286  0.00  0.00    +0.028 C 
ENDROOT
BRANCH   1   2
ATOM      2  C   LIG    1       25.514 -29.319   8.968  0.00  0.00    +0.017 C 
BRANCH   2   3
ATOM      3  C   LIG    1       24.545 -29.522   7.785  0.00  0.00    +0.084 C 
BRANCH   3   4
ATOM      4  N   LIG    1       24.684 -28.550   6.687  0.00  0.00    -0.305 NA
ATOM      5  C   LIG    1       25.196 -29.181   5.464  0.00  0.00    +0.105 C 
BRANCH   4   6
ATOM      6  C   LIG    1       25.605 -27.449   7.052  0.00  0.00    +0.089 C 
BRANCH   6   7
ATOM      7  C   LIG    1       25.784 -26.349   5.990  0.00  0.00    +0.050 C 
BRANCH   7  11
ATOM      8  C   LIG    1       24.149 -22.559   7.280  0.00  0.00    +0.162 A 
ATOM      9  C   LIG    1       25.527 -22.804   7.394  0.00  0.00    +0.162 A 
ATOM     10  C   LIG    1       26.033 -24.048   6.994  0.00  0.00    +0.053 A 
ATOM     11  C   LIG    1       25.197 -25.038   6.457  0.00  0.00    -0.043 A 
ATOM     12  C   LIG    1       23.827 -24.787   6.360  0.00  0.00    +0.007 A 
ATOM     13  C   LIG    1       23.311 -23.560   6.770  0.00  0.00    +0.050 A 
BRANCH   8  15
ATOM     14  C   LIG    1       23.176 -20.493   6.621  0.00  0.00    +0.277 C 
ATOM     15  O   LIG    1       23.470 -21.428   7.650  0.00  0.00    -0.491 OA
ENDBRANCH   8  15
BRANCH   9  16
ATOM     16  O   LIG    1       26.327 -21.851   7.966  0.00  0.00    -0.491 OA
ATOM     17  C   LIG    1       27.635 -21.724   7.416  0.00  0.00    +0.277 C 
ENDBRANCH   9  16
ENDBRANCH   7  11
ENDBRANCH   6   7
ENDBRANCH   4   6
ENDBRANCH   3   4
ENDBRANCH   2   3
ENDBRANCH   1   2
BRANCH   1  18
ATOM     18  C   LIG    1       25.654 -29.688  11.607  0.00  0.00    +0.085 C 
BRANCH  18  19
ATOM     19  C   LIG    1       25.471 -28.332  12.316  0.00  0.00    -0.024 A 
ATOM     20  C   LIG    1       24.263 -27.964  12.941  0.00  0.00    +0.054 A 
ATOM     21  C   LIG    1       24.101 -26.715  13.575  0.00  0.00    +0.162 A 
ATOM     22  C   LIG    1       25.163 -25.789  13.568  0.00  0.00    +0.162 A 
ATOM     23  C   LIG    1       26.342 -26.130  12.905  0.00  0.00    +0.050 A 
ATOM     24  C   LIG    1       26.494 -27.371  12.296  0.00  0.00    +0.009 A 
BRANCH  21  25
ATOM     25  O   LIG    1       22.925 -26.345  14.189  0.00  0.00    -0.491 OA
ATOM     26  C   LIG    1       21.726 -26.636  13.471  0.00  0.00    +0.277 C 
ENDBRANCH  21  25
BRANCH  22  27
ATOM     27  O   LIG    1       24.997 -24.572  14.188  0.00  0.00    -0.491 OA
ATOM     28  C   LIG    1       26.162 -24.041  14.828  0.00  0.00    +0.277 C 
ENDBRANCH  22  27
ENDBRANCH  18  19
BRANCH  18  29
ATOM     29  C   LIG    1       25.337 -30.957  12.500  0.00  0.00    +0.007 C 
ATOM     30  C   LIG    1       26.228 -31.123  13.749  0.00  0.00    +0.009 C 
ATOM     31  C   LIG    1       25.400 -32.281  11.706  0.00  0.00    +0.009 C 
ENDBRANCH  18  29
BRANCH  18  32
ATOM     32  C   LIG    1       27.080 -29.837  11.154  0.00  0.00    +0.074 C 
ATOM     33  N   LIG    1       28.180 -29.964  10.881  0.00  0.00    -0.196 NA
ENDBRANCH  18  32
ENDBRANCH   1  18
TORSDOF 14
ENDMDL
MODEL 9
REMARK VINA RESULT:      -7.6      2.335      3.069
REMARK  Name = *****
REMARK                            x       y       z     vdW  Elec       q    Type
REMARK                         _______ _______ _______ _____ _____    ______ ____
ROOT
ATOM      1  C   LIG    1       24.871 -22.648   5.258  0.00  0.00    +0.028 C 
ENDROOT
BRANCH   1   2
ATOM      2  C   LIG    1       24.577 -23.801   6.235  0.00  0.00    +0.017 C 
BRANCH   2   3
ATOM      3  C   LIG    1       25.892 -24.528   6.588  0.00  0.00    +0.084 C 
BRANCH   3   4
ATOM      4  N   LIG    1       26.052 -25.861   5.982  0.00  0.00    -0.305 NA
ATOM      5  C   LIG    1       25.371 -25.954   4.684  0.00  0.00    +0.105 C 
BRANCH   4   6
ATOM      6  C   LIG    1       25.507 -26.924   6.859  0.00  0.00    +0.089 C 
BRANCH   6   7
ATOM      7  C   LIG    1       24.408 -27.804   6.237  0.00  0.00    +0.050 C 
BRANCH   7  11
ATOM      8  C   LIG    1       25.218 -31.983   6.996  0.00  0.00    +0.162 A 
ATOM      9  C   LIG    1       25.643 -31.394   5.796  0.00  0.00    +0.162 A 
ATOM     10  C   LIG    1       25.349 -30.044   5.558  0.00  0.00    +0.053 A 
ATOM     11  C   LIG    1       24.664 -29.268   6.505  0.00  0.00    -0.043 A 
ATOM     12  C   LIG    1       24.235 -29.870   7.690  0.00  0.00    +0.007 A 
ATOM     13  C   LIG    1       24.509 -31.214   7.929  0.00  0.00    +0.050 A 
BRANCH   8  15
ATOM     14  C   LIG    1       26.472 -33.565   8.251  0.00  0.00    +0.277 C 
ATOM     15  O   LIG    1       25.378 -33.287   7.387  0.00  0.00    -0.491 OA
ENDBRANCH   8  15
BRANCH   9  16
ATOM     16  O   LIG    1       26.266 -32.171   4.856  0.00  0.00    -0.491 OA
ATOM     17  C   LIG    1       25.434 -32.676   3.815  0.00  0.00    +0.277 C 
ENDBRANCH   9  16
ENDBRANCH   7  11
ENDBRANCH   6   7
ENDBRANCH   4   6
ENDBRANCH   3   4
ENDBRANCH   2   3
ENDBRANCH   1   2
BRANCH   1  18
ATOM     18  C   LIG    1       24.868 -21.181   5.826  0.00  0.00    +0.085 C 
BRANCH  18  19
ATOM     19  C   LIG    1       26.322 -20.793   6.159  0.00  0.00    -0.024 A 
ATOM     20  C   LIG    1       26.995 -21.290   7.292  0.00  0.00    +0.054 A 
ATOM     21  C   LIG    1       28.321 -20.917   7.596  0.00  0.00    +0.162 A 
ATOM     22  C   LIG    1       28.993 -20.000   6.764  0.00  0.00    +0.162 A 
ATOM     23  C   LIG    1       28.311 -19.467   5.670  0.00  0.00    +0.050 A 
ATOM     24  C   LIG    1       27.009 -19.854   5.374  0.00  0.00    +0.009 A 
BRANCH  21  25
ATOM     25  O   LIG    1       28.989 -21.397   8.701  0.00  0.00    -0.491 OA
ATOM     26  C   LIG    1       30.331 -21.831   8.479  0.00  0.00    +0.277 C 
ENDBRANCH  21  25
BRANCH  22  27
ATOM     27  O   LIG    1       30.286 -19.641   7.067  0.00  0.00    -0.491 OA
ATOM     28  C   LIG    1       30.448 -18.334   7.628  0.00  0.00    +0.277 C 
ENDBRANCH  22  27
ENDBRANCH  18  19
BRANCH  18  29
ATOM     29  C   LIG    1       24.112 -20.175   4.864  0.00  0.00    +0.007 C 
ATOM     30  C   LIG    1       22.660 -19.842   5.269  0.00  0.00    +0.009 C 
ATOM     31  C   LIG    1       24.086 -20.654   3.395  0.00  0.00    +0.009 C 
ENDBRANCH  18  29
BRANCH  18  32
ATOM     32  C   LIG    1       24.057 -21.246   7.090  0.00  0.00    +0.074 C 
ATOM     33  N   LIG    1       23.465 -21.365   8.059  0.00  0.00    -0.196 NA
ENDBRANCH  18  32
ENDBRANCH   1  18
TORSDOF 14
ENDMDL
