MODEL 1
REMARK VINA RESULT:      -9.0      0.000      0.000
REMARK  Name = *****
REMARK                            x       y       z     vdW  Elec       q    Type
REMARK                         _______ _______ _______ _____ _____    ______ ____
ROOT
ATOM      1  N   LIG    1       26.199 -20.716   7.368  0.00  0.00    -0.298 N 
ATOM      2  C   LIG    1       27.431 -20.090   7.028  0.00  0.00    +0.048 A 
ATOM      3  C   LIG    1       27.701 -19.620   5.729  0.00  0.00    +0.034 A 
ATOM      4  C   LIG    1       28.917 -18.978   5.448  0.00  0.00    +0.017 A 
ATOM      5  C   LIG    1       29.870 -18.779   6.447  0.00  0.00    +0.013 A 
ATOM      6  C   LIG    1       29.619 -19.213   7.751  0.00  0.00    +0.057 A 
ATOM      7  S   LIG    1       26.572 -19.842   4.370  0.00  0.00    -0.086 S 
ATOM      8  C   LIG    1       25.058 -20.239   5.217  0.00  0.00    +0.034 A 
ATOM      9  C   LIG    1       23.878 -20.215   4.457  0.00  0.00    +0.017 A 
ATOM     10  C   LIG    1       22.649 -20.530   5.035  0.00  0.00    +0.001 A 
ATOM     11  C   LIG    1       22.590 -20.859   6.384  0.00  0.00    +0.002 A 
ATOM     12  C   LIG    1       23.762 -20.897   7.143  0.00  0.00    +0.024 A 
ATOM     13  C   LIG    1       28.399 -19.857   8.026  0.00  0.00    +0.037 A 
ATOM     14  C   LIG    1       25.018 -20.619   6.572  0.00  0.00    +0.048 A 
ENDROOT
BRANCH   6  15
ATOM     15  C   LIG    1       30.624 -18.993   8.854  0.00  0.00    +0.417 C 
ATOM     16  F   LIG    1       30.137 -18.189   9.842  0.00  0.00    -0.166 F 
ATOM     17  F   LIG    1       31.763 -18.392   8.412  0.00  0.00    -0.166 F 
ATOM     18  F   LIG    1       31.020 -20.140   9.470  0.00  0.00    -0.166 F 
ENDBRANCH   6  15
BRANCH   1  19
ATOM     19  C   LIG    1       26.358 -22.065   7.991  0.00  0.00    +0.112 C 
BRANCH  19  20
ATOM     20  C   LIG    1       26.847 -23.102   6.970  0.00  0.00    +0.035 C 
BRANCH  20  21
ATOM     21  C   LIG    1       25.908 -24.304   6.823  0.00  0.00    +0.086 C 
BRANCH  21  26
ATOM     22  C   LIG    1       24.512 -28.653   5.183  0.00  0.00    +0.105 C 
ATOM     23  N   LIG    1       24.347 -27.599   6.180  0.00  0.00    -0.303 NA
ATOM     24  C   LIG    1       25.581 -27.403   6.968  0.00  0.00    +0.099 C 
ATOM     25  C   LIG    1       26.683 -26.582   6.257  0.00  0.00    +0.100 C 
ATOM     26  N   LIG    1       26.241 -25.263   5.752  0.00  0.00    -0.300 NA
ATOM     27  C   LIG    1       25.051 -25.497   4.894  0.00  0.00    +0.100 C 
ATOM     28  C   LIG    1       23.920 -26.330   5.559  0.00  0.00    +0.099 C 
ENDBRANCH  21  26
ENDBRANCH  20  21
ENDBRANCH  19  20
ENDBRANCH   1  19
TORSDOF 5
ENDMDL
MODEL 2
REMARK VINA RESULT:      -8.3      3.635      7.127
REMARK  Name = *****
REMARK                            x       y       z     vdW  Elec       q    Type
REMARK                         _______ _______ _______ _____ _____    ______ ____
ROOT
ATOM      1  N   LIG    1       25.410 -21.687   5.206  0.00  0.00    -0.298 N 
ATOM      2  C   LIG    1       24.889 -22.901   5.736  0.00  0.00    +0.048 A 
ATOM      3  C   LIG    1       23.576 -23.001   6.230  0.00  0.00    +0.034 A 
ATOM      4  C   LIG    1       23.094 -24.228   6.713  0.00  0.00    +0.017 A 
ATOM      5  C   LIG    1       23.895 -25.370   6.695  0.00  0.00    +0.013 A 
ATOM      6  C   LIG    1       25.194 -25.305   6.186  0.00  0.00    +0.057 A 
ATOM      7  S   LIG    1       22.473 -21.606   6.327  0.00  0.00    -0.086 S 
ATOM      8  C   LIG    1       23.265 -20.442   5.238  0.00  0.00    +0.034 A 
ATOM      9  C   LIG    1       22.519 -19.314   4.861  0.00  0.00    +0.017 A 
ATOM     10  C   LIG    1       23.067 -18.342   4.026  0.00  0.00    +0.001 A 
ATOM     11  C   LIG    1       24.362 -18.498   3.548  0.00  0.00    +0.002 A 
ATOM     12  C   LIG    1       25.114 -19.613   3.928  0.00  0.00    +0.024 A 
ATOM     13  C   LIG    1       25.672 -24.073   5.707  0.00  0.00    +0.037 A 
ATOM     14  C   LIG    1       24.595 -20.588   4.801  0.00  0.00    +0.048 A 
ENDROOT
BRANCH   6  15
ATOM     15  C   LIG    1       26.075 -26.529   6.137  0.00  0.00    +0.417 C 
ATOM     16  F   LIG    1       25.579 -27.488   5.305  0.00  0.00    -0.166 F 
ATOM     17  F   LIG    1       26.209 -27.126   7.354  0.00  0.00    -0.166 F 
ATOM     18  F   LIG    1       27.339 -26.277   5.702  0.00  0.00    -0.166 F 
ENDBRANCH   6  15
BRANCH   1  19
ATOM     19  C   LIG    1       26.686 -21.245   5.849  0.00  0.00    +0.112 C 
BRANCH  19  20
ATOM     20  C   LIG    1       26.466 -20.837   7.313  0.00  0.00    +0.035 C 
BRANCH  20  21
ATOM     21  C   LIG    1       27.767 -20.676   8.104  0.00  0.00    +0.086 C 
BRANCH  21  26
ATOM     22  C   LIG    1       32.060 -18.473   8.627  0.00  0.00    +0.105 C 
ATOM     23  N   LIG    1       30.785 -18.851   9.231  0.00  0.00    -0.303 NA
ATOM     24  C   LIG    1       29.647 -18.223   8.529  0.00  0.00    +0.099 C 
ATOM     25  C   LIG    1       29.242 -18.910   7.202  0.00  0.00    +0.100 C 
ATOM     26  N   LIG    1       28.974 -20.361   7.315  0.00  0.00    -0.300 NA
ATOM     27  C   LIG    1       30.167 -20.981   7.947  0.00  0.00    +0.100 C 
ATOM     28  C   LIG    1       30.622 -20.317   9.276  0.00  0.00    +0.099 C 
ENDBRANCH  21  26
ENDBRANCH  20  21
ENDBRANCH  19  20
ENDBRANCH   1  19
TORSDOF 5
ENDMDL
MODEL 3
REMARK VINA RESULT:      -6.7      3.507      5.295
REMARK  Name = *****
REMARK                            x       y       z     vdW  Elec       q    Type
REMARK                         _______ _______ _______ _____ _____    ______ ____
ROOT
ATOM      1  N   LIG    1       27.463 -20.599   7.061  0.00  0.00    -0.298 N 
ATOM      2  C   LIG    1       26.979 -19.936   5.899  0.00  0.00    +0.048 A 
ATOM      3  C   LIG    1       27.731 -18.958   5.224  0.00  0.00    +0.034 A 
ATOM      4  C   LIG    1       27.226 -18.354   4.061  0.00  0.00    +0.017 A 
ATOM      5  C   LIG    1       25.984 -18.722   3.544  0.00  0.00    +0.013 A 
ATOM      6  C   LIG    1       25.226 -19.708   4.180  0.00  0.00    +0.057 A 
ATOM      7  S   LIG    1       29.316 -18.390   5.805  0.00  0.00    -0.086 S 
ATOM      8  C   LIG    1       29.763 -19.675   6.953  0.00  0.00    +0.034 A 
ATOM      9  C   LIG    1       31.092 -19.691   7.405  0.00  0.00    +0.017 A 
ATOM     10  C   LIG    1       31.524 -20.651   8.318  0.00  0.00    +0.001 A 
ATOM     11  C   LIG    1       30.633 -21.613   8.776  0.00  0.00    +0.002 A 
ATOM     12  C   LIG    1       29.306 -21.596   8.339  0.00  0.00    +0.024 A 
ATOM     13  C   LIG    1       25.736 -20.307   5.345  0.00  0.00    +0.037 A 
ATOM     14  C   LIG    1       28.837 -20.613   7.446  0.00  0.00    +0.048 A 
ENDROOT
BRANCH   6  15
ATOM     15  C   LIG    1       23.888 -20.139   3.631  0.00  0.00    +0.417 C 
ATOM     16  F   LIG    1       23.213 -19.106   3.051  0.00  0.00    -0.166 F 
ATOM     17  F   LIG    1       23.061 -20.629   4.596  0.00  0.00    -0.166 F 
ATOM     18  F   LIG    1       23.972 -21.109   2.681  0.00  0.00    -0.166 F 
ENDBRANCH   6  15
BRANCH   1  19
ATOM     19  C   LIG    1       26.542 -20.512   8.235  0.00  0.00    +0.112 C 
BRANCH  19  20
ATOM     20  C   LIG    1       25.398 -21.531   8.128  0.00  0.00    +0.035 C 
BRANCH  20  21
ATOM     21  C   LIG    1       25.878 -22.968   7.904  0.00  0.00    +0.086 C 
BRANCH  21  26
ATOM     22  C   LIG    1       24.044 -26.546   5.186  0.00  0.00    +0.105 C 
ATOM     23  N   LIG    1       24.172 -25.944   6.510  0.00  0.00    -0.303 NA
ATOM     24  C   LIG    1       25.578 -25.927   6.963  0.00  0.00    +0.099 C 
ATOM     25  C   LIG    1       26.446 -24.803   6.348  0.00  0.00    +0.100 C 
ATOM     26  N   LIG    1       25.892 -23.439   6.506  0.00  0.00    -0.300 NA
ATOM     27  C   LIG    1       24.508 -23.462   5.965  0.00  0.00    +0.100 C 
ATOM     28  C   LIG    1       23.600 -24.583   6.541  0.00  0.00    +0.099 C 
ENDBRANCH  21  26
ENDBRANCH  20  21
ENDBRANCH  19  20
ENDBRANCH   1  19
TORSDOF 5
ENDMDL
MODEL 4
REMARK VINA RESULT:      -6.7      5.858      9.474
REMARK  Name = *****
REMARK                            x       y       z     vdW  Elec       q    Type
REMARK                         _______ _______ _______ _____ _____    ______ ____
ROOT
ATOM      1  N   LIG    1       24.430 -29.723   7.850  0.00  0.00    -0.298 N 
ATOM      2  C   LIG    1       24.867 -28.811   6.849  0.00  0.00    +0.048 A 
ATOM      3  C   LIG    1       25.364 -29.243   5.605  0.00  0.00    +0.034 A 
ATOM      4  C   LIG    1       25.752 -28.306   4.635  0.00  0.00    +0.017 A 
ATOM      5  C   LIG    1       25.638 -26.936   4.874  0.00  0.00    +0.013 A 
ATOM      6  C   LIG    1       25.126 -26.479   6.091  0.00  0.00    +0.057 A 
ATOM      7  S   LIG    1       25.578 -30.963   5.198  0.00  0.00    -0.086 S 
ATOM      8  C   LIG    1       24.577 -31.757   6.438  0.00  0.00    +0.034 A 
ATOM      9  C   LIG    1       24.296 -33.120   6.252  0.00  0.00    +0.017 A 
ATOM     10  C   LIG    1       23.535 -33.824   7.183  0.00  0.00    +0.001 A 
ATOM     11  C   LIG    1       23.036 -33.167   8.301  0.00  0.00    +0.002 A 
ATOM     12  C   LIG    1       23.321 -31.814   8.497  0.00  0.00    +0.024 A 
ATOM     13  C   LIG    1       24.741 -27.422   7.060  0.00  0.00    +0.037 A 
ATOM     14  C   LIG    1       24.119 -31.091   7.590  0.00  0.00    +0.048 A 
ENDROOT
BRANCH   6  15
ATOM     15  C   LIG    1       24.974 -25.004   6.369  0.00  0.00    +0.417 C 
ATOM     16  F   LIG    1       23.726 -24.690   6.818  0.00  0.00    -0.166 F 
ATOM     17  F   LIG    1       25.175 -24.240   5.260  0.00  0.00    -0.166 F 
ATOM     18  F   LIG    1       25.837 -24.533   7.309  0.00  0.00    -0.166 F 
ENDBRANCH   6  15
BRANCH   1  19
ATOM     19  C   LIG    1       25.095 -29.530   9.175  0.00  0.00    +0.112 C 
BRANCH  19  20
ATOM     20  C   LIG    1       26.554 -30.010   9.147  0.00  0.00    +0.035 C 
BRANCH  20  21
ATOM     21  C   LIG    1       27.173 -30.164  10.540  0.00  0.00    +0.086 C 
BRANCH  21  26
ATOM     22  C   LIG    1       27.769 -27.532  14.574  0.00  0.00    +0.105 C 
ATOM     23  N   LIG    1       27.064 -28.622  13.904  0.00  0.00    -0.303 NA
ATOM     24  C   LIG    1       26.295 -28.135  12.741  0.00  0.00    +0.099 C 
ATOM     25  C   LIG    1       27.136 -27.873  11.468  0.00  0.00    +0.100 C 
ATOM     26  N   LIG    1       27.965 -29.019  11.030  0.00  0.00    -0.300 NA
ATOM     27  C   LIG    1       28.790 -29.435  12.193  0.00  0.00    +0.100 C 
ATOM     28  C   LIG    1       27.993 -29.696  13.500  0.00  0.00    +0.099 C 
ENDBRANCH  21  26
ENDBRANCH  20  21
ENDBRANCH  19  20
ENDBRANCH   1  19
TORSDOF 5
ENDMDL
MODEL 5
REMARK VINA RESULT:      -6.2      5.164     10.049
REMARK  Name = *****
REMARK                            x       y       z     vdW  Elec       q    Type
REMARK                         _______ _______ _______ _____ _____    ______ ____
ROOT
ATOM      1  N   LIG    1       25.597 -30.777   6.362  0.00  0.00    -0.298 N 
ATOM      2  C   LIG    1       25.300 -30.743   7.754  0.00  0.00    +0.048 A 
ATOM      3  C   LIG    1       24.288 -31.534   8.325  0.00  0.00    +0.034 A 
ATOM      4  C   LIG    1       24.053 -31.492   9.709  0.00  0.00    +0.017 A 
ATOM      5  C   LIG    1       24.826 -30.684  10.543  0.00  0.00    +0.013 A 
ATOM      6  C   LIG    1       25.855 -29.907  10.006  0.00  0.00    +0.057 A 
ATOM      7  S   LIG    1       23.221 -32.582   7.357  0.00  0.00    -0.086 S 
ATOM      8  C   LIG    1       24.120 -32.697   5.825  0.00  0.00    +0.034 A 
ATOM      9  C   LIG    1       23.699 -33.676   4.911  0.00  0.00    +0.017 A 
ATOM     10  C   LIG    1       24.333 -33.823   3.679  0.00  0.00    +0.001 A 
ATOM     11  C   LIG    1       25.406 -33.001   3.357  0.00  0.00    +0.002 A 
ATOM     12  C   LIG    1       25.823 -32.017   4.256  0.00  0.00    +0.024 A 
ATOM     13  C   LIG    1       26.083 -29.951   8.619  0.00  0.00    +0.037 A 
ATOM     14  C   LIG    1       25.173 -31.825   5.491  0.00  0.00    +0.048 A 
ENDROOT
BRANCH   6  15
ATOM     15  C   LIG    1       26.718 -29.038  10.887  0.00  0.00    +0.417 C 
ATOM     16  F   LIG    1       27.966 -29.558  11.059  0.00  0.00    -0.166 F 
ATOM     17  F   LIG    1       26.202 -28.886  12.138  0.00  0.00    -0.166 F 
ATOM     18  F   LIG    1       26.903 -27.780  10.403  0.00  0.00    -0.166 F 
ENDBRANCH   6  15
BRANCH   1  19
ATOM     19  C   LIG    1       25.560 -29.436   5.703  0.00  0.00    +0.112 C 
BRANCH  19  20
ATOM     20  C   LIG    1       24.247 -28.698   6.002  0.00  0.00    +0.035 C 
BRANCH  20  21
ATOM     21  C   LIG    1       24.452 -27.275   6.528  0.00  0.00    +0.086 C 
BRANCH  21  26
ATOM     22  C   LIG    1       25.247 -22.497   6.215  0.00  0.00    +0.105 C 
ATOM     23  N   LIG    1       24.850 -23.630   7.046  0.00  0.00    -0.303 NA
ATOM     24  C   LIG    1       23.619 -24.268   6.539  0.00  0.00    +0.099 C 
ATOM     25  C   LIG    1       23.825 -25.208   5.326  0.00  0.00    +0.100 C 
ATOM     26  N   LIG    1       24.844 -26.262   5.528  0.00  0.00    -0.300 NA
ATOM     27  C   LIG    1       26.096 -25.587   5.956  0.00  0.00    +0.100 C 
ATOM     28  C   LIG    1       25.938 -24.621   7.163  0.00  0.00    +0.099 C 
ENDBRANCH  21  26
ENDBRANCH  20  21
ENDBRANCH  19  20
ENDBRANCH   1  19
TORSDOF 5
ENDMDL
MODEL 6
REMARK VINA RESULT:      -6.2      5.349      8.946
REMARK  Name = *****
REMARK                            x       y       z     vdW  Elec       q    Type
REMARK                         _______ _______ _______ _____ _____    ______ ____
ROOT
ATOM      1  N   LIG    1       25.468 -28.847   8.237  0.00  0.00    -0.298 N 
ATOM      2  C   LIG    1       25.468 -27.991   7.100  0.00  0.00    +0.048 A 
ATOM      3  C   LIG    1       25.395 -28.489   5.786  0.00  0.00    +0.034 A 
ATOM      4  C   LIG    1       25.364 -27.605   4.696  0.00  0.00    +0.017 A 
ATOM      5  C   LIG    1       25.386 -26.224   4.891  0.00  0.00    +0.013 A 
ATOM      6  C   LIG    1       25.433 -25.701   6.186  0.00  0.00    +0.057 A 
ATOM      7  S   LIG    1       25.388 -30.230   5.414  0.00  0.00    -0.086 S 
ATOM      8  C   LIG    1       24.976 -30.937   6.995  0.00  0.00    +0.034 A 
ATOM      9  C   LIG    1       24.617 -32.294   7.011  0.00  0.00    +0.017 A 
ATOM     10  C   LIG    1       24.297 -32.933   8.208  0.00  0.00    +0.001 A 
ATOM     11  C   LIG    1       24.319 -32.216   9.397  0.00  0.00    +0.002 A 
ATOM     12  C   LIG    1       24.687 -30.868   9.389  0.00  0.00    +0.024 A 
ATOM     13  C   LIG    1       25.467 -26.592   7.274  0.00  0.00    +0.037 A 
ATOM     14  C   LIG    1       25.050 -30.211   8.198  0.00  0.00    +0.048 A 
ENDROOT
BRANCH   6  15
ATOM     15  C   LIG    1       25.440 -24.212   6.427  0.00  0.00    +0.417 C 
ATOM     16  F   LIG    1       26.599 -23.788   7.005  0.00  0.00    -0.166 F 
ATOM     17  F   LIG    1       24.440 -23.813   7.262  0.00  0.00    -0.166 F 
ATOM     18  F   LIG    1       25.298 -23.473   5.294  0.00  0.00    -0.166 F 
ENDBRANCH   6  15
BRANCH   1  19
ATOM     19  C   LIG    1       26.626 -28.630   9.157  0.00  0.00    +0.112 C 
BRANCH  19  20
ATOM     20  C   LIG    1       26.190 -28.670  10.629  0.00  0.00    +0.035 C 
BRANCH  20  21
ATOM     21  C   LIG    1       26.723 -27.496  11.456  0.00  0.00    +0.086 C 
BRANCH  21  26
ATOM     22  C   LIG    1       24.370 -25.802  15.348  0.00  0.00    +0.105 C 
ATOM     23  N   LIG    1       24.558 -25.752  13.900  0.00  0.00    -0.303 NA
ATOM     24  C   LIG    1       25.927 -25.323  13.548  0.00  0.00    +0.099 C 
ATOM     25  C   LIG    1       27.005 -26.427  13.667  0.00  0.00    +0.100 C 
ATOM     26  N   LIG    1       26.701 -27.669  12.921  0.00  0.00    -0.300 NA
ATOM     27  C   LIG    1       25.356 -28.126  13.357  0.00  0.00    +0.100 C 
ATOM     28  C   LIG    1       24.241 -27.048  13.270  0.00  0.00    +0.099 C 
ENDBRANCH  21  26
ENDBRANCH  20  21
ENDBRANCH  19  20
ENDBRANCH   1  19
TORSDOF 5
ENDMDL
MODEL 7
REMARK VINA RESULT:      -6.1      6.019      9.719
REMARK  Name = *****
REMARK                            x       y       z     vdW  Elec       q    Type
REMARK                         _______ _______ _______ _____ _____    ______ ____
ROOT
ATOM      1  N   LIG    1       25.269 -29.734   8.637  0.00  0.00    -0.298 N 
ATOM      2  C   LIG    1       25.216 -29.006   7.415  0.00  0.00    +0.048 A 
ATOM      3  C   LIG    1       25.120 -29.644   6.165  0.00  0.00    +0.034 A 
ATOM      4  C   LIG    1       25.036 -28.884   4.987  0.00  0.00    +0.017 A 
ATOM      5  C   LIG    1       25.030 -27.490   5.033  0.00  0.00    +0.013 A 
ATOM      6  C   LIG    1       25.099 -26.830   6.262  0.00  0.00    +0.057 A 
ATOM      7  S   LIG    1       25.146 -31.416   5.981  0.00  0.00    -0.086 S 
ATOM      8  C   LIG    1       24.796 -31.957   7.641  0.00  0.00    +0.034 A 
ATOM      9  C   LIG    1       24.472 -33.311   7.813  0.00  0.00    +0.017 A 
ATOM     10  C   LIG    1       24.201 -33.825   9.081  0.00  0.00    +0.001 A 
ATOM     11  C   LIG    1       24.238 -32.983  10.185  0.00  0.00    +0.002 A 
ATOM     12  C   LIG    1       24.571 -31.636  10.022  0.00  0.00    +0.024 A 
ATOM     13  C   LIG    1       25.185 -27.597   7.438  0.00  0.00    +0.037 A 
ATOM     14  C   LIG    1       24.885 -31.103   8.756  0.00  0.00    +0.048 A 
ENDROOT
BRANCH   6  15
ATOM     15  C   LIG    1       25.074 -25.323   6.342  0.00  0.00    +0.417 C 
ATOM     16  F   LIG    1       25.460 -24.739   5.172  0.00  0.00    -0.166 F 
ATOM     17  F   LIG    1       25.915 -24.837   7.296  0.00  0.00    -0.166 F 
ATOM     18  F   LIG    1       23.847 -24.810   6.627  0.00  0.00    -0.166 F 
ENDBRANCH   6  15
BRANCH   1  19
ATOM     19  C   LIG    1       26.446 -29.394   9.493  0.00  0.00    +0.112 C 
BRANCH  19  20
ATOM     20  C   LIG    1       26.022 -29.088  10.936  0.00  0.00    +0.035 C 
BRANCH  20  21
ATOM     21  C   LIG    1       26.700 -27.845  11.522  0.00  0.00    +0.086 C 
BRANCH  21  26
ATOM     22  C   LIG    1       24.577 -25.569  15.246  0.00  0.00    +0.105 C 
ATOM     23  N   LIG    1       24.666 -25.751  13.800  0.00  0.00    -0.303 NA
ATOM     24  C   LIG    1       25.999 -25.371  13.289  0.00  0.00    +0.099 C 
ATOM     25  C   LIG    1       27.106 -26.431  13.508  0.00  0.00    +0.100 C 
ATOM     26  N   LIG    1       26.779 -27.780  12.994  0.00  0.00    -0.300 NA
ATOM     27  C   LIG    1       25.476 -28.173  13.589  0.00  0.00    +0.100 C 
ATOM     28  C   LIG    1       24.335 -27.135  13.408  0.00  0.00    +0.099 C 
ENDBRANCH  21  26
ENDBRANCH  20  21
ENDBRANCH  19  20
ENDBRANCH   1  19
TORSDOF 5
ENDMDL
