MODEL 1
REMARK VINA RESULT:      -4.6      0.000      0.000
REMARK  Name = *****
REMARK                            x       y       z     vdW  Elec       q    Type
REMARK                         _______ _______ _______ _____ _____    ______ ____
ROOT
ATOM      1  C   LIG    1       23.107 -21.184   4.792  0.00  0.00    +0.210 C 
ATOM      2  C   LIG    1       23.716 -21.020   3.425  0.00  0.00    +0.237 C 
ATOM      3  N   LIG    1       24.031 -19.605   3.221  0.00  0.00    -0.273 NA
ATOM      4  C   LIG    1       24.888 -19.031   4.002  0.00  0.00    +0.075 C 
ATOM      5  C   LIG    1       25.657 -19.733   5.076  0.00  0.00    +0.027 A 
ATOM      6  C   LIG    1       25.039 -20.643   5.953  0.00  0.00    +0.077 A 
ATOM      7  C   LIG    1       25.820 -21.242   6.952  0.00  0.00    +0.030 A 
ATOM      8  C   LIG    1       27.187 -20.976   7.062  0.00  0.00    +0.022 A 
ATOM      9  C   LIG    1       27.790 -20.102   6.164  0.00  0.00    +0.042 A 
ATOM     10 CL   LIG    1       29.475 -19.784   6.284  0.00  0.00    -0.084 Cl
ATOM     11  C   LIG    1       27.037 -19.483   5.171  0.00  0.00    +0.032 A 
ATOM     12  N   LIG    1       23.678 -20.999   5.935  0.00  0.00    -0.215 NA
ENDROOT
BRANCH   4  13
ATOM     13  C   LIG    1       25.127 -17.567   3.795  0.00  0.00    +0.001 A 
ATOM     14  C   LIG    1       26.365 -17.090   3.347  0.00  0.00    +0.010 A 
ATOM     15  C   LIG    1       26.561 -15.719   3.165  0.00  0.00    +0.001 A 
ATOM     16  C   LIG    1       25.527 -14.823   3.440  0.00  0.00    +0.000 A 
ATOM     17  C   LIG    1       24.299 -15.293   3.906  0.00  0.00    +0.001 A 
ATOM     18  C   LIG    1       24.100 -16.662   4.089  0.00  0.00    +0.010 A 
ENDBRANCH   4  13
BRANCH   1  19
ATOM     19  O   LIG    1       21.820 -21.558   4.806  0.00  0.00    -0.494 OA
ATOM     20  H   LIG    1       21.286 -20.748   4.788  0.00  0.00    +0.293 HD
ENDBRANCH   1  19
TORSDOF 2
ENDMDL
