MODEL 1
REMARK VINA RESULT:      -6.1      0.000      0.000
REMARK  Name = *****
REMARK                            x       y       z     vdW  Elec       q    Type
REMARK                         _______ _______ _______ _____ _____    ______ ____
ROOT
ATOM      1  C   LIG    1       27.596 -19.029   5.489  0.00  0.00    +0.111 C 
ENDROOT
BRANCH   1   3
ATOM      2  O   LIG    1       29.468 -18.925   7.062  0.00  0.00    -0.251 OA
ATOM      3  C   LIG    1       28.743 -19.600   6.325  0.00  0.00    +0.309 C 
BRANCH   3   4
ATOM      4  O   LIG    1       29.020 -20.902   6.138  0.00  0.00    -0.480 OA
ATOM      5  H   LIG    1       29.714 -21.081   5.442  0.00  0.00    +0.295 HD
ENDBRANCH   3   4
ENDBRANCH   1   3
BRANCH   1   6
ATOM      6  C   LIG    1       26.801 -20.231   4.859  0.00  0.00    +0.050 C 
BRANCH   6   7
ATOM      7  C   LIG    1       25.378 -20.441   5.354  0.00  0.00    -0.047 A 
ATOM      8  C   LIG    1       24.288 -20.097   4.545  0.00  0.00    +0.003 A 
ATOM      9  C   LIG    1       22.976 -20.376   4.944  0.00  0.00    +0.000 A 
ATOM     10  C   LIG    1       22.726 -20.911   6.203  0.00  0.00    +0.000 A 
ATOM     11  C   LIG    1       23.793 -21.174   7.060  0.00  0.00    +0.000 A 
ATOM     12  C   LIG    1       25.112 -20.961   6.632  0.00  0.00    +0.003 A 
ENDBRANCH   6   7
ENDBRANCH   1   6
BRANCH   1  13
ATOM     13  C   LIG    1       28.019 -17.984   4.425  0.00  0.00    +0.110 C 
BRANCH  13  14
ATOM     14  C   LIG    1       26.873 -17.369   3.611  0.00  0.00    +0.216 C 
ATOM     15  N   LIG    1       26.744 -16.001   3.599  0.00  0.00    -0.301 N 
ATOM     16  C   LIG    1       25.660 -15.341   2.873  0.00  0.00    +0.111 C 
ATOM     17  C   LIG    1       26.109 -13.883   2.794  0.00  0.00    +0.011 C 
ATOM     18  C   LIG    1       26.859 -13.689   4.123  0.00  0.00    +0.011 C 
ATOM     19  C   LIG    1       25.932 -13.361   5.304  0.00  0.00    +0.005 C 
ATOM     20  C   LIG    1       24.984 -12.215   4.973  0.00  0.00    +0.000 C 
ATOM     21  C   LIG    1       24.134 -12.551   3.753  0.00  0.00    +0.000 C 
ATOM     22  C   LIG    1       24.999 -12.865   2.537  0.00  0.00    +0.005 C 
ATOM     23  C   LIG    1       27.568 -15.036   4.310  0.00  0.00    +0.111 C 
ATOM     24  O   LIG    1       26.076 -18.075   2.995  0.00  0.00    -0.276 OA
ENDBRANCH  13  14
ENDBRANCH   1  13
TORSDOF 6
ENDMDL
MODEL 2
REMARK VINA RESULT:      -5.6      2.417      4.004
REMARK  Name = *****
REMARK                            x       y       z     vdW  Elec       q    Type
REMARK                         _______ _______ _______ _____ _____    ______ ____
ROOT
ATOM      1  C   LIG    1       24.402 -20.831   4.870  0.00  0.00    +0.111 C 
ENDROOT
BRANCH   1   3
ATOM      2  O   LIG    1       22.489 -21.496   6.243  0.00  0.00    -0.251 OA
ATOM      3  C   LIG    1       22.934 -21.163   5.140  0.00  0.00    +0.309 C 
BRANCH   3   4
ATOM      4  O   LIG    1       22.127 -21.192   4.066  0.00  0.00    -0.480 OA
ATOM      5  H   LIG    1       21.393 -21.869   4.117  0.00  0.00    +0.295 HD
ENDBRANCH   3   4
ENDBRANCH   1   3
BRANCH   1   6
ATOM      6  C   LIG    1       25.081 -20.460   6.240  0.00  0.00    +0.050 C 
BRANCH   6   7
ATOM      7  C   LIG    1       26.602 -20.434   6.263  0.00  0.00    -0.047 A 
ATOM      8  C   LIG    1       27.306 -19.501   5.491  0.00  0.00    +0.003 A 
ATOM      9  C   LIG    1       28.699 -19.398   5.578  0.00  0.00    +0.000 A 
ATOM     10  C   LIG    1       29.420 -20.294   6.359  0.00  0.00    +0.000 A 
ATOM     11  C   LIG    1       28.744 -21.289   7.062  0.00  0.00    +0.000 A 
ATOM     12  C   LIG    1       27.342 -21.347   7.032  0.00  0.00    +0.003 A 
ENDBRANCH   6   7
ENDBRANCH   1   6
BRANCH   1  13
ATOM     13  C   LIG    1       24.640 -19.749   3.786  0.00  0.00    +0.110 C 
BRANCH  13  14
ATOM     14  C   LIG    1       23.977 -18.391   4.052  0.00  0.00    +0.216 C 
ATOM     15  N   LIG    1       24.679 -17.252   3.737  0.00  0.00    -0.301 N 
ATOM     16  C   LIG    1       24.131 -15.921   3.989  0.00  0.00    +0.111 C 
ATOM     17  C   LIG    1       25.019 -14.996   3.159  0.00  0.00    +0.011 C 
ATOM     18  C   LIG    1       26.392 -15.684   3.242  0.00  0.00    +0.011 C 
ATOM     19  C   LIG    1       27.176 -15.329   4.516  0.00  0.00    +0.005 C 
ATOM     20  C   LIG    1       27.243 -13.822   4.733  0.00  0.00    +0.000 C 
ATOM     21  C   LIG    1       25.842 -13.228   4.829  0.00  0.00    +0.000 C 
ATOM     22  C   LIG    1       25.019 -13.528   3.581  0.00  0.00    +0.005 C 
ATOM     23  C   LIG    1       26.027 -17.173   3.194  0.00  0.00    +0.111 C 
ATOM     24  O   LIG    1       22.855 -18.313   4.548  0.00  0.00    -0.276 OA
ENDBRANCH  13  14
ENDBRANCH   1  13
TORSDOF 6
ENDMDL
MODEL 3
REMARK VINA RESULT:      -4.5      2.336      7.466
REMARK  Name = *****
REMARK                            x       y       z     vdW  Elec       q    Type
REMARK                         _______ _______ _______ _____ _____    ______ ____
ROOT
ATOM      1  C   LIG    1       24.551 -14.661   4.061  0.00  0.00    +0.111 C 
ENDROOT
BRANCH   1   3
ATOM      2  O   LIG    1       23.845 -12.342   4.394  0.00  0.00    -0.251 OA
ATOM      3  C   LIG    1       24.052 -13.283   3.622  0.00  0.00    +0.309 C 
BRANCH   3   4
ATOM      4  O   LIG    1       23.724 -13.158   2.325  0.00  0.00    -0.480 OA
ATOM      5  H   LIG    1       23.395 -14.001   1.898  0.00  0.00    +0.295 HD
ENDBRANCH   3   4
ENDBRANCH   1   3
BRANCH   1   6
ATOM      6  C   LIG    1       25.660 -14.455   5.157  0.00  0.00    +0.050 C 
BRANCH   6   7
ATOM      7  C   LIG    1       26.886 -13.654   4.745  0.00  0.00    -0.047 A 
ATOM      8  C   LIG    1       27.561 -12.860   5.680  0.00  0.00    +0.003 A 
ATOM      9  C   LIG    1       28.747 -12.198   5.343  0.00  0.00    +0.000 A 
ATOM     10  C   LIG    1       29.222 -12.235   4.036  0.00  0.00    +0.000 A 
ATOM     11  C   LIG    1       28.513 -12.945   3.069  0.00  0.00    +0.000 A 
ATOM     12  C   LIG    1       27.364 -13.668   3.424  0.00  0.00    +0.003 A 
ENDBRANCH   6   7
ENDBRANCH   1   6
BRANCH   1  13
ATOM     13  C   LIG    1       25.029 -15.581   2.909  0.00  0.00    +0.110 C 
BRANCH  13  14
ATOM     14  C   LIG    1       25.738 -16.871   3.345  0.00  0.00    +0.216 C 
ATOM     15  N   LIG    1       24.972 -17.987   3.581  0.00  0.00    -0.301 N 
ATOM     16  C   LIG    1       25.569 -19.244   4.030  0.00  0.00    +0.111 C 
ATOM     17  C   LIG    1       24.469 -20.277   3.788  0.00  0.00    +0.011 C 
ATOM     18  C   LIG    1       23.187 -19.475   4.066  0.00  0.00    +0.011 C 
ATOM     19  C   LIG    1       22.822 -19.405   5.557  0.00  0.00    +0.005 C 
ATOM     20  C   LIG    1       22.821 -20.787   6.201  0.00  0.00    +0.000 C 
ATOM     21  C   LIG    1       24.184 -21.453   6.052  0.00  0.00    +0.000 C 
ATOM     22  C   LIG    1       24.594 -21.571   4.588  0.00  0.00    +0.005 C 
ATOM     23  C   LIG    1       23.523 -18.091   3.495  0.00  0.00    +0.111 C 
ATOM     24  O   LIG    1       26.957 -16.910   3.497  0.00  0.00    -0.276 OA
ENDBRANCH  13  14
ENDBRANCH   1  13
TORSDOF 6
ENDMDL
MODEL 4
REMARK VINA RESULT:      -4.5      2.081      6.937
REMARK  Name = *****
REMARK                            x       y       z     vdW  Elec       q    Type
REMARK                         _______ _______ _______ _____ _____    ______ ____
ROOT
ATOM      1  C   LIG    1       26.838 -14.586   2.824  0.00  0.00    +0.111 C 
ENDROOT
BRANCH   1   3
ATOM      2  O   LIG    1       27.868 -14.595   5.044  0.00  0.00    -0.251 OA
ATOM      3  C   LIG    1       27.955 -14.337   3.839  0.00  0.00    +0.309 C 
BRANCH   3   4
ATOM      4  O   LIG    1       29.043 -13.698   3.377  0.00  0.00    -0.480 OA
ATOM      5  H   LIG    1       28.856 -13.032   2.655  0.00  0.00    +0.295 HD
ENDBRANCH   3   4
ENDBRANCH   1   3
BRANCH   1   6
ATOM      6  C   LIG    1       26.246 -13.193   2.395  0.00  0.00    +0.050 C 
BRANCH   6   7
ATOM      7  C   LIG    1       25.248 -12.553   3.349  0.00  0.00    -0.047 A 
ATOM      8  C   LIG    1       24.076 -11.965   2.858  0.00  0.00    +0.003 A 
ATOM      9  C   LIG    1       23.102 -11.463   3.728  0.00  0.00    +0.000 A 
ATOM     10  C   LIG    1       23.330 -11.447   5.100  0.00  0.00    +0.000 A 
ATOM     11  C   LIG    1       24.532 -11.944   5.601  0.00  0.00    +0.000 A 
ATOM     12  C   LIG    1       25.477 -12.513   4.734  0.00  0.00    +0.003 A 
ENDBRANCH   6   7
ENDBRANCH   1   6
BRANCH   1  13
ATOM     13  C   LIG    1       25.738 -15.573   3.290  0.00  0.00    +0.110 C 
BRANCH  13  14
ATOM     14  C   LIG    1       26.197 -17.023   3.498  0.00  0.00    +0.216 C 
ATOM     15  N   LIG    1       25.236 -17.996   3.635  0.00  0.00    -0.301 N 
ATOM     16  C   LIG    1       25.591 -19.394   3.868  0.00  0.00    +0.111 C 
ATOM     17  C   LIG    1       24.301 -20.154   3.567  0.00  0.00    +0.011 C 
ATOM     18  C   LIG    1       23.214 -19.173   4.039  0.00  0.00    +0.011 C 
ATOM     19  C   LIG    1       22.934 -19.253   5.548  0.00  0.00    +0.005 C 
ATOM     20  C   LIG    1       22.688 -20.688   5.999  0.00  0.00    +0.000 C 
ATOM     21  C   LIG    1       23.885 -21.571   5.667  0.00  0.00    +0.000 C 
ATOM     22  C   LIG    1       24.201 -21.551   4.175  0.00  0.00    +0.005 C 
ATOM     23  C   LIG    1       23.793 -17.810   3.637  0.00  0.00    +0.111 C 
ATOM     24  O   LIG    1       27.390 -17.313   3.558  0.00  0.00    -0.276 OA
ENDBRANCH  13  14
ENDBRANCH   1  13
TORSDOF 6
ENDMDL
MODEL 5
REMARK VINA RESULT:      -3.5      1.358      2.297
REMARK  Name = *****
REMARK                            x       y       z     vdW  Elec       q    Type
REMARK                         _______ _______ _______ _____ _____    ______ ____
ROOT
ATOM      1  C   LIG    1       27.159 -18.460   4.706  0.00  0.00    +0.111 C 
ENDROOT
BRANCH   1   3
ATOM      2  O   LIG    1       28.371 -20.068   6.097  0.00  0.00    -0.251 OA
ATOM      3  C   LIG    1       28.377 -19.020   5.443  0.00  0.00    +0.309 C 
BRANCH   3   4
ATOM      4  O   LIG    1       29.474 -18.244   5.449  0.00  0.00    -0.480 OA
ATOM      5  H   LIG    1       29.316 -17.307   5.762  0.00  0.00    +0.295 HD
ENDBRANCH   3   4
ENDBRANCH   1   3
BRANCH   1   6
ATOM      6  C   LIG    1       26.380 -19.665   4.061  0.00  0.00    +0.050 C 
BRANCH   6   7
ATOM      7  C   LIG    1       24.976 -19.926   4.584  0.00  0.00    -0.047 A 
ATOM      8  C   LIG    1       24.777 -20.752   5.697  0.00  0.00    +0.003 A 
ATOM      9  C   LIG    1       23.503 -20.922   6.251  0.00  0.00    +0.000 A 
ATOM     10  C   LIG    1       22.392 -20.351   5.640  0.00  0.00    +0.000 A 
ATOM     11  C   LIG    1       22.559 -19.601   4.477  0.00  0.00    +0.000 A 
ATOM     12  C   LIG    1       23.844 -19.372   3.963  0.00  0.00    +0.003 A 
ENDBRANCH   6   7
ENDBRANCH   1   6
BRANCH   1  13
ATOM     13  C   LIG    1       27.473 -17.345   3.677  0.00  0.00    +0.110 C 
BRANCH  13  14
ATOM     14  C   LIG    1       27.414 -15.910   4.218  0.00  0.00    +0.216 C 
ATOM     15  N   LIG    1       26.246 -15.204   4.062  0.00  0.00    -0.301 N 
ATOM     16  C   LIG    1       26.120 -13.822   4.522  0.00  0.00    +0.111 C 
ATOM     17  C   LIG    1       24.613 -13.572   4.519  0.00  0.00    +0.011 C 
ATOM     18  C   LIG    1       24.135 -14.409   3.320  0.00  0.00    +0.011 C 
ATOM     19  C   LIG    1       24.280 -13.684   1.973  0.00  0.00    +0.005 C 
ATOM     20  C   LIG    1       23.668 -12.289   2.017  0.00  0.00    +0.000 C 
ATOM     21  C   LIG    1       24.319 -11.447   3.108  0.00  0.00    +0.000 C 
ATOM     22  C   LIG    1       24.189 -12.105   4.477  0.00  0.00    +0.005 C 
ATOM     23  C   LIG    1       25.031 -15.652   3.399  0.00  0.00    +0.111 C 
ATOM     24  O   LIG    1       28.386 -15.393   4.766  0.00  0.00    -0.276 OA
ENDBRANCH  13  14
ENDBRANCH   1  13
TORSDOF 6
ENDMDL
