MODEL 1
REMARK VINA RESULT:      -3.4      0.000      0.000
REMARK  Name = *****
REMARK                            x       y       z     vdW  Elec       q    Type
REMARK                         _______ _______ _______ _____ _____    ______ ____
ROOT
ATOM      1  CA  ALA A  1       24.444 -17.231   3.609  0.00  0.00    +0.138 C 
ATOM      2  CB  ALA A  1       23.604 -16.364   4.552  0.00  0.00    +0.034 C 
ENDROOT
BRANCH   1   3
ATOM      3  C   ALA A  1       25.678 -16.389   3.179  0.00  0.00    +0.233 C 
ATOM      4  N   UNK A  2       25.636 -15.001   3.276  0.00  0.00    -0.283 N 
ATOM      5  C   UNK A  2       24.419 -14.159   3.181  0.00  0.00    +0.080 C 
ATOM      6  C   UNK A  2       24.903 -12.866   2.486  0.00  0.00    +0.012 C 
ATOM      7  C   UNK A  2       24.139 -11.577   2.789  0.00  0.00    +0.005 C 
ATOM      8  C   UNK A  2       23.728 -11.456   4.249  0.00  0.00    +0.000 C 
ATOM      9  C   UNK A  2       22.931 -12.684   4.661  0.00  0.00    +0.002 C 
ATOM     10  C   UNK A  2       26.365 -12.776   2.900  0.00  0.00    +0.039 C 
ATOM     11  C   UNK A  2       23.781 -13.946   4.560  0.00  0.00    +0.023 C 
ATOM     12  C   UNK A  2       26.836 -14.227   2.876  0.00  0.00    +0.185 C 
ATOM     13  O   ALA A  1       26.759 -16.939   2.939  0.00  0.00    -0.274 OA
BRANCH  12  14
ATOM     14  C   UNK A  2       28.095 -14.289   3.770  0.00  0.00    +0.326 C 
ATOM     15  O   UNK A  2       28.973 -13.451   3.787  0.00  0.00    -0.249 OA
BRANCH  14  16
ATOM     16  O   UNK A  2       28.126 -15.357   4.612  0.00  0.00    -0.479 OA
ATOM     17  H   UNK A  2       28.569 -15.121   5.444  0.00  0.00    +0.295 HD
ENDBRANCH  14  16
ENDBRANCH  12  14
ENDBRANCH   1   3
BRANCH   1  18
ATOM     18  N   ALA A  1       24.923 -18.462   4.275  0.00  0.00    -0.294 NA
ATOM     19  H   ALA A  1       25.015 -18.265   5.282  0.00  0.00    +0.123 HD
BRANCH  18  20
ATOM     20  C   UNK A  0       24.085 -19.685   4.103  0.00  0.00    +0.164 C 
BRANCH  20  21
ATOM     21  C   UNK A  0       22.882 -19.594   5.032  0.00  0.00    +0.324 C 
ATOM     22  O   UNK A  0       22.907 -19.500   6.238  0.00  0.00    -0.249 OA
BRANCH  21  23
ATOM     23  O   UNK A  0       21.731 -19.675   4.277  0.00  0.00    -0.464 OA
BRANCH  23  25
ATOM     24  C   UNK A  0       19.830 -18.637   3.176  0.00  0.00    +0.048 C 
ATOM     25  C   UNK A  0       21.219 -18.424   3.773  0.00  0.00    +0.229 C 
ENDBRANCH  23  25
ENDBRANCH  21  23
ENDBRANCH  20  21
BRANCH  20  26
ATOM     26  C   UNK A  0       24.851 -20.988   4.454  0.00  0.00    +0.035 C 
BRANCH  26  27
ATOM     27  C   UNK A  0       25.329 -21.061   5.916  0.00  0.00    +0.037 C 
BRANCH  27  28
ATOM     28  C   UNK A  0       26.783 -20.701   6.092  0.00  0.00    -0.047 A 
ATOM     29  C   UNK A  0       27.317 -19.560   5.473  0.00  0.00    +0.003 A 
ATOM     30  C   UNK A  0       28.653 -19.207   5.664  0.00  0.00    +0.000 A 
ATOM     31  C   UNK A  0       29.475 -20.006   6.452  0.00  0.00    +0.000 A 
ATOM     32  C   UNK A  0       28.958 -21.151   7.058  0.00  0.00    +0.000 A 
ATOM     33  C   UNK A  0       27.616 -21.493   6.889  0.00  0.00    +0.003 A 
ENDBRANCH  27  28
ENDBRANCH  26  27
ENDBRANCH  20  26
ENDBRANCH  18  20
ENDBRANCH   1  18
TORSDOF 11
ENDMDL
MODEL 2
REMARK VINA RESULT:      -2.5      2.230      4.998
REMARK  Name = *****
REMARK                            x       y       z     vdW  Elec       q    Type
REMARK                         _______ _______ _______ _____ _____    ______ ____
ROOT
ATOM      1  CA  ALA A  1       25.832 -16.966   3.142  0.00  0.00    +0.138 C 
ATOM      2  CB  ALA A  1       24.999 -18.244   3.286  0.00  0.00    +0.034 C 
ENDROOT
BRANCH   1   3
ATOM      3  C   ALA A  1       25.077 -15.832   3.890  0.00  0.00    +0.233 C 
ATOM      4  N   UNK A  2       25.732 -14.637   4.175  0.00  0.00    -0.283 N 
ATOM      5  C   UNK A  2       27.190 -14.476   4.396  0.00  0.00    +0.080 C 
ATOM      6  C   UNK A  2       27.293 -13.357   5.459  0.00  0.00    +0.012 C 
ATOM      7  C   UNK A  2       28.561 -12.504   5.460  0.00  0.00    +0.005 C 
ATOM      8  C   UNK A  2       29.053 -12.165   4.060  0.00  0.00    +0.000 C 
ATOM      9  C   UNK A  2       29.246 -13.444   3.260  0.00  0.00    +0.002 C 
ATOM     10  C   UNK A  2       26.043 -12.525   5.210  0.00  0.00    +0.039 C 
ATOM     11  C   UNK A  2       27.921 -14.180   3.081  0.00  0.00    +0.023 C 
ATOM     12  C   UNK A  2       24.979 -13.567   4.873  0.00  0.00    +0.185 C 
ATOM     13  O   ALA A  1       23.854 -15.898   4.059  0.00  0.00    -0.274 OA
BRANCH  12  14
ATOM     14  C   UNK A  2       23.867 -12.817   4.105  0.00  0.00    +0.326 C 
ATOM     15  O   UNK A  2       23.254 -11.861   4.534  0.00  0.00    -0.249 OA
BRANCH  14  16
ATOM     16  O   UNK A  2       23.654 -13.280   2.844  0.00  0.00    -0.479 OA
ATOM     17  H   UNK A  2       24.412 -13.811   2.545  0.00  0.00    +0.295 HD
ENDBRANCH  14  16
ENDBRANCH  12  14
ENDBRANCH   1   3
BRANCH   1  18
ATOM     18  N   ALA A  1       27.175 -17.115   3.745  0.00  0.00    -0.294 NA
ATOM     19  H   ALA A  1       27.458 -16.199   4.122  0.00  0.00    +0.123 HD
BRANCH  18  20
ATOM     20  C   UNK A  0       27.317 -18.138   4.821  0.00  0.00    +0.164 C 
BRANCH  20  21
ATOM     21  C   UNK A  0       28.752 -18.126   5.329  0.00  0.00    +0.324 C 
ATOM     22  O   UNK A  0       29.450 -17.153   5.497  0.00  0.00    -0.249 OA
BRANCH  21  23
ATOM     23  O   UNK A  0       29.159 -19.427   5.537  0.00  0.00    -0.464 OA
BRANCH  23  25
ATOM     24  C   UNK A  0       29.449 -21.318   7.035  0.00  0.00    +0.048 C 
ATOM     25  C   UNK A  0       29.408 -19.797   6.909  0.00  0.00    +0.229 C 
ENDBRANCH  23  25
ENDBRANCH  21  23
ENDBRANCH  20  21
BRANCH  20  26
ATOM     26  C   UNK A  0       27.008 -19.576   4.322  0.00  0.00    +0.035 C 
BRANCH  26  27
ATOM     27  C   UNK A  0       26.643 -20.565   5.445  0.00  0.00    +0.037 C 
BRANCH  27  28
ATOM     28  C   UNK A  0       25.158 -20.787   5.590  0.00  0.00    -0.047 A 
ATOM     29  C   UNK A  0       24.370 -21.111   4.473  0.00  0.00    +0.003 A 
ATOM     30  C   UNK A  0       23.004 -21.352   4.612  0.00  0.00    +0.000 A 
ATOM     31  C   UNK A  0       22.406 -21.245   5.864  0.00  0.00    +0.000 A 
ATOM     32  C   UNK A  0       23.176 -20.909   6.977  0.00  0.00    +0.000 A 
ATOM     33  C   UNK A  0       24.548 -20.691   6.845  0.00  0.00    +0.003 A 
ENDBRANCH  27  28
ENDBRANCH  26  27
ENDBRANCH  20  26
ENDBRANCH  18  20
ENDBRANCH   1  18
TORSDOF 11
ENDMDL
MODEL 3
REMARK VINA RESULT:      -2.5      1.995      2.996
REMARK  Name = *****
REMARK                            x       y       z     vdW  Elec       q    Type
REMARK                         _______ _______ _______ _____ _____    ______ ____
ROOT
ATOM      1  CA  ALA A  1       25.036 -16.913   3.917  0.00  0.00    +0.138 C 
ATOM      2  CB  ALA A  1       26.212 -16.707   2.956  0.00  0.00    +0.034 C 
ENDROOT
BRANCH   1   3
ATOM      3  C   ALA A  1       24.405 -15.518   4.185  0.00  0.00    +0.233 C 
ATOM      4  N   UNK A  2       25.222 -14.395   4.278  0.00  0.00    -0.283 N 
ATOM      5  C   UNK A  2       26.634 -14.383   4.732  0.00  0.00    +0.080 C 
ATOM      6  C   UNK A  2       26.785 -13.033   5.471  0.00  0.00    +0.012 C 
ATOM      7  C   UNK A  2       28.176 -12.400   5.502  0.00  0.00    +0.005 C 
ATOM      8  C   UNK A  2       28.928 -12.548   4.187  0.00  0.00    +0.000 C 
ATOM      9  C   UNK A  2       28.994 -14.016   3.795  0.00  0.00    +0.002 C 
ATOM     10  C   UNK A  2       25.765 -12.141   4.777  0.00  0.00    +0.039 C 
ATOM     11  C   UNK A  2       27.598 -14.580   3.555  0.00  0.00    +0.023 C 
ATOM     12  C   UNK A  2       24.588 -13.076   4.516  0.00  0.00    +0.185 C 
ATOM     13  O   ALA A  1       23.179 -15.363   4.122  0.00  0.00    -0.274 OA
BRANCH  12  14
ATOM     14  C   UNK A  2       23.765 -12.430   3.378  0.00  0.00    +0.326 C 
ATOM     15  O   UNK A  2       22.997 -11.501   3.522  0.00  0.00    -0.249 OA
BRANCH  14  16
ATOM     16  O   UNK A  2       24.013 -12.953   2.147  0.00  0.00    -0.479 OA
ATOM     17  H   UNK A  2       24.835 -13.471   2.158  0.00  0.00    +0.295 HD
ENDBRANCH  14  16
ENDBRANCH  12  14
ENDBRANCH   1   3
BRANCH   1  18
ATOM     18  N   ALA A  1       24.000 -17.796   3.338  0.00  0.00    -0.294 NA
ATOM     19  H   ALA A  1       24.232 -17.950   2.346  0.00  0.00    +0.123 HD
BRANCH  18  20
ATOM     20  C   UNK A  0       23.808 -19.122   3.994  0.00  0.00    +0.164 C 
BRANCH  20  21
ATOM     21  C   UNK A  0       22.352 -19.257   4.419  0.00  0.00    +0.324 C 
ATOM     22  O   UNK A  0       21.899 -20.065   5.196  0.00  0.00    -0.249 OA
BRANCH  21  23
ATOM     23  O   UNK A  0       21.603 -18.321   3.737  0.00  0.00    -0.464 OA
BRANCH  23  25
ATOM     24  C   UNK A  0       19.588 -18.131   2.393  0.00  0.00    +0.048 C 
ATOM     25  C   UNK A  0       20.176 -18.531   3.744  0.00  0.00    +0.229 C 
ENDBRANCH  23  25
ENDBRANCH  21  23
ENDBRANCH  20  21
BRANCH  20  26
ATOM     26  C   UNK A  0       24.685 -19.292   5.264  0.00  0.00    +0.035 C 
BRANCH  26  27
ATOM     27  C   UNK A  0       25.397 -20.654   5.357  0.00  0.00    +0.037 C 
BRANCH  27  28
ATOM     28  C   UNK A  0       26.828 -20.554   5.823  0.00  0.00    -0.047 A 
ATOM     29  C   UNK A  0       27.608 -19.431   5.502  0.00  0.00    +0.003 A 
ATOM     30  C   UNK A  0       28.919 -19.321   5.963  0.00  0.00    +0.000 A 
ATOM     31  C   UNK A  0       29.474 -20.343   6.726  0.00  0.00    +0.000 A 
ATOM     32  C   UNK A  0       28.713 -21.470   7.038  0.00  0.00    +0.000 A 
ATOM     33  C   UNK A  0       27.392 -21.572   6.599  0.00  0.00    +0.003 A 
ENDBRANCH  27  28
ENDBRANCH  26  27
ENDBRANCH  20  26
ENDBRANCH  18  20
ENDBRANCH   1  18
TORSDOF 11
ENDMDL
MODEL 4
REMARK VINA RESULT:      -2.3      1.819      4.516
REMARK  Name = *****
REMARK                            x       y       z     vdW  Elec       q    Type
REMARK                         _______ _______ _______ _____ _____    ______ ____
ROOT
ATOM      1  CA  ALA A  1       26.602 -17.045   3.590  0.00  0.00    +0.138 C 
ATOM      2  CB  ALA A  1       25.190 -16.758   4.112  0.00  0.00    +0.034 C 
ENDROOT
BRANCH   1   3
ATOM      3  C   ALA A  1       27.463 -15.779   3.855  0.00  0.00    +0.233 C 
ATOM      4  N   UNK A  2       26.908 -14.515   3.672  0.00  0.00    -0.283 N 
ATOM      5  C   UNK A  2       25.821 -14.172   2.723  0.00  0.00    +0.080 C 
ATOM      6  C   UNK A  2       26.162 -12.739   2.254  0.00  0.00    +0.012 C 
ATOM      7  C   UNK A  2       25.000 -11.849   1.814  0.00  0.00    +0.005 C 
ATOM      8  C   UNK A  2       23.764 -12.006   2.687  0.00  0.00    +0.000 C 
ATOM      9  C   UNK A  2       23.353 -13.469   2.736  0.00  0.00    +0.002 C 
ATOM     10  C   UNK A  2       26.914 -12.155   3.441  0.00  0.00    +0.039 C 
ATOM     11  C   UNK A  2       24.443 -14.321   3.381  0.00  0.00    +0.023 C 
ATOM     12  C   UNK A  2       27.749 -13.326   3.950  0.00  0.00    +0.185 C 
ATOM     13  O   ALA A  1       28.564 -15.874   4.410  0.00  0.00    -0.274 OA
BRANCH  12  14
ATOM     14  C   UNK A  2       28.110 -12.996   5.416  0.00  0.00    +0.326 C 
ATOM     15  O   UNK A  2       27.676 -13.586   6.385  0.00  0.00    -0.249 OA
BRANCH  14  16
ATOM     16  O   UNK A  2       29.027 -12.001   5.551  0.00  0.00    -0.479 OA
ATOM     17  H   UNK A  2       29.914 -12.323   5.319  0.00  0.00    +0.295 HD
ENDBRANCH  14  16
ENDBRANCH  12  14
ENDBRANCH   1   3
BRANCH   1  18
ATOM     18  N   ALA A  1       27.223 -18.192   4.289  0.00  0.00    -0.294 NA
ATOM     19  H   ALA A  1       27.810 -17.821   5.050  0.00  0.00    +0.123 HD
BRANCH  18  20
ATOM     20  C   UNK A  0       26.295 -19.213   4.857  0.00  0.00    +0.164 C 
BRANCH  20  21
ATOM     21  C   UNK A  0       27.026 -20.000   5.936  0.00  0.00    +0.324 C 
ATOM     22  O   UNK A  0       26.635 -20.221   7.059  0.00  0.00    -0.249 OA
BRANCH  21  23
ATOM     23  O   UNK A  0       28.249 -20.401   5.440  0.00  0.00    -0.464 OA
BRANCH  23  25
ATOM     24  C   UNK A  0       29.411 -18.825   6.879  0.00  0.00    +0.048 C 
ATOM     25  C   UNK A  0       29.370 -20.251   6.335  0.00  0.00    +0.229 C 
ENDBRANCH  23  25
ENDBRANCH  21  23
ENDBRANCH  20  21
BRANCH  20  26
ATOM     26  C   UNK A  0       25.798 -20.226   3.792  0.00  0.00    +0.035 C 
BRANCH  26  27
ATOM     27  C   UNK A  0       24.625 -21.107   4.262  0.00  0.00    +0.037 C 
BRANCH  27  28
ATOM     28  C   UNK A  0       23.290 -20.408   4.208  0.00  0.00    -0.047 A 
ATOM     29  C   UNK A  0       22.106 -21.103   4.501  0.00  0.00    +0.003 A 
ATOM     30  C   UNK A  0       20.874 -20.449   4.486  0.00  0.00    +0.000 A 
ATOM     31  C   UNK A  0       20.811 -19.101   4.152  0.00  0.00    +0.000 A 
ATOM     32  C   UNK A  0       21.979 -18.403   3.844  0.00  0.00    +0.000 A 
ATOM     33  C   UNK A  0       23.215 -19.050   3.881  0.00  0.00    +0.003 A 
ENDBRANCH  27  28
ENDBRANCH  26  27
ENDBRANCH  20  26
ENDBRANCH  18  20
ENDBRANCH   1  18
TORSDOF 11
ENDMDL
MODEL 5
REMARK VINA RESULT:      -1.4      1.794      4.237
REMARK  Name = *****
REMARK                            x       y       z     vdW  Elec       q    Type
REMARK                         _______ _______ _______ _____ _____    ______ ____
ROOT
ATOM      1  CA  ALA A  1       27.452 -16.907   4.566  0.00  0.00    +0.138 C 
ATOM      2  CB  ALA A  1       28.602 -17.866   4.890  0.00  0.00    +0.034 C 
ENDROOT
BRANCH   1   3
ATOM      3  C   ALA A  1       28.082 -15.578   4.062  0.00  0.00    +0.233 C 
ATOM      4  N   UNK A  2       27.260 -14.499   3.748  0.00  0.00    -0.283 N 
ATOM      5  C   UNK A  2       25.859 -14.584   3.269  0.00  0.00    +0.080 C 
ATOM      6  C   UNK A  2       25.718 -13.392   2.292  0.00  0.00    +0.012 C 
ATOM      7  C   UNK A  2       24.325 -12.790   2.116  0.00  0.00    +0.005 C 
ATOM      8  C   UNK A  2       23.543 -12.703   3.419  0.00  0.00    +0.000 C 
ATOM      9  C   UNK A  2       23.475 -14.076   4.070  0.00  0.00    +0.002 C 
ATOM     10  C   UNK A  2       26.716 -12.379   2.835  0.00  0.00    +0.039 C 
ATOM     11  C   UNK A  2       24.869 -14.573   4.441  0.00  0.00    +0.023 C 
ATOM     12  C   UNK A  2       27.892 -13.239   3.288  0.00  0.00    +0.185 C 
ATOM     13  O   ALA A  1       29.304 -15.401   4.122  0.00  0.00    -0.274 OA
BRANCH  12  14
ATOM     14  C   UNK A  2       28.684 -12.388   4.306  0.00  0.00    +0.326 C 
ATOM     15  O   UNK A  2       29.475 -11.515   4.011  0.00  0.00    -0.249 OA
BRANCH  14  16
ATOM     16  O   UNK A  2       28.380 -12.652   5.606  0.00  0.00    -0.479 OA
ATOM     17  H   UNK A  2       29.079 -12.318   6.192  0.00  0.00    +0.295 HD
ENDBRANCH  14  16
ENDBRANCH  12  14
ENDBRANCH   1   3
BRANCH   1  18
ATOM     18  N   ALA A  1       26.571 -17.443   3.505  0.00  0.00    -0.294 NA
ATOM     19  H   ALA A  1       27.144 -18.029   2.882  0.00  0.00    +0.123 HD
BRANCH  18  20
ATOM     20  C   UNK A  0       25.390 -18.237   3.954  0.00  0.00    +0.164 C 
BRANCH  20  21
ATOM     21  C   UNK A  0       25.492 -19.643   3.379  0.00  0.00    +0.324 C 
ATOM     22  O   UNK A  0       24.981 -20.044   2.359  0.00  0.00    -0.249 OA
BRANCH  21  23
ATOM     23  O   UNK A  0       26.242 -20.419   4.237  0.00  0.00    -0.464 OA
BRANCH  23  25
ATOM     24  C   UNK A  0       26.860 -20.289   6.584  0.00  0.00    +0.048 C 
ATOM     25  C   UNK A  0       25.735 -20.541   5.582  0.00  0.00    +0.229 C 
ENDBRANCH  23  25
ENDBRANCH  21  23
ENDBRANCH  20  21
BRANCH  20  26
ATOM     26  C   UNK A  0       24.044 -17.630   3.473  0.00  0.00    +0.035 C 
BRANCH  26  27
ATOM     27  C   UNK A  0       22.923 -17.676   4.527  0.00  0.00    +0.037 C 
BRANCH  27  28
ATOM     28  C   UNK A  0       22.279 -19.033   4.661  0.00  0.00    -0.047 A 
ATOM     29  C   UNK A  0       21.149 -19.368   3.898  0.00  0.00    +0.003 A 
ATOM     30  C   UNK A  0       20.574 -20.635   3.995  0.00  0.00    +0.000 A 
ATOM     31  C   UNK A  0       21.107 -21.571   4.875  0.00  0.00    +0.000 A 
ATOM     32  C   UNK A  0       22.221 -21.244   5.649  0.00  0.00    +0.000 A 
ATOM     33  C   UNK A  0       22.812 -19.985   5.536  0.00  0.00    +0.003 A 
ENDBRANCH  27  28
ENDBRANCH  26  27
ENDBRANCH  20  26
ENDBRANCH  18  20
ENDBRANCH   1  18
TORSDOF 11
ENDMDL
