MODEL 1
REMARK VINA RESULT:      -6.1      0.000      0.000
REMARK  Name = *****
REMARK                            x       y       z     vdW  Elec       q    Type
REMARK                         _______ _______ _______ _____ _____    ______ ____
ROOT
ATOM      1  C   LIG    1       29.913 -18.942   6.702  0.00  0.00    +0.000 C 
ENDROOT
BRANCH   1   2
ATOM      2  C   LIG    1       28.975 -20.131   6.488  0.00  0.00    +0.000 C 
BRANCH   2   3
ATOM      3  C   LIG    1       27.932 -20.217   7.602  0.00  0.00    +0.011 C 
BRANCH   3   4
ATOM      4  C   LIG    1       26.599 -20.733   7.077  0.00  0.00    +0.120 C 
BRANCH   4   6
ATOM      5  O   LIG    1       24.347 -20.751   7.936  0.00  0.00    -0.251 OA
ATOM      6  C   LIG    1       25.545 -20.668   8.152  0.00  0.00    +0.305 C 
BRANCH   6   7
ATOM      7  O   LIG    1       26.050 -20.469   9.388  0.00  0.00    -0.481 OA
ATOM      8  H   LIG    1       27.007 -20.644   9.460  0.00  0.00    +0.295 HD
ENDBRANCH   6   7
ENDBRANCH   4   6
ENDBRANCH   3   4
ENDBRANCH   2   3
ENDBRANCH   1   2
BRANCH   1   9
ATOM      9  C   LIG    1       31.158 -19.338   7.499  0.00  0.00    +0.000 C 
BRANCH   9  10
ATOM     10  C   LIG    1       31.533 -18.252   8.508  0.00  0.00    +0.011 C 
BRANCH  10  11
ATOM     11  C   LIG    1       30.297 -17.569   9.094  0.00  0.00    +0.120 C 
BRANCH  11  12
ATOM     12  C   LIG    1       30.398 -17.420  10.595  0.00  0.00    +0.305 C 
ATOM     13  O   LIG    1       30.231 -16.386  11.218  0.00  0.00    -0.251 OA
BRANCH  12  14
ATOM     14  O   LIG    1       30.702 -18.590  11.208  0.00  0.00    -0.481 OA
ATOM     15  H   LIG    1       30.135 -18.793  11.974  0.00  0.00    +0.295 HD
ENDBRANCH  12  14
ENDBRANCH  11  12
ENDBRANCH  10  11
ENDBRANCH   9  10
ENDBRANCH   1   9
TORSDOF 10
ENDMDL
MODEL 2
REMARK VINA RESULT:      -6.0      1.343      5.878
REMARK  Name = *****
REMARK                            x       y       z     vdW  Elec       q    Type
REMARK                         _______ _______ _______ _____ _____    ______ ____
ROOT
ATOM      1  C   LIG    1       29.743 -18.771   6.543  0.00  0.00    +0.000 C 
ENDROOT
BRANCH   1   2
ATOM      2  C   LIG    1       31.094 -19.334   6.989  0.00  0.00    +0.000 C 
BRANCH   2   3
ATOM      3  C   LIG    1       31.284 -19.180   8.498  0.00  0.00    +0.011 C 
BRANCH   3   4
ATOM      4  C   LIG    1       30.960 -17.765   8.957  0.00  0.00    +0.120 C 
BRANCH   4   6
ATOM      5  O   LIG    1       32.713 -17.368  10.563  0.00  0.00    -0.251 OA
ATOM      6  C   LIG    1       32.194 -17.088   9.495  0.00  0.00    +0.305 C 
BRANCH   6   7
ATOM      7  O   LIG    1       32.659 -16.104   8.696  0.00  0.00    -0.481 OA
ATOM      8  H   LIG    1       32.166 -15.266   8.769  0.00  0.00    +0.295 HD
ENDBRANCH   6   7
ENDBRANCH   4   6
ENDBRANCH   3   4
ENDBRANCH   2   3
ENDBRANCH   1   2
BRANCH   1   9
ATOM      9  C   LIG    1       28.756 -19.884   6.184  0.00  0.00    +0.000 C 
BRANCH   9  10
ATOM     10  C   LIG    1       27.925 -20.295   7.401  0.00  0.00    +0.011 C 
BRANCH  10  11
ATOM     11  C   LIG    1       26.449 -20.475   7.047  0.00  0.00    +0.120 C 
BRANCH  11  12
ATOM     12  C   LIG    1       25.605 -20.726   8.277  0.00  0.00    +0.305 C 
ATOM     13  O   LIG    1       25.945 -20.508   9.427  0.00  0.00    -0.251 OA
BRANCH  12  14
ATOM     14  O   LIG    1       24.387 -21.234   7.969  0.00  0.00    -0.481 OA
ATOM     15  H   LIG    1       23.803 -21.355   8.741  0.00  0.00    +0.295 HD
ENDBRANCH  12  14
ENDBRANCH  11  12
ENDBRANCH  10  11
ENDBRANCH   9  10
ENDBRANCH   1   9
TORSDOF 10
ENDMDL
MODEL 3
REMARK VINA RESULT:      -6.0      2.820      7.321
REMARK  Name = *****
REMARK                            x       y       z     vdW  Elec       q    Type
REMARK                         _______ _______ _______ _____ _____    ______ ____
ROOT
ATOM      1  C   LIG    1       26.755 -20.855   7.819  0.00  0.00    +0.000 C 
ENDROOT
BRANCH   1   2
ATOM      2  C   LIG    1       28.251 -21.081   7.593  0.00  0.00    +0.000 C 
BRANCH   2   3
ATOM      3  C   LIG    1       28.948 -19.786   7.178  0.00  0.00    +0.011 C 
BRANCH   3   4
ATOM      4  C   LIG    1       29.741 -19.188   8.332  0.00  0.00    +0.120 C 
BRANCH   4   6
ATOM      5  O   LIG    1       31.918 -19.709   9.227  0.00  0.00    -0.251 OA
ATOM      6  C   LIG    1       31.186 -19.611   8.256  0.00  0.00    +0.305 C 
BRANCH   6   7
ATOM      7  O   LIG    1       31.614 -19.837   6.995  0.00  0.00    -0.481 OA
ATOM      8  H   LIG    1       32.147 -20.647   6.896  0.00  0.00    +0.295 HD
ENDBRANCH   6   7
ENDBRANCH   4   6
ENDBRANCH   3   4
ENDBRANCH   2   3
ENDBRANCH   1   2
BRANCH   1   9
ATOM      9  C   LIG    1       26.071 -22.104   8.381  0.00  0.00    +0.000 C 
BRANCH   9  10
ATOM     10  C   LIG    1       25.561 -23.004   7.254  0.00  0.00    +0.011 C 
BRANCH  10  11
ATOM     11  C   LIG    1       24.111 -22.687   6.886  0.00  0.00    +0.120 C 
BRANCH  11  12
ATOM     12  C   LIG    1       23.295 -23.945   6.691  0.00  0.00    +0.305 C 
ATOM     13  O   LIG    1       23.746 -25.072   6.582  0.00  0.00    -0.251 OA
BRANCH  12  14
ATOM     14  O   LIG    1       21.965 -23.693   6.648  0.00  0.00    -0.481 OA
ATOM     15  H   LIG    1       21.706 -23.047   5.965  0.00  0.00    +0.295 HD
ENDBRANCH  12  14
ENDBRANCH  11  12
ENDBRANCH  10  11
ENDBRANCH   9  10
ENDBRANCH   1   9
TORSDOF 10
ENDMDL
MODEL 4
REMARK VINA RESULT:      -6.0      3.204      4.139
REMARK  Name = *****
REMARK                            x       y       z     vdW  Elec       q    Type
REMARK                         _______ _______ _______ _____ _____    ______ ____
ROOT
ATOM      1  C   LIG    1       26.760 -20.677   8.028  0.00  0.00    +0.000 C 
ENDROOT
BRANCH   1   2
ATOM      2  C   LIG    1       25.832 -20.697   6.812  0.00  0.00    +0.000 C 
BRANCH   2   3
ATOM      3  C   LIG    1       24.589 -21.545   7.081  0.00  0.00    +0.011 C 
BRANCH   3   4
ATOM      4  C   LIG    1       23.324 -20.699   7.061  0.00  0.00    +0.120 C 
BRANCH   4   6
ATOM      5  O   LIG    1       22.393 -19.408   5.250  0.00  0.00    -0.251 OA
ATOM      6  C   LIG    1       22.869 -20.460   5.644  0.00  0.00    +0.305 C 
BRANCH   6   7
ATOM      7  O   LIG    1       23.002 -21.542   4.847  0.00  0.00    -0.481 OA
ATOM      8  H   LIG    1       23.908 -21.681   4.513  0.00  0.00    +0.295 HD
ENDBRANCH   6   7
ENDBRANCH   4   6
ENDBRANCH   3   4
ENDBRANCH   2   3
ENDBRANCH   1   2
BRANCH   1   9
ATOM      9  C   LIG    1       28.149 -20.141   7.673  0.00  0.00    +0.000 C 
BRANCH   9  10
ATOM     10  C   LIG    1       29.191 -21.261   7.691  0.00  0.00    +0.011 C 
BRANCH  10  11
ATOM     11  C   LIG    1       30.519 -20.791   8.286  0.00  0.00    +0.120 C 
BRANCH  11  12
ATOM     12  C   LIG    1       31.136 -21.845   9.178  0.00  0.00    +0.305 C 
ATOM     13  O   LIG    1       30.765 -22.128  10.304  0.00  0.00    -0.251 OA
BRANCH  12  14
ATOM     14  O   LIG    1       32.180 -22.473   8.584  0.00  0.00    -0.481 OA
ATOM     15  H   LIG    1       32.027 -23.420   8.414  0.00  0.00    +0.295 HD
ENDBRANCH  12  14
ENDBRANCH  11  12
ENDBRANCH  10  11
ENDBRANCH   9  10
ENDBRANCH   1   9
TORSDOF 10
ENDMDL
MODEL 5
REMARK VINA RESULT:      -6.0      4.193      6.576
REMARK  Name = *****
REMARK                            x       y       z     vdW  Elec       q    Type
REMARK                         _______ _______ _______ _____ _____    ______ ____
ROOT
ATOM      1  C   LIG    1       24.150 -23.112   6.921  0.00  0.00    +0.000 C 
ENDROOT
BRANCH   1   2
ATOM      2  C   LIG    1       23.266 -24.333   6.658  0.00  0.00    +0.000 C 
BRANCH   2   3
ATOM      3  C   LIG    1       24.076 -25.480   6.055  0.00  0.00    +0.011 C 
BRANCH   3   4
ATOM      4  C   LIG    1       25.573 -25.226   6.175  0.00  0.00    +0.120 C 
BRANCH   4   6
ATOM      5  O   LIG    1       26.069 -27.254   7.380  0.00  0.00    -0.251 OA
ATOM      6  C   LIG    1       26.309 -26.514   6.440  0.00  0.00    +0.305 C 
BRANCH   6   7
ATOM      7  O   LIG    1       27.297 -26.760   5.554  0.00  0.00    -0.481 OA
ATOM      8  H   LIG    1       27.012 -26.731   4.622  0.00  0.00    +0.295 HD
ENDBRANCH   6   7
ENDBRANCH   4   6
ENDBRANCH   3   4
ENDBRANCH   2   3
ENDBRANCH   1   2
BRANCH   1   9
ATOM      9  C   LIG    1       23.349 -21.809   6.860  0.00  0.00    +0.000 C 
BRANCH   9  10
ATOM     10  C   LIG    1       24.145 -20.647   7.459  0.00  0.00    +0.011 C 
BRANCH  10  11
ATOM     11  C   LIG    1       25.622 -20.709   7.069  0.00  0.00    +0.120 C 
BRANCH  11  12
ATOM     12  C   LIG    1       26.525 -20.480   8.261  0.00  0.00    +0.305 C 
ATOM     13  O   LIG    1       27.716 -20.224   8.209  0.00  0.00    -0.251 OA
BRANCH  12  14
ATOM     14  O   LIG    1       25.861 -20.586   9.437  0.00  0.00    -0.481 OA
ATOM     15  H   LIG    1       26.173 -19.968  10.124  0.00  0.00    +0.295 HD
ENDBRANCH  12  14
ENDBRANCH  11  12
ENDBRANCH  10  11
ENDBRANCH   9  10
ENDBRANCH   1   9
TORSDOF 10
ENDMDL
MODEL 6
REMARK VINA RESULT:      -5.9      4.167      7.691
REMARK  Name = *****
REMARK                            x       y       z     vdW  Elec       q    Type
REMARK                         _______ _______ _______ _____ _____    ______ ____
ROOT
ATOM      1  C   LIG    1       22.915 -23.076   6.908  0.00  0.00    +0.000 C 
ENDROOT
BRANCH   1   2
ATOM      2  C   LIG    1       23.691 -21.960   6.207  0.00  0.00    +0.000 C 
BRANCH   2   3
ATOM      3  C   LIG    1       24.161 -20.903   7.207  0.00  0.00    +0.011 C 
BRANCH   3   4
ATOM      4  C   LIG    1       25.657 -20.650   7.085  0.00  0.00    +0.120 C 
BRANCH   4   6
ATOM      5  O   LIG    1       25.868 -20.474   9.480  0.00  0.00    -0.251 OA
ATOM      6  C   LIG    1       26.337 -20.844   8.416  0.00  0.00    +0.305 C 
BRANCH   6   7
ATOM      7  O   LIG    1       27.545 -21.439   8.320  0.00  0.00    -0.481 OA
ATOM      8  H   LIG    1       27.810 -21.932   9.119  0.00  0.00    +0.295 HD
ENDBRANCH   6   7
ENDBRANCH   4   6
ENDBRANCH   3   4
ENDBRANCH   2   3
ENDBRANCH   1   2
BRANCH   1   9
ATOM      9  C   LIG    1       23.500 -24.456   6.595  0.00  0.00    +0.000 C 
BRANCH   9  10
ATOM     10  C   LIG    1       25.012 -24.374   6.378  0.00  0.00    +0.011 C 
BRANCH  10  11
ATOM     11  C   LIG    1       25.507 -25.456   5.417  0.00  0.00    +0.120 C 
BRANCH  11  12
ATOM     12  C   LIG    1       26.336 -26.501   6.130  0.00  0.00    +0.305 C 
ATOM     13  O   LIG    1       26.064 -27.010   7.203  0.00  0.00    -0.251 OA
BRANCH  12  14
ATOM     14  O   LIG    1       27.451 -26.834   5.435  0.00  0.00    -0.481 OA
ATOM     15  H   LIG    1       27.527 -26.386   4.572  0.00  0.00    +0.295 HD
ENDBRANCH  12  14
ENDBRANCH  11  12
ENDBRANCH  10  11
ENDBRANCH   9  10
ENDBRANCH   1   9
TORSDOF 10
ENDMDL
MODEL 7
REMARK VINA RESULT:      -5.9      2.868      4.071
REMARK  Name = *****
REMARK                            x       y       z     vdW  Elec       q    Type
REMARK                         _______ _______ _______ _____ _____    ______ ____
ROOT
ATOM      1  C   LIG    1       26.577 -20.480   8.055  0.00  0.00    +0.000 C 
ENDROOT
BRANCH   1   2
ATOM      2  C   LIG    1       26.052 -21.871   8.415  0.00  0.00    +0.000 C 
BRANCH   2   3
ATOM      3  C   LIG    1       24.914 -22.289   7.484  0.00  0.00    +0.011 C 
BRANCH   3   4
ATOM      4  C   LIG    1       25.138 -23.688   6.927  0.00  0.00    +0.120 C 
BRANCH   4   6
ATOM      5  O   LIG    1       23.697 -25.525   6.324  0.00  0.00    -0.251 OA
ATOM      6  C   LIG    1       23.822 -24.340   6.589  0.00  0.00    +0.305 C 
BRANCH   6   7
ATOM      7  O   LIG    1       22.784 -23.476   6.568  0.00  0.00    -0.481 OA
ATOM      8  H   LIG    1       22.988 -22.620   6.148  0.00  0.00    +0.295 HD
ENDBRANCH   6   7
ENDBRANCH   4   6
ENDBRANCH   3   4
ENDBRANCH   2   3
ENDBRANCH   1   2
BRANCH   1   9
ATOM      9  C   LIG    1       27.564 -20.533   6.886  0.00  0.00    +0.000 C 
BRANCH   9  10
ATOM     10  C   LIG    1       28.972 -20.880   7.372  0.00  0.00    +0.011 C 
BRANCH  10  11
ATOM     11  C   LIG    1       29.620 -19.714   8.118  0.00  0.00    +0.120 C 
BRANCH  11  12
ATOM     12  C   LIG    1       31.126 -19.846   8.164  0.00  0.00    +0.305 C 
ATOM     13  O   LIG    1       31.792 -20.009   9.172  0.00  0.00    -0.251 OA
BRANCH  12  14
ATOM     14  O   LIG    1       31.687 -19.766   6.934  0.00  0.00    -0.481 OA
ATOM     15  H   LIG    1       32.105 -18.906   6.746  0.00  0.00    +0.295 HD
ENDBRANCH  12  14
ENDBRANCH  11  12
ENDBRANCH  10  11
ENDBRANCH   9  10
ENDBRANCH   1   9
TORSDOF 10
ENDMDL
MODEL 8
REMARK VINA RESULT:      -5.9      3.264      7.040
REMARK  Name = *****
REMARK                            x       y       z     vdW  Elec       q    Type
REMARK                         _______ _______ _______ _____ _____    ______ ____
ROOT
ATOM      1  C   LIG    1       26.896 -20.402   8.102  0.00  0.00    +0.000 C 
ENDROOT
BRANCH   1   2
ATOM      2  C   LIG    1       28.119 -20.421   7.184  0.00  0.00    +0.000 C 
BRANCH   2   3
ATOM      3  C   LIG    1       29.130 -21.476   7.636  0.00  0.00    +0.011 C 
BRANCH   3   4
ATOM      4  C   LIG    1       30.345 -20.835   8.292  0.00  0.00    +0.120 C 
BRANCH   4   6
ATOM      5  O   LIG    1       30.740 -22.077  10.320  0.00  0.00    -0.251 OA
ATOM      6  C   LIG    1       31.060 -21.830   9.169  0.00  0.00    +0.305 C 
BRANCH   6   7
ATOM      7  O   LIG    1       32.126 -22.405   8.570  0.00  0.00    -0.481 OA
ATOM      8  H   LIG    1       32.564 -23.089   9.110  0.00  0.00    +0.295 HD
ENDBRANCH   6   7
ENDBRANCH   4   6
ENDBRANCH   3   4
ENDBRANCH   2   3
ENDBRANCH   1   2
BRANCH   1   9
ATOM      9  C   LIG    1       26.327 -21.807   8.316  0.00  0.00    +0.000 C 
BRANCH   9  10
ATOM     10  C   LIG    1       25.562 -22.285   7.080  0.00  0.00    +0.011 C 
BRANCH  10  11
ATOM     11  C   LIG    1       25.533 -23.810   6.984  0.00  0.00    +0.120 C 
BRANCH  11  12
ATOM     12  C   LIG    1       25.247 -24.277   5.575  0.00  0.00    +0.305 C 
ATOM     13  O   LIG    1       25.461 -25.396   5.141  0.00  0.00    -0.251 OA
BRANCH  12  14
ATOM     14  O   LIG    1       24.706 -23.299   4.809  0.00  0.00    -0.481 OA
ATOM     15  H   LIG    1       24.373 -22.537   5.319  0.00  0.00    +0.295 HD
ENDBRANCH  12  14
ENDBRANCH  11  12
ENDBRANCH  10  11
ENDBRANCH   9  10
ENDBRANCH   1   9
TORSDOF 10
ENDMDL
MODEL 9
REMARK VINA RESULT:      -5.8      2.018      5.612
REMARK  Name = *****
REMARK                            x       y       z     vdW  Elec       q    Type
REMARK                         _______ _______ _______ _____ _____    ______ ____
ROOT
ATOM      1  C   LIG    1       28.412 -20.089   6.337  0.00  0.00    +0.000 C 
ENDROOT
BRANCH   1   2
ATOM      2  C   LIG    1       29.482 -19.008   6.172  0.00  0.00    +0.000 C 
BRANCH   2   3
ATOM      3  C   LIG    1       30.660 -19.251   7.116  0.00  0.00    +0.011 C 
BRANCH   3   4
ATOM      4  C   LIG    1       30.419 -20.463   8.006  0.00  0.00    +0.120 C 
BRANCH   4   6
ATOM      5  O   LIG    1       31.948 -21.754   9.349  0.00  0.00    -0.251 OA
ATOM      6  C   LIG    1       31.573 -20.662   8.953  0.00  0.00    +0.305 C 
BRANCH   6   7
ATOM      7  O   LIG    1       32.140 -19.507   9.362  0.00  0.00    -0.481 OA
ATOM      8  H   LIG    1       33.032 -19.613   9.740  0.00  0.00    +0.295 HD
ENDBRANCH   6   7
ENDBRANCH   4   6
ENDBRANCH   3   4
ENDBRANCH   2   3
ENDBRANCH   1   2
BRANCH   1   9
ATOM      9  C   LIG    1       27.230 -19.864   5.392  0.00  0.00    +0.000 C 
BRANCH   9  10
ATOM     10  C   LIG    1       25.969 -20.553   5.917  0.00  0.00    +0.011 C 
BRANCH  10  11
ATOM     11  C   LIG    1       26.279 -21.502   7.075  0.00  0.00    +0.120 C 
BRANCH  11  12
ATOM     12  C   LIG    1       25.461 -21.172   8.303  0.00  0.00    +0.305 C 
ATOM     13  O   LIG    1       25.903 -20.744   9.356  0.00  0.00    -0.251 OA
BRANCH  12  14
ATOM     14  O   LIG    1       24.139 -21.403   8.117  0.00  0.00    -0.481 OA
ATOM     15  H   LIG    1       23.903 -21.628   7.198  0.00  0.00    +0.295 HD
ENDBRANCH  12  14
ENDBRANCH  11  12
ENDBRANCH  10  11
ENDBRANCH   9  10
ENDBRANCH   1   9
TORSDOF 10
ENDMDL
