MODEL 1
REMARK VINA RESULT:      -8.2      0.000      0.000
REMARK  Name = *****
REMARK                            x       y       z     vdW  Elec       q    Type
REMARK                         _______ _______ _______ _____ _____    ______ ____
ROOT
ATOM      1  O   LIG    1       28.108 -21.259   7.101  0.00  0.00    -0.459 OA
ENDROOT
BRANCH   1   6
ATOM      2  C   LIG    1       23.323 -20.412   6.906  0.00  0.00    +0.192 C 
ATOM      3  N   LIG    1       24.137 -21.692   6.973  0.00  0.00    +0.243 N 
ATOM      4  C   LIG    1       25.102 -21.848   8.159  0.00  0.00    +0.070 C 
ATOM      5  C   LIG    1       26.037 -20.628   8.293  0.00  0.00    +0.099 C 
ATOM      6  C   LIG    1       26.922 -20.387   7.055  0.00  0.00    +0.187 C 
ATOM      7  C   LIG    1       26.138 -20.666   5.746  0.00  0.00    +0.099 C 
ATOM      8  C   LIG    1       25.916 -23.092   7.749  0.00  0.00    +0.060 C 
ATOM      9  C   LIG    1       25.890 -23.120   6.210  0.00  0.00    +0.060 C 
ATOM     10  C   LIG    1       25.139 -21.853   5.811  0.00  0.00    +0.070 C 
ATOM     11  C   LIG    1       23.066 -22.835   7.007  0.00  0.00    +0.192 C 
ENDBRANCH   1   6
BRANCH   1  12
ATOM     12  C   LIG    1       29.182 -20.787   7.878  0.00  0.00    +0.341 C 
ATOM     13  O   LIG    1       29.742 -21.471   8.717  0.00  0.00    -0.247 OA
BRANCH  12  14
ATOM     14  C   LIG    1       29.631 -19.326   7.472  0.00  0.00    +0.253 C 
BRANCH  14  15
ATOM     15  C   LIG    1       30.331 -18.489   8.541  0.00  0.00    -0.008 A 
ATOM     16  C   LIG    1       31.668 -18.099   8.339  0.00  0.00    +0.007 A 
ATOM     17  C   LIG    1       32.342 -17.266   9.227  0.00  0.00    +0.000 A 
ATOM     18  C   LIG    1       31.720 -16.843  10.391  0.00  0.00    +0.000 A 
ATOM     19  C   LIG    1       30.405 -17.231  10.642  0.00  0.00    +0.000 A 
ATOM     20  C   LIG    1       29.702 -18.027   9.714  0.00  0.00    +0.007 A 
ENDBRANCH  14  15
BRANCH  14  21
ATOM     21  O   LIG    1       30.457 -19.373   6.297  0.00  0.00    -0.376 OA
ATOM     22  H   LIG    1       30.173 -20.125   5.747  0.00  0.00    +0.211 HD
ENDBRANCH  14  21
ENDBRANCH  12  14
ENDBRANCH   1  12
TORSDOF 5
ENDMDL
MODEL 2
REMARK VINA RESULT:      -8.0      0.900      1.924
REMARK  Name = *****
REMARK                            x       y       z     vdW  Elec       q    Type
REMARK                         _______ _______ _______ _____ _____    ______ ____
ROOT
ATOM      1  O   LIG    1       28.234 -20.466   7.970  0.00  0.00    -0.459 OA
ENDROOT
BRANCH   1   6
ATOM      2  C   LIG    1       24.868 -22.725   5.282  0.00  0.00    +0.192 C 
ATOM      3  N   LIG    1       24.833 -22.117   6.674  0.00  0.00    +0.243 N 
ATOM      4  C   LIG    1       25.217 -20.634   6.801  0.00  0.00    +0.070 C 
ATOM      5  C   LIG    1       26.579 -20.342   6.139  0.00  0.00    +0.099 C 
ATOM      6  C   LIG    1       27.749 -21.136   6.752  0.00  0.00    +0.187 C 
ATOM      7  C   LIG    1       27.314 -22.582   7.108  0.00  0.00    +0.099 C 
ATOM      8  C   LIG    1       25.325 -20.461   8.330  0.00  0.00    +0.060 C 
ATOM      9  C   LIG    1       25.698 -21.850   8.881  0.00  0.00    +0.060 C 
ATOM     10  C   LIG    1       25.865 -22.728   7.645  0.00  0.00    +0.070 C 
ATOM     11  C   LIG    1       23.357 -22.327   7.154  0.00  0.00    +0.192 C 
ENDBRANCH   1   6
BRANCH   1  12
ATOM     12  C   LIG    1       29.617 -20.565   8.211  0.00  0.00    +0.341 C 
ATOM     13  O   LIG    1       30.130 -21.542   8.727  0.00  0.00    -0.247 OA
BRANCH  12  14
ATOM     14  C   LIG    1       30.421 -19.322   7.655  0.00  0.00    +0.253 C 
BRANCH  14  15
ATOM     15  C   LIG    1       30.874 -18.273   8.670  0.00  0.00    -0.008 A 
ATOM     16  C   LIG    1       30.000 -17.904   9.708  0.00  0.00    +0.007 A 
ATOM     17  C   LIG    1       30.374 -17.021  10.717  0.00  0.00    +0.000 A 
ATOM     18  C   LIG    1       31.624 -16.422  10.687  0.00  0.00    +0.000 A 
ATOM     19  C   LIG    1       32.509 -16.741   9.659  0.00  0.00    +0.000 A 
ATOM     20  C   LIG    1       32.152 -17.679   8.669  0.00  0.00    +0.007 A 
ENDBRANCH  14  15
BRANCH  14  21
ATOM     21  O   LIG    1       31.560 -19.770   6.902  0.00  0.00    -0.376 OA
ATOM     22  H   LIG    1       31.882 -20.603   7.291  0.00  0.00    +0.211 HD
ENDBRANCH  14  21
ENDBRANCH  12  14
ENDBRANCH   1  12
TORSDOF 5
ENDMDL
MODEL 3
REMARK VINA RESULT:      -7.9      0.720      1.630
REMARK  Name = *****
REMARK                            x       y       z     vdW  Elec       q    Type
REMARK                         _______ _______ _______ _____ _____    ______ ____
ROOT
ATOM      1  O   LIG    1       27.737 -21.031   6.879  0.00  0.00    -0.459 OA
ENDROOT
BRANCH   1   6
ATOM      2  C   LIG    1       22.892 -20.891   6.479  0.00  0.00    +0.192 C 
ATOM      3  N   LIG    1       23.871 -22.028   6.714  0.00  0.00    +0.243 N 
ATOM      4  C   LIG    1       24.802 -21.911   7.931  0.00  0.00    +0.070 C 
ATOM      5  C   LIG    1       25.555 -20.565   7.942  0.00  0.00    +0.099 C 
ATOM      6  C   LIG    1       26.446 -20.344   6.704  0.00  0.00    +0.187 C 
ATOM      7  C   LIG    1       25.758 -20.878   5.420  0.00  0.00    +0.099 C 
ATOM      8  C   LIG    1       25.793 -23.068   7.689  0.00  0.00    +0.060 C 
ATOM      9  C   LIG    1       25.830 -23.273   6.163  0.00  0.00    +0.060 C 
ATOM     10  C   LIG    1       24.929 -22.178   5.602  0.00  0.00    +0.070 C 
ATOM     11  C   LIG    1       22.966 -23.299   6.858  0.00  0.00    +0.192 C 
ENDBRANCH   1   6
BRANCH   1  12
ATOM     12  C   LIG    1       28.880 -20.264   6.583  0.00  0.00    +0.341 C 
ATOM     13  O   LIG    1       28.941 -19.510   5.629  0.00  0.00    -0.247 OA
BRANCH  12  14
ATOM     14  C   LIG    1       30.017 -20.424   7.671  0.00  0.00    +0.253 C 
BRANCH  14  15
ATOM     15  C   LIG    1       30.505 -19.151   8.361  0.00  0.00    -0.008 A 
ATOM     16  C   LIG    1       29.658 -18.503   9.279  0.00  0.00    +0.007 A 
ATOM     17  C   LIG    1       30.066 -17.389  10.009  0.00  0.00    +0.000 A 
ATOM     18  C   LIG    1       31.321 -16.842   9.797  0.00  0.00    +0.000 A 
ATOM     19  C   LIG    1       32.179 -17.438   8.875  0.00  0.00    +0.000 A 
ATOM     20  C   LIG    1       31.789 -18.600   8.177  0.00  0.00    +0.007 A 
ENDBRANCH  14  15
BRANCH  14  21
ATOM     21  O   LIG    1       29.613 -21.374   8.670  0.00  0.00    -0.376 OA
ATOM     22  H   LIG    1       29.976 -22.247   8.434  0.00  0.00    +0.211 HD
ENDBRANCH  14  21
ENDBRANCH  12  14
ENDBRANCH   1  12
TORSDOF 5
ENDMDL
MODEL 4
REMARK VINA RESULT:      -7.1      0.913      2.105
REMARK  Name = *****
REMARK                            x       y       z     vdW  Elec       q    Type
REMARK                         _______ _______ _______ _____ _____    ______ ____
ROOT
ATOM      1  O   LIG    1       27.669 -21.772   6.930  0.00  0.00    -0.459 OA
ENDROOT
BRANCH   1   6
ATOM      2  C   LIG    1       22.892 -22.523   7.446  0.00  0.00    +0.192 C 
ATOM      3  N   LIG    1       23.704 -21.743   6.428  0.00  0.00    +0.243 N 
ATOM      4  C   LIG    1       24.785 -22.515   5.654  0.00  0.00    +0.070 C 
ATOM      5  C   LIG    1       25.732 -23.273   6.606  0.00  0.00    +0.099 C 
ATOM      6  C   LIG    1       26.488 -22.356   7.588  0.00  0.00    +0.187 C 
ATOM      7  C   LIG    1       25.573 -21.212   8.097  0.00  0.00    +0.099 C 
ATOM      8  C   LIG    1       25.549 -21.376   4.947  0.00  0.00    +0.060 C 
ATOM      9  C   LIG    1       25.366 -20.135   5.841  0.00  0.00    +0.060 C 
ATOM     10  C   LIG    1       24.582 -20.637   7.049  0.00  0.00    +0.070 C 
ATOM     11  C   LIG    1       22.639 -21.176   5.430  0.00  0.00    +0.192 C 
ENDBRANCH   1   6
BRANCH   1  12
ATOM     12  C   LIG    1       28.572 -21.105   7.779  0.00  0.00    +0.341 C 
ATOM     13  O   LIG    1       29.173 -21.668   8.678  0.00  0.00    -0.247 OA
BRANCH  12  14
ATOM     14  C   LIG    1       28.783 -19.591   7.374  0.00  0.00    +0.253 C 
BRANCH  14  15
ATOM     15  C   LIG    1       29.898 -18.827   8.087  0.00  0.00    -0.008 A 
ATOM     16  C   LIG    1       29.601 -18.132   9.273  0.00  0.00    +0.007 A 
ATOM     17  C   LIG    1       30.581 -17.486  10.022  0.00  0.00    +0.000 A 
ATOM     18  C   LIG    1       31.892 -17.458   9.573  0.00  0.00    +0.000 A 
ATOM     19  C   LIG    1       32.221 -18.111   8.387  0.00  0.00    +0.000 A 
ATOM     20  C   LIG    1       31.240 -18.815   7.658  0.00  0.00    +0.007 A 
ENDBRANCH  14  15
BRANCH  14  21
ATOM     21  O   LIG    1       28.973 -19.484   5.954  0.00  0.00    -0.376 OA
ATOM     22  H   LIG    1       28.132 -19.210   5.547  0.00  0.00    +0.211 HD
ENDBRANCH  14  21
ENDBRANCH  12  14
ENDBRANCH   1  12
TORSDOF 5
ENDMDL
MODEL 5
REMARK VINA RESULT:      -6.8      6.601      9.521
REMARK  Name = *****
REMARK                            x       y       z     vdW  Elec       q    Type
REMARK                         _______ _______ _______ _____ _____    ______ ____
ROOT
ATOM      1  O   LIG    1       25.223 -28.758   7.475  0.00  0.00    -0.459 OA
ENDROOT
BRANCH   1   6
ATOM      2  C   LIG    1       24.594 -32.678  10.285  0.00  0.00    +0.192 C 
ATOM      3  N   LIG    1       25.317 -31.361  10.507  0.00  0.00    +0.243 N 
ATOM      4  C   LIG    1       24.494 -30.073  10.345  0.00  0.00    +0.070 C 
ATOM      5  C   LIG    1       23.753 -30.040   8.993  0.00  0.00    +0.099 C 
ATOM      6  C   LIG    1       24.690 -30.099   7.771  0.00  0.00    +0.187 C 
ATOM      7  C   LIG    1       25.873 -31.070   8.023  0.00  0.00    +0.099 C 
ATOM      8  C   LIG    1       25.588 -28.986  10.374  0.00  0.00    +0.060 C 
ATOM      9  C   LIG    1       26.866 -29.668   9.852  0.00  0.00    +0.060 C 
ATOM     10  C   LIG    1       26.428 -31.080   9.474  0.00  0.00    +0.070 C 
ATOM     11  C   LIG    1       25.868 -31.459  11.970  0.00  0.00    +0.192 C 
ENDBRANCH   1   6
BRANCH   1  12
ATOM     12  C   LIG    1       24.888 -28.233   6.213  0.00  0.00    +0.341 C 
ATOM     13  O   LIG    1       24.007 -28.704   5.515  0.00  0.00    -0.247 OA
BRANCH  12  14
ATOM     14  C   LIG    1       25.707 -26.927   5.860  0.00  0.00    +0.253 C 
BRANCH  14  15
ATOM     15  C   LIG    1       25.127 -25.593   6.326  0.00  0.00    -0.008 A 
ATOM     16  C   LIG    1       25.999 -24.595   6.799  0.00  0.00    +0.007 A 
ATOM     17  C   LIG    1       25.552 -23.327   7.159  0.00  0.00    +0.000 A 
ATOM     18  C   LIG    1       24.199 -23.030   7.120  0.00  0.00    +0.000 A 
ATOM     19  C   LIG    1       23.300 -24.001   6.684  0.00  0.00    +0.000 A 
ATOM     20  C   LIG    1       23.757 -25.267   6.264  0.00  0.00    +0.007 A 
ENDBRANCH  14  15
BRANCH  14  21
ATOM     21  O   LIG    1       27.055 -27.047   6.342  0.00  0.00    -0.376 OA
ATOM     22  H   LIG    1       27.259 -27.992   6.465  0.00  0.00    +0.211 HD
ENDBRANCH  14  21
ENDBRANCH  12  14
ENDBRANCH   1  12
TORSDOF 5
ENDMDL
MODEL 6
REMARK VINA RESULT:      -6.8      4.767      7.845
REMARK  Name = *****
REMARK                            x       y       z     vdW  Elec       q    Type
REMARK                         _______ _______ _______ _____ _____    ______ ____
ROOT
ATOM      1  O   LIG    1       24.749 -23.286   6.855  0.00  0.00    -0.459 OA
ENDROOT
BRANCH   1   6
ATOM      2  C   LIG    1       24.988 -19.680   3.601  0.00  0.00    +0.192 C 
ATOM      3  N   LIG    1       23.987 -20.012   4.694  0.00  0.00    +0.243 N 
ATOM      4  C   LIG    1       24.530 -20.137   6.127  0.00  0.00    +0.070 C 
ATOM      5  C   LIG    1       25.723 -21.112   6.198  0.00  0.00    +0.099 C 
ATOM      6  C   LIG    1       25.379 -22.546   5.749  0.00  0.00    +0.187 C 
ATOM      7  C   LIG    1       24.415 -22.532   4.534  0.00  0.00    +0.099 C 
ATOM      8  C   LIG    1       23.320 -20.728   6.878  0.00  0.00    +0.060 C 
ATOM      9  C   LIG    1       22.518 -21.515   5.824  0.00  0.00    +0.060 C 
ATOM     10  C   LIG    1       23.346 -21.407   4.546  0.00  0.00    +0.070 C 
ATOM     11  C   LIG    1       22.934 -18.855   4.624  0.00  0.00    +0.192 C 
ENDBRANCH   1   6
BRANCH   1  12
ATOM     12  C   LIG    1       24.251 -24.562   6.529  0.00  0.00    +0.341 C 
ATOM     13  O   LIG    1       23.061 -24.823   6.514  0.00  0.00    -0.247 OA
BRANCH  12  14
ATOM     14  C   LIG    1       25.393 -25.569   6.100  0.00  0.00    +0.253 C 
BRANCH  14  15
ATOM     15  C   LIG    1       25.275 -27.009   6.596  0.00  0.00    -0.008 A 
ATOM     16  C   LIG    1       26.016 -27.406   7.725  0.00  0.00    +0.007 A 
ATOM     17  C   LIG    1       25.895 -28.674   8.286  0.00  0.00    +0.000 A 
ATOM     18  C   LIG    1       25.072 -29.619   7.693  0.00  0.00    +0.000 A 
ATOM     19  C   LIG    1       24.343 -29.274   6.557  0.00  0.00    +0.000 A 
ATOM     20  C   LIG    1       24.421 -27.971   6.022  0.00  0.00    +0.007 A 
ENDBRANCH  14  15
BRANCH  14  21
ATOM     21  O   LIG    1       25.531 -25.575   4.669  0.00  0.00    -0.376 OA
ATOM     22  H   LIG    1       24.710 -25.229   4.276  0.00  0.00    +0.211 HD
ENDBRANCH  14  21
ENDBRANCH  12  14
ENDBRANCH   1  12
TORSDOF 5
ENDMDL
MODEL 7
REMARK VINA RESULT:      -6.5      6.529      9.436
REMARK  Name = *****
REMARK                            x       y       z     vdW  Elec       q    Type
REMARK                         _______ _______ _______ _____ _____    ______ ____
ROOT
ATOM      1  O   LIG    1       25.814 -29.013   6.645  0.00  0.00    -0.459 OA
ENDROOT
BRANCH   1   6
ATOM      2  C   LIG    1       24.490 -30.271  11.152  0.00  0.00    +0.192 C 
ATOM      3  N   LIG    1       25.166 -31.037  10.029  0.00  0.00    +0.243 N 
ATOM      4  C   LIG    1       26.474 -30.454   9.471  0.00  0.00    +0.070 C 
ATOM      5  C   LIG    1       26.307 -28.975   9.066  0.00  0.00    +0.099 C 
ATOM      6  C   LIG    1       25.242 -28.747   7.975  0.00  0.00    +0.187 C 
ATOM      7  C   LIG    1       24.015 -29.670   8.194  0.00  0.00    +0.099 C 
ATOM      8  C   LIG    1       26.703 -31.321   8.216  0.00  0.00    +0.060 C 
ATOM      9  C   LIG    1       25.303 -31.780   7.766  0.00  0.00    +0.060 C 
ATOM     10  C   LIG    1       24.340 -31.092   8.728  0.00  0.00    +0.070 C 
ATOM     11  C   LIG    1       25.434 -32.458  10.632  0.00  0.00    +0.192 C 
ENDBRANCH   1   6
BRANCH   1  12
ATOM     12  C   LIG    1       25.169 -28.379   5.566  0.00  0.00    +0.341 C 
ATOM     13  O   LIG    1       24.139 -28.803   5.070  0.00  0.00    -0.247 OA
BRANCH  12  14
ATOM     14  C   LIG    1       25.872 -27.026   5.147  0.00  0.00    +0.253 C 
BRANCH  14  15
ATOM     15  C   LIG    1       25.370 -25.744   5.810  0.00  0.00    -0.008 A 
ATOM     16  C   LIG    1       23.984 -25.517   5.898  0.00  0.00    +0.007 A 
ATOM     17  C   LIG    1       23.451 -24.416   6.563  0.00  0.00    +0.000 A 
ATOM     18  C   LIG    1       24.294 -23.462   7.111  0.00  0.00    +0.000 A 
ATOM     19  C   LIG    1       25.674 -23.637   7.020  0.00  0.00    +0.000 A 
ATOM     20  C   LIG    1       26.214 -24.781   6.398  0.00  0.00    +0.007 A 
ENDBRANCH  14  15
BRANCH  14  21
ATOM     21  O   LIG    1       27.293 -27.130   5.340  0.00  0.00    -0.376 OA
ATOM     22  H   LIG    1       27.739 -26.600   4.655  0.00  0.00    +0.211 HD
ENDBRANCH  14  21
ENDBRANCH  12  14
ENDBRANCH   1  12
TORSDOF 5
ENDMDL
MODEL 8
REMARK VINA RESULT:      -6.4      7.264     10.220
REMARK  Name = *****
REMARK                            x       y       z     vdW  Elec       q    Type
REMARK                         _______ _______ _______ _____ _____    ______ ____
ROOT
ATOM      1  O   LIG    1       25.006 -29.270   7.322  0.00  0.00    -0.459 OA
ENDROOT
BRANCH   1   6
ATOM      2  C   LIG    1       25.405 -33.509   9.671  0.00  0.00    +0.192 C 
ATOM      3  N   LIG    1       24.713 -32.203  10.020  0.00  0.00    +0.243 N 
ATOM      4  C   LIG    1       23.665 -31.677   9.026  0.00  0.00    +0.070 C 
ATOM      5  C   LIG    1       24.232 -31.601   7.593  0.00  0.00    +0.099 C 
ATOM      6  C   LIG    1       25.450 -30.667   7.458  0.00  0.00    +0.187 C 
ATOM      7  C   LIG    1       26.382 -30.785   8.692  0.00  0.00    +0.099 C 
ATOM      8  C   LIG    1       23.397 -30.257   9.563  0.00  0.00    +0.060 C 
ATOM      9  C   LIG    1       24.691 -29.832  10.282  0.00  0.00    +0.060 C 
ATOM     10  C   LIG    1       25.661 -30.987  10.052  0.00  0.00    +0.070 C 
ATOM     11  C   LIG    1       24.038 -32.476  11.407  0.00  0.00    +0.192 C 
ENDBRANCH   1   6
BRANCH   1  12
ATOM     12  C   LIG    1       24.380 -28.945   6.103  0.00  0.00    +0.341 C 
ATOM     13  O   LIG    1       23.322 -29.436   5.753  0.00  0.00    -0.247 OA
BRANCH  12  14
ATOM     14  C   LIG    1       25.150 -27.817   5.306  0.00  0.00    +0.253 C 
BRANCH  14  15
ATOM     15  C   LIG    1       25.054 -26.391   5.848  0.00  0.00    -0.008 A 
ATOM     16  C   LIG    1       23.789 -25.785   5.956  0.00  0.00    +0.007 A 
ATOM     17  C   LIG    1       23.614 -24.524   6.520  0.00  0.00    +0.000 A 
ATOM     18  C   LIG    1       24.715 -23.792   6.937  0.00  0.00    +0.000 A 
ATOM     19  C   LIG    1       25.988 -24.346   6.819  0.00  0.00    +0.000 A 
ATOM     20  C   LIG    1       26.160 -25.647   6.303  0.00  0.00    +0.007 A 
ENDBRANCH  14  15
BRANCH  14  21
ATOM     21  O   LIG    1       26.535 -28.172   5.164  0.00  0.00    -0.376 OA
ATOM     22  H   LIG    1       26.776 -28.780   5.887  0.00  0.00    +0.211 HD
ENDBRANCH  14  21
ENDBRANCH  12  14
ENDBRANCH   1  12
TORSDOF 5
ENDMDL
MODEL 9
REMARK VINA RESULT:      -6.4      6.517      9.173
REMARK  Name = *****
REMARK                            x       y       z     vdW  Elec       q    Type
REMARK                         _______ _______ _______ _____ _____    ______ ____
ROOT
ATOM      1  O   LIG    1       25.677 -28.370   6.442  0.00  0.00    -0.459 OA
ENDROOT
BRANCH   1   6
ATOM      2  C   LIG    1       23.725 -32.757   5.669  0.00  0.00    +0.192 C 
ATOM      3  N   LIG    1       24.390 -32.129   6.880  0.00  0.00    +0.243 N 
ATOM      4  C   LIG    1       23.787 -30.817   7.410  0.00  0.00    +0.070 C 
ATOM      5  C   LIG    1       23.644 -29.767   6.289  0.00  0.00    +0.099 C 
ATOM      6  C   LIG    1       24.981 -29.381   5.627  0.00  0.00    +0.187 C 
ATOM      7  C   LIG    1       25.898 -30.620   5.463  0.00  0.00    +0.099 C 
ATOM      8  C   LIG    1       24.852 -30.361   8.427  0.00  0.00    +0.060 C 
ATOM      9  C   LIG    1       26.183 -30.958   7.933  0.00  0.00    +0.060 C 
ATOM     10  C   LIG    1       25.834 -31.653   6.620  0.00  0.00    +0.070 C 
ATOM     11  C   LIG    1       24.311 -33.234   7.987  0.00  0.00    +0.192 C 
ENDBRANCH   1   6
BRANCH   1  12
ATOM     12  C   LIG    1       25.717 -27.072   5.899  0.00  0.00    +0.341 C 
ATOM     13  O   LIG    1       26.655 -26.661   5.239  0.00  0.00    -0.247 OA
BRANCH  12  14
ATOM     14  C   LIG    1       24.384 -26.262   6.162  0.00  0.00    +0.253 C 
BRANCH  14  15
ATOM     15  C   LIG    1       24.529 -24.819   6.643  0.00  0.00    -0.008 A 
ATOM     16  C   LIG    1       25.802 -24.345   7.012  0.00  0.00    +0.007 A 
ATOM     17  C   LIG    1       26.025 -23.020   7.377  0.00  0.00    +0.000 A 
ATOM     18  C   LIG    1       24.964 -22.132   7.450  0.00  0.00    +0.000 A 
ATOM     19  C   LIG    1       23.683 -22.570   7.119  0.00  0.00    +0.000 A 
ATOM     20  C   LIG    1       23.465 -23.897   6.693  0.00  0.00    +0.007 A 
ENDBRANCH  14  15
BRANCH  14  21
ATOM     21  O   LIG    1       23.555 -26.285   4.988  0.00  0.00    -0.376 OA
ATOM     22  H   LIG    1       22.875 -26.973   5.101  0.00  0.00    +0.211 HD
ENDBRANCH  14  21
ENDBRANCH  12  14
ENDBRANCH   1  12
TORSDOF 5
ENDMDL
