MODEL 1
REMARK VINA RESULT:     -10.7      0.000      0.000
REMARK  Name = *****
REMARK                            x       y       z     vdW  Elec       q    Type
REMARK                         _______ _______ _______ _____ _____    ______ ____
ROOT
ATOM      1  C   LIG    1       27.750 -20.293   6.131  0.00  0.00    -0.016 A 
ATOM      2  C   LIG    1       26.886 -21.127   6.857  0.00  0.00    +0.011 A 
ATOM      3  C   LIG    1       25.548 -21.344   6.462  0.00  0.00    -0.024 A 
ATOM      4  C   LIG    1       25.086 -20.675   5.313  0.00  0.00    +0.044 A 
ATOM      5 CL   LIG    1       23.484 -20.902   4.704  0.00  0.00    -0.083 Cl
ATOM      6  C   LIG    1       25.919 -19.806   4.608  0.00  0.00    +0.020 A 
ATOM      7  C   LIG    1       27.239 -19.619   5.013  0.00  0.00    +0.008 A 
ENDROOT
BRANCH   1  12
ATOM      8  C   LIG    1       30.736 -21.021   8.188  0.00  0.00    +0.175 C 
ATOM      9  C   LIG    1       30.986 -19.626   8.764  0.00  0.00    +0.176 C 
ATOM     10  C   LIG    1       30.891 -18.607   7.632  0.00  0.00    +0.177 C 
ATOM     11  C   LIG    1       29.545 -18.699   6.904  0.00  0.00    +0.179 C 
ATOM     12  C   LIG    1       29.220 -20.165   6.519  0.00  0.00    +0.180 C 
ATOM     13  O   LIG    1       29.423 -21.060   7.616  0.00  0.00    -0.361 OA
BRANCH   9  14
ATOM     14  O   LIG    1       32.270 -19.529   9.383  0.00  0.00    -0.387 OA
ATOM     15  H   LIG    1       32.500 -20.449   9.631  0.00  0.00    +0.210 HD
ENDBRANCH   9  14
BRANCH  10  16
ATOM     16  O   LIG    1       31.066 -17.288   8.179  0.00  0.00    -0.387 OA
ATOM     17  H   LIG    1       30.284 -17.147   8.751  0.00  0.00    +0.210 HD
ENDBRANCH  10  16
BRANCH  11  18
ATOM     18  O   LIG    1       29.638 -17.827   5.762  0.00  0.00    -0.386 OA
ATOM     19  H   LIG    1       28.824 -17.293   5.731  0.00  0.00    +0.210 HD
ENDBRANCH  11  18
BRANCH   8  20
ATOM     20  C   LIG    1       30.815 -22.092   9.284  0.00  0.00    +0.190 C 
BRANCH  20  21
ATOM     21  O   LIG    1       31.841 -23.038   8.974  0.00  0.00    -0.392 OA
ATOM     22  H   LIG    1       31.468 -23.921   9.129  0.00  0.00    +0.209 HD
ENDBRANCH  20  21
ENDBRANCH   8  20
ENDBRANCH   1  12
BRANCH   3  23
ATOM     23  C   LIG    1       24.621 -22.265   7.240  0.00  0.00    +0.071 C 
BRANCH  23  24
ATOM     24  C   LIG    1       24.738 -23.741   6.926  0.00  0.00    -0.043 A 
ATOM     25  C   LIG    1       23.633 -24.477   6.466  0.00  0.00    +0.007 A 
ATOM     26  C   LIG    1       23.791 -25.819   6.093  0.00  0.00    +0.046 A 
ATOM     27  C   LIG    1       25.035 -26.447   6.166  0.00  0.00    +0.121 A 
ATOM     28  C   LIG    1       26.133 -25.705   6.615  0.00  0.00    +0.046 A 
ATOM     29  C   LIG    1       25.980 -24.371   6.998  0.00  0.00    +0.007 A 
BRANCH  27  30
ATOM     30  O   LIG    1       25.063 -27.767   5.791  0.00  0.00    -0.486 OA
BRANCH  30  31
ATOM     31  C   LIG    1       24.245 -28.691   6.521  0.00  0.00    +0.201 C 
ATOM     32  C   LIG    1       24.974 -29.220   7.750  0.00  0.00    +0.204 C 
ATOM     33  O   LIG    1       25.720 -30.383   7.346  0.00  0.00    -0.376 OA
ATOM     34  C   LIG    1       25.293 -30.762   6.032  0.00  0.00    +0.163 C 
ATOM     35  C   LIG    1       24.056 -29.954   5.711  0.00  0.00    +0.075 C 
ENDBRANCH  30  31
ENDBRANCH  27  30
ENDBRANCH  23  24
ENDBRANCH   3  23
TORSDOF 10
ENDMDL
MODEL 2
REMARK VINA RESULT:      -9.4      1.469      2.075
REMARK  Name = *****
REMARK                            x       y       z     vdW  Elec       q    Type
REMARK                         _______ _______ _______ _____ _____    ______ ____
ROOT
ATOM      1  C   LIG    1       26.960 -21.648   7.075  0.00  0.00    -0.016 A 
ATOM      2  C   LIG    1       26.400 -22.686   6.314  0.00  0.00    +0.011 A 
ATOM      3  C   LIG    1       25.026 -23.004   6.379  0.00  0.00    -0.024 A 
ATOM      4  C   LIG    1       24.219 -22.255   7.255  0.00  0.00    +0.044 A 
ATOM      5 CL   LIG    1       22.516 -22.518   7.381  0.00  0.00    -0.083 Cl
ATOM      6  C   LIG    1       24.771 -21.251   8.052  0.00  0.00    +0.020 A 
ATOM      7  C   LIG    1       26.128 -20.950   7.961  0.00  0.00    +0.008 A 
ENDROOT
BRANCH   1  12
ATOM      8  C   LIG    1       30.436 -21.130   8.226  0.00  0.00    +0.175 C 
ATOM      9  C   LIG    1       30.536 -19.615   8.041  0.00  0.00    +0.176 C 
ATOM     10  C   LIG    1       29.971 -19.254   6.670  0.00  0.00    +0.177 C 
ATOM     11  C   LIG    1       28.535 -19.764   6.500  0.00  0.00    +0.179 C 
ATOM     12  C   LIG    1       28.425 -21.257   6.902  0.00  0.00    +0.180 C 
ATOM     13  O   LIG    1       29.060 -21.518   8.157  0.00  0.00    -0.361 OA
BRANCH   9  14
ATOM     14  O   LIG    1       31.885 -19.155   8.134  0.00  0.00    -0.387 OA
ATOM     15  H   LIG    1       32.404 -19.948   8.385  0.00  0.00    +0.210 HD
ENDBRANCH   9  14
BRANCH  10  16
ATOM     16  O   LIG    1       30.007 -17.823   6.515  0.00  0.00    -0.387 OA
ATOM     17  H   LIG    1       30.739 -17.657   5.886  0.00  0.00    +0.210 HD
ENDBRANCH  10  16
BRANCH  11  18
ATOM     18  O   LIG    1       28.176 -19.525   5.128  0.00  0.00    -0.386 OA
ATOM     19  H   LIG    1       28.925 -19.806   4.572  0.00  0.00    +0.210 HD
ENDBRANCH  11  18
BRANCH   8  20
ATOM     20  C   LIG    1       30.987 -21.555   9.594  0.00  0.00    +0.190 C 
BRANCH  20  21
ATOM     21  O   LIG    1       32.416 -21.586   9.560  0.00  0.00    -0.392 OA
ATOM     22  H   LIG    1       32.674 -21.734   8.635  0.00  0.00    +0.209 HD
ENDBRANCH  20  21
ENDBRANCH   8  20
ENDBRANCH   1  12
BRANCH   3  23
ATOM     23  C   LIG    1       24.420 -24.117   5.537  0.00  0.00    +0.071 C 
BRANCH  23  24
ATOM     24  C   LIG    1       24.684 -25.528   6.016  0.00  0.00    -0.043 A 
ATOM     25  C   LIG    1       23.979 -26.621   5.485  0.00  0.00    +0.007 A 
ATOM     26  C   LIG    1       24.308 -27.926   5.878  0.00  0.00    +0.046 A 
ATOM     27  C   LIG    1       25.336 -28.167   6.791  0.00  0.00    +0.121 A 
ATOM     28  C   LIG    1       26.042 -27.074   7.308  0.00  0.00    +0.046 A 
ATOM     29  C   LIG    1       25.710 -25.772   6.928  0.00  0.00    +0.007 A 
BRANCH  27  30
ATOM     30  O   LIG    1       25.555 -29.482   7.112  0.00  0.00    -0.486 OA
BRANCH  30  31
ATOM     31  C   LIG    1       24.853 -30.485   6.364  0.00  0.00    +0.201 C 
ATOM     32  C   LIG    1       24.365 -31.607   7.270  0.00  0.00    +0.204 C 
ATOM     33  O   LIG    1       25.419 -32.583   7.361  0.00  0.00    -0.376 OA
ATOM     34  C   LIG    1       26.407 -32.277   6.371  0.00  0.00    +0.163 C 
ATOM     35  C   LIG    1       25.821 -31.219   5.463  0.00  0.00    +0.075 C 
ENDBRANCH  30  31
ENDBRANCH  27  30
ENDBRANCH  23  24
ENDBRANCH   3  23
TORSDOF 10
ENDMDL
MODEL 3
REMARK VINA RESULT:      -9.0      1.212      2.306
REMARK  Name = *****
REMARK                            x       y       z     vdW  Elec       q    Type
REMARK                         _______ _______ _______ _____ _____    ______ ____
ROOT
ATOM      1  C   LIG    1       27.681 -20.203   7.413  0.00  0.00    -0.016 A 
ATOM      2  C   LIG    1       26.556 -21.014   7.628  0.00  0.00    +0.011 A 
ATOM      3  C   LIG    1       25.609 -21.264   6.611  0.00  0.00    -0.024 A 
ATOM      4  C   LIG    1       25.812 -20.653   5.360  0.00  0.00    +0.044 A 
ATOM      5 CL   LIG    1       24.749 -20.926   4.024  0.00  0.00    -0.083 Cl
ATOM      6  C   LIG    1       26.901 -19.808   5.146  0.00  0.00    +0.020 A 
ATOM      7  C   LIG    1       27.827 -19.587   6.162  0.00  0.00    +0.008 A 
ENDROOT
BRANCH   1  12
ATOM      8  C   LIG    1       30.036 -18.280   9.519  0.00  0.00    +0.175 C 
ATOM      9  C   LIG    1       31.354 -18.877   9.026  0.00  0.00    +0.176 C 
ATOM     10  C   LIG    1       31.213 -20.396   8.978  0.00  0.00    +0.177 C 
ATOM     11  C   LIG    1       30.025 -20.824   8.110  0.00  0.00    +0.179 C 
ATOM     12  C   LIG    1       28.744 -20.040   8.496  0.00  0.00    +0.180 C 
ATOM     13  O   LIG    1       28.993 -18.636   8.605  0.00  0.00    -0.361 OA
BRANCH   9  14
ATOM     14  O   LIG    1       32.447 -18.529   9.878  0.00  0.00    -0.387 OA
ATOM     15  H   LIG    1       32.600 -17.575   9.714  0.00  0.00    +0.210 HD
ENDBRANCH   9  14
BRANCH  10  16
ATOM     16  O   LIG    1       32.432 -20.959   8.458  0.00  0.00    -0.387 OA
ATOM     17  H   LIG    1       33.142 -20.381   8.802  0.00  0.00    +0.210 HD
ENDBRANCH  10  16
BRANCH  11  18
ATOM     18  O   LIG    1       29.885 -22.246   8.280  0.00  0.00    -0.386 OA
ATOM     19  H   LIG    1       28.971 -22.484   8.042  0.00  0.00    +0.210 HD
ENDBRANCH  11  18
BRANCH   8  20
ATOM     20  C   LIG    1       30.115 -16.749   9.585  0.00  0.00    +0.190 C 
BRANCH  20  21
ATOM     21  O   LIG    1       30.325 -16.325  10.934  0.00  0.00    -0.392 OA
ATOM     22  H   LIG    1       29.553 -15.792  11.186  0.00  0.00    +0.209 HD
ENDBRANCH  20  21
ENDBRANCH   8  20
ENDBRANCH   1  12
BRANCH   3  23
ATOM     23  C   LIG    1       24.401 -22.159   6.843  0.00  0.00    +0.071 C 
BRANCH  23  24
ATOM     24  C   LIG    1       24.643 -23.647   6.698  0.00  0.00    -0.043 A 
ATOM     25  C   LIG    1       23.581 -24.538   6.467  0.00  0.00    +0.007 A 
ATOM     26  C   LIG    1       23.842 -25.897   6.243  0.00  0.00    +0.046 A 
ATOM     27  C   LIG    1       25.147 -26.390   6.240  0.00  0.00    +0.121 A 
ATOM     28  C   LIG    1       26.201 -25.495   6.460  0.00  0.00    +0.046 A 
ATOM     29  C   LIG    1       25.946 -24.142   6.694  0.00  0.00    +0.007 A 
BRANCH  27  30
ATOM     30  O   LIG    1       25.277 -27.739   6.028  0.00  0.00    -0.486 OA
BRANCH  30  31
ATOM     31  C   LIG    1       24.373 -28.618   6.709  0.00  0.00    +0.201 C 
ATOM     32  C   LIG    1       25.072 -29.357   7.843  0.00  0.00    +0.204 C 
ATOM     33  O   LIG    1       25.639 -30.560   7.293  0.00  0.00    -0.376 OA
ATOM     34  C   LIG    1       25.114 -30.748   5.974  0.00  0.00    +0.163 C 
ATOM     35  C   LIG    1       23.985 -29.759   5.795  0.00  0.00    +0.075 C 
ENDBRANCH  30  31
ENDBRANCH  27  30
ENDBRANCH  23  24
ENDBRANCH   3  23
TORSDOF 10
ENDMDL
MODEL 4
REMARK VINA RESULT:      -8.9      1.887      9.291
REMARK  Name = *****
REMARK                            x       y       z     vdW  Elec       q    Type
REMARK                         _______ _______ _______ _____ _____    ______ ____
ROOT
ATOM      1  C   LIG    1       24.654 -26.902   6.330  0.00  0.00    -0.016 A 
ATOM      2  C   LIG    1       24.428 -25.719   7.050  0.00  0.00    +0.011 A 
ATOM      3  C   LIG    1       24.483 -24.448   6.436  0.00  0.00    -0.024 A 
ATOM      4  C   LIG    1       24.795 -24.393   5.066  0.00  0.00    +0.044 A 
ATOM      5 CL   LIG    1       24.840 -22.900   4.196  0.00  0.00    -0.083 Cl
ATOM      6  C   LIG    1       25.068 -25.558   4.348  0.00  0.00    +0.020 A 
ATOM      7  C   LIG    1       24.996 -26.800   4.974  0.00  0.00    +0.008 A 
ENDROOT
BRANCH   1  12
ATOM      8  C   LIG    1       25.692 -29.723   8.485  0.00  0.00    +0.175 C 
ATOM      9  C   LIG    1       25.799 -30.819   7.423  0.00  0.00    +0.176 C 
ATOM     10  C   LIG    1       24.557 -30.763   6.538  0.00  0.00    +0.177 C 
ATOM     11  C   LIG    1       24.371 -29.374   5.917  0.00  0.00    +0.179 C 
ATOM     12  C   LIG    1       24.480 -28.265   6.994  0.00  0.00    +0.180 C 
ATOM     13  O   LIG    1       25.624 -28.450   7.833  0.00  0.00    -0.361 OA
BRANCH   9  14
ATOM     14  O   LIG    1       25.906 -32.118   8.010  0.00  0.00    -0.387 OA
ATOM     15  H   LIG    1       26.161 -32.708   7.270  0.00  0.00    +0.210 HD
ENDBRANCH   9  14
BRANCH  10  16
ATOM     16  O   LIG    1       24.682 -31.754   5.501  0.00  0.00    -0.387 OA
ATOM     17  H   LIG    1       24.055 -31.469   4.805  0.00  0.00    +0.210 HD
ENDBRANCH  10  16
BRANCH  11  18
ATOM     18  O   LIG    1       23.093 -29.390   5.256  0.00  0.00    -0.386 OA
ATOM     19  H   LIG    1       22.958 -30.283   4.892  0.00  0.00    +0.210 HD
ENDBRANCH  11  18
BRANCH   8  20
ATOM     20  C   LIG    1       26.918 -29.726   9.407  0.00  0.00    +0.190 C 
BRANCH  20  21
ATOM     21  O   LIG    1       26.925 -30.908  10.211  0.00  0.00    -0.392 OA
ATOM     22  H   LIG    1       27.742 -30.887  10.737  0.00  0.00    +0.209 HD
ENDBRANCH  20  21
ENDBRANCH   8  20
ENDBRANCH   1  12
BRANCH   3  23
ATOM     23  C   LIG    1       24.217 -23.169   7.216  0.00  0.00    +0.071 C 
BRANCH  23  24
ATOM     24  C   LIG    1       25.436 -22.347   7.575  0.00  0.00    -0.043 A 
ATOM     25  C   LIG    1       26.716 -22.703   7.115  0.00  0.00    +0.007 A 
ATOM     26  C   LIG    1       27.813 -21.874   7.383  0.00  0.00    +0.046 A 
ATOM     27  C   LIG    1       27.662 -20.687   8.101  0.00  0.00    +0.121 A 
ATOM     28  C   LIG    1       26.384 -20.333   8.547  0.00  0.00    +0.046 A 
ATOM     29  C   LIG    1       25.288 -21.161   8.292  0.00  0.00    +0.007 A 
BRANCH  27  30
ATOM     30  O   LIG    1       28.810 -19.967   8.317  0.00  0.00    -0.486 OA
BRANCH  30  31
ATOM     31  C   LIG    1       30.024 -20.438   7.715  0.00  0.00    +0.201 C 
ATOM     32  C   LIG    1       31.027 -20.879   8.773  0.00  0.00    +0.204 C 
ATOM     33  O   LIG    1       31.801 -19.725   9.146  0.00  0.00    -0.376 OA
ATOM     34  C   LIG    1       31.531 -18.676   8.210  0.00  0.00    +0.163 C 
ATOM     35  C   LIG    1       30.752 -19.283   7.066  0.00  0.00    +0.075 C 
ENDBRANCH  30  31
ENDBRANCH  27  30
ENDBRANCH  23  24
ENDBRANCH   3  23
TORSDOF 10
ENDMDL
MODEL 5
REMARK VINA RESULT:      -8.7      1.821      8.982
REMARK  Name = *****
REMARK                            x       y       z     vdW  Elec       q    Type
REMARK                         _______ _______ _______ _____ _____    ______ ____
ROOT
ATOM      1  C   LIG    1       23.939 -24.524   5.827  0.00  0.00    -0.016 A 
ATOM      2  C   LIG    1       24.755 -23.480   5.364  0.00  0.00    +0.011 A 
ATOM      3  C   LIG    1       24.599 -22.152   5.817  0.00  0.00    -0.024 A 
ATOM      4  C   LIG    1       23.574 -21.890   6.745  0.00  0.00    +0.044 A 
ATOM      5 CL   LIG    1       23.321 -20.315   7.409  0.00  0.00    -0.083 Cl
ATOM      6  C   LIG    1       22.725 -22.909   7.178  0.00  0.00    +0.020 A 
ATOM      7  C   LIG    1       22.908 -24.213   6.724  0.00  0.00    +0.008 A 
ENDROOT
BRANCH   1  12
ATOM      8  C   LIG    1       24.329 -28.156   6.405  0.00  0.00    +0.175 C 
ATOM      9  C   LIG    1       25.803 -28.310   6.029  0.00  0.00    +0.176 C 
ATOM     10  C   LIG    1       26.051 -27.568   4.718  0.00  0.00    +0.177 C 
ATOM     11  C   LIG    1       25.631 -26.098   4.816  0.00  0.00    +0.179 C 
ATOM     12  C   LIG    1       24.202 -25.966   5.403  0.00  0.00    +0.180 C 
ATOM     13  O   LIG    1       24.036 -26.765   6.578  0.00  0.00    -0.361 OA
BRANCH   9  14
ATOM     14  O   LIG    1       26.172 -29.682   5.875  0.00  0.00    -0.387 OA
ATOM     15  H   LIG    1       27.147 -29.692   5.964  0.00  0.00    +0.210 HD
ENDBRANCH   9  14
BRANCH  10  16
ATOM     16  O   LIG    1       27.450 -27.661   4.391  0.00  0.00    -0.387 OA
ATOM     17  H   LIG    1       27.871 -28.036   5.191  0.00  0.00    +0.210 HD
ENDBRANCH  10  16
BRANCH  11  18
ATOM     18  O   LIG    1       25.743 -25.552   3.489  0.00  0.00    -0.386 OA
ATOM     19  H   LIG    1       26.465 -24.898   3.497  0.00  0.00    +0.210 HD
ENDBRANCH  11  18
BRANCH   8  20
ATOM     20  C   LIG    1       24.017 -28.880   7.722  0.00  0.00    +0.190 C 
BRANCH  20  21
ATOM     21  O   LIG    1       23.652 -30.238   7.462  0.00  0.00    -0.392 OA
ATOM     22  H   LIG    1       23.924 -30.757   8.237  0.00  0.00    +0.209 HD
ENDBRANCH  20  21
ENDBRANCH   8  20
ENDBRANCH   1  12
BRANCH   3  23
ATOM     23  C   LIG    1       25.500 -21.027   5.328  0.00  0.00    +0.071 C 
BRANCH  23  24
ATOM     24  C   LIG    1       26.707 -20.724   6.189  0.00  0.00    -0.043 A 
ATOM     25  C   LIG    1       27.757 -19.920   5.714  0.00  0.00    +0.007 A 
ATOM     26  C   LIG    1       28.819 -19.578   6.563  0.00  0.00    +0.046 A 
ATOM     27  C   LIG    1       28.855 -20.020   7.886  0.00  0.00    +0.121 A 
ATOM     28  C   LIG    1       27.801 -20.811   8.357  0.00  0.00    +0.046 A 
ATOM     29  C   LIG    1       26.746 -21.164   7.511  0.00  0.00    +0.007 A 
BRANCH  27  30
ATOM     30  O   LIG    1       29.952 -19.636   8.616  0.00  0.00    -0.486 OA
BRANCH  30  31
ATOM     31  C   LIG    1       30.443 -18.300   8.442  0.00  0.00    +0.201 C 
ATOM     32  C   LIG    1       31.962 -18.255   8.534  0.00  0.00    +0.204 C 
ATOM     33  O   LIG    1       32.309 -18.075   9.919  0.00  0.00    -0.376 OA
ATOM     34  C   LIG    1       31.121 -17.739  10.644  0.00  0.00    +0.163 C 
ATOM     35  C   LIG    1       30.040 -17.451   9.627  0.00  0.00    +0.075 C 
ENDBRANCH  30  31
ENDBRANCH  27  30
ENDBRANCH  23  24
ENDBRANCH   3  23
TORSDOF 10
ENDMDL
MODEL 6
REMARK VINA RESULT:      -8.5      1.842      3.231
REMARK  Name = *****
REMARK                            x       y       z     vdW  Elec       q    Type
REMARK                         _______ _______ _______ _____ _____    ______ ____
ROOT
ATOM      1  C   LIG    1       26.623 -21.157   7.657  0.00  0.00    -0.016 A 
ATOM      2  C   LIG    1       26.540 -22.132   6.651  0.00  0.00    +0.011 A 
ATOM      3  C   LIG    1       25.329 -22.792   6.348  0.00  0.00    -0.024 A 
ATOM      4  C   LIG    1       24.192 -22.458   7.105  0.00  0.00    +0.044 A 
ATOM      5 CL   LIG    1       22.644 -23.162   6.791  0.00  0.00    -0.083 Cl
ATOM      6  C   LIG    1       24.270 -21.525   8.139  0.00  0.00    +0.020 A 
ATOM      7  C   LIG    1       25.474 -20.880   8.411  0.00  0.00    +0.008 A 
ENDROOT
BRANCH   1  12
ATOM      8  C   LIG    1       29.382 -18.896   6.679  0.00  0.00    +0.175 C 
ATOM      9  C   LIG    1       30.550 -19.880   6.761  0.00  0.00    +0.176 C 
ATOM     10  C   LIG    1       30.437 -20.662   8.067  0.00  0.00    +0.177 C 
ATOM     11  C   LIG    1       29.081 -21.364   8.187  0.00  0.00    +0.179 C 
ATOM     12  C   LIG    1       27.918 -20.383   7.888  0.00  0.00    +0.180 C 
ATOM     13  O   LIG    1       28.153 -19.631   6.694  0.00  0.00    -0.361 OA
BRANCH   9  14
ATOM     14  O   LIG    1       31.812 -19.212   6.715  0.00  0.00    -0.387 OA
ATOM     15  H   LIG    1       32.354 -19.650   7.405  0.00  0.00    +0.210 HD
ENDBRANCH   9  14
BRANCH  10  16
ATOM     16  O   LIG    1       31.501 -21.631   8.121  0.00  0.00    -0.387 OA
ATOM     17  H   LIG    1       32.113 -21.293   8.806  0.00  0.00    +0.210 HD
ENDBRANCH  10  16
BRANCH  11  18
ATOM     18  O   LIG    1       29.021 -21.915   9.516  0.00  0.00    -0.386 OA
ATOM     19  H   LIG    1       29.135 -22.879   9.443  0.00  0.00    +0.210 HD
ENDBRANCH  11  18
BRANCH   8  20
ATOM     20  C   LIG    1       29.438 -18.081   5.381  0.00  0.00    +0.190 C 
BRANCH  20  21
ATOM     21  O   LIG    1       28.304 -18.379   4.563  0.00  0.00    -0.392 OA
ATOM     22  H   LIG    1       28.610 -18.367   3.641  0.00  0.00    +0.209 HD
ENDBRANCH  20  21
ENDBRANCH   8  20
ENDBRANCH   1  12
BRANCH   3  23
ATOM     23  C   LIG    1       25.239 -23.834   5.243  0.00  0.00    +0.071 C 
BRANCH  23  24
ATOM     24  C   LIG    1       25.264 -25.279   5.692  0.00  0.00    -0.043 A 
ATOM     25  C   LIG    1       26.084 -25.698   6.754  0.00  0.00    +0.007 A 
ATOM     26  C   LIG    1       26.019 -27.021   7.211  0.00  0.00    +0.046 A 
ATOM     27  C   LIG    1       25.145 -27.942   6.632  0.00  0.00    +0.121 A 
ATOM     28  C   LIG    1       24.324 -27.517   5.582  0.00  0.00    +0.046 A 
ATOM     29  C   LIG    1       24.393 -26.202   5.115  0.00  0.00    +0.007 A 
BRANCH  27  30
ATOM     30  O   LIG    1       25.182 -29.211   7.151  0.00  0.00    -0.486 OA
BRANCH  30  31
ATOM     31  C   LIG    1       25.222 -29.355   8.578  0.00  0.00    +0.201 C 
ATOM     32  C   LIG    1       26.315 -30.326   9.004  0.00  0.00    +0.204 C 
ATOM     33  O   LIG    1       25.746 -31.647   9.006  0.00  0.00    -0.376 OA
ATOM     34  C   LIG    1       24.325 -31.530   8.876  0.00  0.00    +0.163 C 
ATOM     35  C   LIG    1       23.977 -30.069   9.053  0.00  0.00    +0.075 C 
ENDBRANCH  30  31
ENDBRANCH  27  30
ENDBRANCH  23  24
ENDBRANCH   3  23
TORSDOF 10
ENDMDL
MODEL 7
REMARK VINA RESULT:      -8.2      3.267      9.896
REMARK  Name = *****
REMARK                            x       y       z     vdW  Elec       q    Type
REMARK                         _______ _______ _______ _____ _____    ______ ____
ROOT
ATOM      1  C   LIG    1       26.822 -21.601   6.670  0.00  0.00    -0.016 A 
ATOM      2  C   LIG    1       28.158 -21.495   7.089  0.00  0.00    +0.011 A 
ATOM      3  C   LIG    1       28.967 -20.393   6.736  0.00  0.00    -0.024 A 
ATOM      4  C   LIG    1       28.400 -19.395   5.922  0.00  0.00    +0.044 A 
ATOM      5 CL   LIG    1       29.276 -17.976   5.468  0.00  0.00    -0.083 Cl
ATOM      6  C   LIG    1       27.088 -19.511   5.459  0.00  0.00    +0.020 A 
ATOM      7  C   LIG    1       26.307 -20.602   5.832  0.00  0.00    +0.008 A 
ENDROOT
BRANCH   1  12
ATOM      8  C   LIG    1       25.692 -25.120   6.806  0.00  0.00    +0.175 C 
ATOM      9  C   LIG    1       24.283 -24.950   6.237  0.00  0.00    +0.176 C 
ATOM     10  C   LIG    1       23.621 -23.757   6.922  0.00  0.00    +0.177 C 
ATOM     11  C   LIG    1       24.462 -22.485   6.772  0.00  0.00    +0.179 C 
ATOM     12  C   LIG    1       25.941 -22.747   7.158  0.00  0.00    +0.180 C 
ATOM     13  O   LIG    1       26.448 -23.933   6.540  0.00  0.00    -0.361 OA
BRANCH   9  14
ATOM     14  O   LIG    1       23.483 -26.117   6.439  0.00  0.00    -0.387 OA
ATOM     15  H   LIG    1       22.669 -25.791   6.876  0.00  0.00    +0.210 HD
ENDBRANCH   9  14
BRANCH  10  16
ATOM     16  O   LIG    1       22.317 -23.556   6.347  0.00  0.00    -0.387 OA
ATOM     17  H   LIG    1       21.694 -23.657   7.095  0.00  0.00    +0.210 HD
ENDBRANCH  10  16
BRANCH  11  18
ATOM     18  O   LIG    1       23.838 -21.483   7.596  0.00  0.00    -0.386 OA
ATOM     19  H   LIG    1       23.679 -20.699   7.040  0.00  0.00    +0.210 HD
ENDBRANCH  11  18
BRANCH   8  20
ATOM     20  C   LIG    1       26.412 -26.305   6.151  0.00  0.00    +0.190 C 
BRANCH  20  21
ATOM     21  O   LIG    1       26.047 -26.402   4.772  0.00  0.00    -0.392 OA
ATOM     22  H   LIG    1       25.727 -25.524   4.503  0.00  0.00    +0.209 HD
ENDBRANCH  20  21
ENDBRANCH   8  20
ENDBRANCH   1  12
BRANCH   3  23
ATOM     23  C   LIG    1       30.408 -20.272   7.209  0.00  0.00    +0.071 C 
BRANCH  23  24
ATOM     24  C   LIG    1       30.694 -19.142   8.175  0.00  0.00    -0.043 A 
ATOM     25  C   LIG    1       29.806 -18.834   9.220  0.00  0.00    +0.007 A 
ATOM     26  C   LIG    1       30.140 -17.846  10.156  0.00  0.00    +0.046 A 
ATOM     27  C   LIG    1       31.350 -17.156  10.075  0.00  0.00    +0.121 A 
ATOM     28  C   LIG    1       32.235 -17.475   9.039  0.00  0.00    +0.046 A 
ATOM     29  C   LIG    1       31.903 -18.451   8.097  0.00  0.00    +0.007 A 
BRANCH  27  30
ATOM     30  O   LIG    1       31.559 -16.199  11.037  0.00  0.00    -0.486 OA
BRANCH  30  31
ATOM     31  C   LIG    1       32.842 -16.157  11.677  0.00  0.00    +0.201 C 
ATOM     32  C   LIG    1       33.025 -17.338  12.622  0.00  0.00    +0.204 C 
ATOM     33  O   LIG    1       32.504 -16.952  13.906  0.00  0.00    -0.376 OA
ATOM     34  C   LIG    1       32.261 -15.541  13.893  0.00  0.00    +0.163 C 
ATOM     35  C   LIG    1       32.893 -14.988  12.636  0.00  0.00    +0.075 C 
ENDBRANCH  30  31
ENDBRANCH  27  30
ENDBRANCH  23  24
ENDBRANCH   3  23
TORSDOF 10
ENDMDL
MODEL 8
REMARK VINA RESULT:      -8.1      4.691      9.021
REMARK  Name = *****
REMARK                            x       y       z     vdW  Elec       q    Type
REMARK                         _______ _______ _______ _____ _____    ______ ____
ROOT
ATOM      1  C   LIG    1       25.379 -29.345   9.099  0.00  0.00    -0.016 A 
ATOM      2  C   LIG    1       25.943 -28.243   8.438  0.00  0.00    +0.011 A 
ATOM      3  C   LIG    1       25.677 -27.970   7.078  0.00  0.00    -0.024 A 
ATOM      4  C   LIG    1       24.834 -28.856   6.383  0.00  0.00    +0.044 A 
ATOM      5 CL   LIG    1       24.395 -28.597   4.731  0.00  0.00    -0.083 Cl
ATOM      6  C   LIG    1       24.303 -29.982   7.015  0.00  0.00    +0.020 A 
ATOM      7  C   LIG    1       24.572 -30.222   8.360  0.00  0.00    +0.008 A 
ENDROOT
BRANCH   1  12
ATOM      8  C   LIG    1       24.464 -29.091  12.673  0.00  0.00    +0.175 C 
ATOM      9  C   LIG    1       25.587 -28.170  13.152  0.00  0.00    +0.176 C 
ATOM     10  C   LIG    1       26.910 -28.681  12.588  0.00  0.00    +0.177 C 
ATOM     11  C   LIG    1       26.865 -28.792  11.060  0.00  0.00    +0.179 C 
ATOM     12  C   LIG    1       25.597 -29.552  10.595  0.00  0.00    +0.180 C 
ATOM     13  O   LIG    1       24.418 -29.065  11.242  0.00  0.00    -0.361 OA
BRANCH   9  14
ATOM     14  O   LIG    1       25.665 -28.123  14.578  0.00  0.00    -0.387 OA
ATOM     15  H   LIG    1       26.381 -27.482  14.770  0.00  0.00    +0.210 HD
ENDBRANCH   9  14
BRANCH  10  16
ATOM     16  O   LIG    1       27.962 -27.783  12.987  0.00  0.00    -0.387 OA
ATOM     17  H   LIG    1       28.787 -28.297  12.872  0.00  0.00    +0.210 HD
ENDBRANCH  10  16
BRANCH  11  18
ATOM     18  O   LIG    1       28.086 -29.442  10.661  0.00  0.00    -0.386 OA
ATOM     19  H   LIG    1       28.706 -29.394  11.411  0.00  0.00    +0.210 HD
ENDBRANCH  11  18
BRANCH   8  20
ATOM     20  C   LIG    1       23.103 -28.625  13.206  0.00  0.00    +0.190 C 
BRANCH  20  21
ATOM     21  O   LIG    1       23.094 -27.203  13.355  0.00  0.00    -0.392 OA
ATOM     22  H   LIG    1       22.888 -26.829  12.482  0.00  0.00    +0.209 HD
ENDBRANCH  20  21
ENDBRANCH   8  20
ENDBRANCH   1  12
BRANCH   3  23
ATOM     23  C   LIG    1       26.274 -26.763   6.371  0.00  0.00    +0.071 C 
BRANCH  23  24
ATOM     24  C   LIG    1       25.507 -25.466   6.512  0.00  0.00    -0.043 A 
ATOM     25  C   LIG    1       24.128 -25.403   6.247  0.00  0.00    +0.007 A 
ATOM     26  C   LIG    1       23.423 -24.214   6.475  0.00  0.00    +0.046 A 
ATOM     27  C   LIG    1       24.066 -23.078   6.969  0.00  0.00    +0.121 A 
ATOM     28  C   LIG    1       25.437 -23.150   7.241  0.00  0.00    +0.046 A 
ATOM     29  C   LIG    1       26.146 -24.330   7.005  0.00  0.00    +0.007 A 
BRANCH  27  30
ATOM     30  O   LIG    1       23.277 -21.968   7.136  0.00  0.00    -0.486 OA
BRANCH  30  31
ATOM     31  C   LIG    1       23.759 -20.717   6.629  0.00  0.00    +0.201 C 
ATOM     32  C   LIG    1       22.671 -19.977   5.862  0.00  0.00    +0.204 C 
ATOM     33  O   LIG    1       22.728 -20.417   4.493  0.00  0.00    -0.376 OA
ATOM     34  C   LIG    1       23.934 -21.165   4.306  0.00  0.00    +0.163 C 
ATOM     35  C   LIG    1       24.782 -20.967   5.542  0.00  0.00    +0.075 C 
ENDBRANCH  30  31
ENDBRANCH  27  30
ENDBRANCH  23  24
ENDBRANCH   3  23
TORSDOF 10
ENDMDL
MODEL 9
REMARK VINA RESULT:      -8.0      3.874      9.306
REMARK  Name = *****
REMARK                            x       y       z     vdW  Elec       q    Type
REMARK                         _______ _______ _______ _____ _____    ______ ____
ROOT
ATOM      1  C   LIG    1       25.829 -30.362   9.060  0.00  0.00    -0.016 A 
ATOM      2  C   LIG    1       25.205 -29.454   8.190  0.00  0.00    +0.011 A 
ATOM      3  C   LIG    1       25.051 -29.724   6.813  0.00  0.00    -0.024 A 
ATOM      4  C   LIG    1       25.565 -30.937   6.319  0.00  0.00    +0.044 A 
ATOM      5 CL   LIG    1       25.390 -31.400   4.663  0.00  0.00    -0.083 Cl
ATOM      6  C   LIG    1       26.228 -31.828   7.164  0.00  0.00    +0.020 A 
ATOM      7  C   LIG    1       26.357 -31.543   8.521  0.00  0.00    +0.008 A 
ENDROOT
BRANCH   1  12
ATOM      8  C   LIG    1       24.415 -29.347  12.324  0.00  0.00    +0.175 C 
ATOM      9  C   LIG    1       25.259 -28.098  12.581  0.00  0.00    +0.176 C 
ATOM     10  C   LIG    1       26.720 -28.427  12.288  0.00  0.00    +0.177 C 
ATOM     11  C   LIG    1       26.901 -28.963  10.864  0.00  0.00    +0.179 C 
ATOM     12  C   LIG    1       25.883 -30.092  10.561  0.00  0.00    +0.180 C 
ATOM     13  O   LIG    1       24.555 -29.728  10.950  0.00  0.00    -0.361 OA
BRANCH   9  14
ATOM     14  O   LIG    1       25.136 -27.643  13.930  0.00  0.00    -0.387 OA
ATOM     15  H   LIG    1       24.779 -28.411  14.424  0.00  0.00    +0.210 HD
ENDBRANCH   9  14
BRANCH  10  16
ATOM     16  O   LIG    1       27.509 -27.238  12.472  0.00  0.00    -0.387 OA
ATOM     17  H   LIG    1       28.415 -27.494  12.205  0.00  0.00    +0.210 HD
ENDBRANCH  10  16
BRANCH  11  18
ATOM     18  O   LIG    1       28.269 -29.400  10.763  0.00  0.00    -0.386 OA
ATOM     19  H   LIG    1       28.407 -29.735   9.859  0.00  0.00    +0.210 HD
ENDBRANCH  11  18
BRANCH   8  20
ATOM     20  C   LIG    1       22.930 -29.077  12.598  0.00  0.00    +0.190 C 
BRANCH  20  21
ATOM     21  O   LIG    1       22.706 -27.672  12.746  0.00  0.00    -0.392 OA
ATOM     22  H   LIG    1       22.622 -27.304  11.851  0.00  0.00    +0.209 HD
ENDBRANCH  20  21
ENDBRANCH   8  20
ENDBRANCH   1  12
BRANCH   3  23
ATOM     23  C   LIG    1       24.356 -28.746   5.877  0.00  0.00    +0.071 C 
BRANCH  23  24
ATOM     24  C   LIG    1       24.798 -27.302   5.981  0.00  0.00    -0.043 A 
ATOM     25  C   LIG    1       23.866 -26.267   6.166  0.00  0.00    +0.007 A 
ATOM     26  C   LIG    1       24.309 -24.950   6.353  0.00  0.00    +0.046 A 
ATOM     27  C   LIG    1       25.670 -24.641   6.364  0.00  0.00    +0.121 A 
ATOM     28  C   LIG    1       26.593 -25.679   6.190  0.00  0.00    +0.046 A 
ATOM     29  C   LIG    1       26.157 -26.991   5.993  0.00  0.00    +0.007 A 
BRANCH  27  30
ATOM     30  O   LIG    1       25.982 -23.317   6.538  0.00  0.00    -0.486 OA
BRANCH  30  31
ATOM     31  C   LIG    1       25.060 -22.498   7.270  0.00  0.00    +0.201 C 
ATOM     32  C   LIG    1       24.702 -21.239   6.491  0.00  0.00    +0.204 C 
ATOM     33  O   LIG    1       25.675 -20.232   6.822  0.00  0.00    -0.376 OA
ATOM     34  C   LIG    1       26.439 -20.690   7.943  0.00  0.00    +0.163 C 
ATOM     35  C   LIG    1       25.748 -21.919   8.486  0.00  0.00    +0.075 C 
ENDBRANCH  30  31
ENDBRANCH  27  30
ENDBRANCH  23  24
ENDBRANCH   3  23
TORSDOF 10
ENDMDL
