MODEL 1
REMARK VINA RESULT:      34.7      0.000      0.000
REMARK  Name = *****
REMARK                            x       y       z     vdW  Elec       q    Type
REMARK                         _______ _______ _______ _____ _____    ______ ____
ROOT
ATOM      1  C   LIG    1       25.139 -26.428  11.208  0.00  0.00    +0.186 C 
ATOM      2  O   LIG    1       25.454 -27.813  11.693  0.00  0.00    -0.459 OA
ATOM      3  C   LIG    1       26.735 -28.157  11.948  0.00  0.00    +0.328 C 
ATOM      4  O   LIG    1       27.695 -27.489  11.581  0.00  0.00    -0.249 OA
ATOM      5  C   LIG    1       26.958 -29.624  12.477  0.00  0.00    +0.185 C 
ATOM      6  N   LIG    1       25.893 -30.155  13.386  0.00  0.00    -0.281 N 
ATOM      7  C   LIG    1       26.254 -30.115  14.806  0.00  0.00    +0.109 C 
ATOM      8  C   LIG    1       27.459 -31.026  15.088  0.00  0.00    +0.019 C 
ATOM      9  C   LIG    1       28.516 -30.969  13.978  0.00  0.00    +0.004 C 
ATOM     10  C   LIG    1       24.986 -31.137  13.022  0.00  0.00    +0.288 C 
ATOM     11  O   LIG    1       24.056 -31.543  13.766  0.00  0.00    -0.267 OA
ATOM     12  C   LIG    1       25.163 -31.835  11.672  0.00  0.00    +0.276 C 
ATOM     13  O   LIG    1       25.990 -32.755  11.593  0.00  0.00    -0.281 OA
ATOM     14  C   LIG    1       24.267 -31.288  10.529  0.00  0.00    +0.240 C 
ATOM     15  O   LIG    1       25.174 -31.279   9.420  0.00  0.00    -0.339 OA
ATOM     16  C   LIG    1       24.634 -30.893   8.148  0.00  0.00    +0.125 C 
ATOM     17  C   LIG    1       23.099 -30.869   8.123  0.00  0.00    +0.032 C 
ATOM     18  C   LIG    1       22.485 -32.048   8.858  0.00  0.00    +0.011 C 
ATOM     19  C   LIG    1       25.178 -29.504   7.760  0.00  0.00    +0.067 C 
ATOM     20  C   LIG    1       26.577 -29.465   7.069  0.00  0.00    +0.146 C 
ATOM     21  C   LIG    1       26.532 -28.663   5.760  0.00  0.00    -0.044 C 
ATOM     22  C   LIG    1       25.665 -29.325   4.702  0.00  0.00    +0.041 C 
ATOM     23  C   LIG    1       27.123 -27.492   5.416  0.00  0.00    +0.001 C 
ATOM     24  C   LIG    1       27.992 -26.545   6.116  0.00  0.00    +0.000 C 
ATOM     25  C   LIG    1       28.279 -25.367   5.529  0.00  0.00    -0.000 C 
ATOM     26  C   LIG    1       29.082 -24.240   5.959  0.00  0.00    -0.004 C 
ATOM     27  C   LIG    1       28.996 -23.590   7.131  0.00  0.00    -0.024 C 
ATOM     28  C   LIG    1       29.550 -22.186   7.324  0.00  0.00    +0.009 C 
ATOM     29  C   LIG    1       30.387 -22.054   8.598  0.00  0.00    +0.012 C 
ATOM     30  C   LIG    1       28.376 -21.164   7.337  0.00  0.00    +0.018 C 
ATOM     31  C   LIG    1       28.117 -20.560   5.943  0.00  0.00    +0.056 C 
ATOM     32  C   LIG    1       28.726 -19.150   5.891  0.00  0.00    +0.015 C 
ATOM     33  C   LIG    1       26.693 -20.522   5.366  0.00  0.00    +0.167 C 
ATOM     34  O   LIG    1       26.560 -20.230   4.163  0.00  0.00    -0.294 OA
ATOM     35  C   LIG    1       25.434 -20.748   6.218  0.00  0.00    +0.216 C 
ATOM     36  C   LIG    1       25.200 -22.241   6.636  0.00  0.00    +0.176 C 
ATOM     37  C   LIG    1       23.776 -22.803   6.629  0.00  0.00    -0.045 C 
ATOM     38  C   LIG    1       22.790 -22.083   5.729  0.00  0.00    +0.041 C 
ATOM     39  C   LIG    1       23.339 -23.930   7.250  0.00  0.00    -0.015 C 
ATOM     40  C   LIG    1       23.991 -25.116   7.961  0.00  0.00    +0.075 C 
ATOM     41  C   LIG    1       24.267 -26.115   6.836  0.00  0.00    +0.019 C 
ATOM     42  C   LIG    1       25.243 -25.020   8.878  0.00  0.00    +0.143 C 
ATOM     43  O   LIG    1       26.011 -24.061   8.819  0.00  0.00    -0.297 OA
ATOM     44  C   LIG    1       23.116 -32.292  10.243  0.00  0.00    +0.054 C 
ATOM     45  C   LIG    1       22.018 -32.316  11.314  0.00  0.00    +0.013 C 
ATOM     46  C   LIG    1       28.364 -29.719  13.117  0.00  0.00    +0.034 C 
ATOM     47  C   LIG    1       25.629 -26.234   9.758  0.00  0.00    +0.119 C 
ENDROOT
BRANCH   1  48
ATOM     48  C   LIG    1       25.572 -25.397  12.301  0.00  0.00    +0.027 C 
ATOM     49  C   LIG    1       26.877 -25.909  12.939  0.00  0.00    +0.011 C 
BRANCH  48  50
ATOM     50  C   LIG    1       24.434 -25.124  13.319  0.00  0.00    +0.010 C 
BRANCH  50  55
ATOM     51  C   LIG    1       21.728 -26.505  14.608  0.00  0.00    +0.147 C 
ATOM     52  C   LIG    1       22.075 -27.990  14.309  0.00  0.00    +0.147 C 
ATOM     53  C   LIG    1       23.400 -28.035  13.548  0.00  0.00    +0.034 C 
ATOM     54  C   LIG    1       24.489 -27.475  14.456  0.00  0.00    +0.006 C 
ATOM     55  C   LIG    1       24.306 -25.970  14.614  0.00  0.00    -0.008 C 
ATOM     56  C   LIG    1       22.914 -25.762  15.297  0.00  0.00    +0.037 C 
BRANCH  51  58
ATOM     57  C   LIG    1       20.169 -26.167  12.794  0.00  0.00    +0.194 C 
ATOM     58  O   LIG    1       21.401 -25.788  13.397  0.00  0.00    -0.377 OA
ENDBRANCH  51  58
BRANCH  52  59
ATOM     59  O   LIG    1       22.130 -28.792  15.499  0.00  0.00    -0.372 OA
BRANCH  59  60
ATOM     60  C   LIG    1       21.341 -29.977  15.330  0.00  0.00    +0.188 C 
BRANCH  60  61
ATOM     61  C   LIG    1       20.096 -29.702  14.519  0.00  0.00    +0.184 C 
BRANCH  61  62
ATOM     62  O   LIG    1       19.745 -30.891  13.820  0.00  0.00    -0.393 OA
ATOM     63  H   LIG    1       19.102 -31.365  14.372  0.00  0.00    +0.209 HD
ENDBRANCH  61  62
ENDBRANCH  60  61
ENDBRANCH  59  60
ENDBRANCH  52  59
ENDBRANCH  50  55
ENDBRANCH  48  50
ENDBRANCH   1  48
BRANCH  20  64
ATOM     64  O   LIG    1       27.583 -28.887   7.898  0.00  0.00    -0.375 OA
ATOM     65  C   LIG    1       27.522 -29.309   9.242  0.00  0.00    +0.194 C 
ENDBRANCH  20  64
BRANCH  35  66
ATOM     66  O   LIG    1       25.501 -19.861   7.348  0.00  0.00    -0.369 OA
ATOM     67  C   LIG    1       25.576 -20.538   8.597  0.00  0.00    +0.195 C 
ENDBRANCH  35  66
BRANCH  36  68
ATOM     68  O   LIG    1       25.968 -23.126   5.837  0.00  0.00    -0.385 OA
ATOM     69  H   LIG    1       25.537 -23.997   5.953  0.00  0.00    +0.210 HD
ENDBRANCH  36  68
BRANCH  14  70
ATOM     70  O   LIG    1       23.792 -29.984  10.771  0.00  0.00    -0.358 OA
ATOM     71  H   LIG    1       23.971 -29.428   9.992  0.00  0.00    +0.213 HD
ENDBRANCH  14  70
TORSDOF 12
ENDMDL
MODEL 2
REMARK VINA RESULT:      36.6      0.851      1.147
REMARK  Name = *****
REMARK                            x       y       z     vdW  Elec       q    Type
REMARK                         _______ _______ _______ _____ _____    ______ ____
ROOT
ATOM      1  C   LIG    1       25.025 -26.665  10.959  0.00  0.00    +0.186 C 
ATOM      2  O   LIG    1       25.354 -28.054  11.423  0.00  0.00    -0.459 OA
ATOM      3  C   LIG    1       26.635 -28.381  11.701  0.00  0.00    +0.328 C 
ATOM      4  O   LIG    1       27.591 -27.688  11.371  0.00  0.00    -0.249 OA
ATOM      5  C   LIG    1       26.872 -29.854  12.205  0.00  0.00    +0.185 C 
ATOM      6  N   LIG    1       25.795 -30.423  13.077  0.00  0.00    -0.281 N 
ATOM      7  C   LIG    1       26.121 -30.407  14.506  0.00  0.00    +0.109 C 
ATOM      8  C   LIG    1       27.336 -31.302  14.797  0.00  0.00    +0.019 C 
ATOM      9  C   LIG    1       28.418 -31.203  13.714  0.00  0.00    +0.004 C 
ATOM     10  C   LIG    1       24.914 -31.413  12.671  0.00  0.00    +0.288 C 
ATOM     11  O   LIG    1       23.975 -31.851  13.383  0.00  0.00    -0.267 OA
ATOM     12  C   LIG    1       25.137 -32.079  11.311  0.00  0.00    +0.276 C 
ATOM     13  O   LIG    1       25.981 -32.982  11.233  0.00  0.00    -0.281 OA
ATOM     14  C   LIG    1       24.257 -31.523  10.158  0.00  0.00    +0.240 C 
ATOM     15  O   LIG    1       25.190 -31.475   9.072  0.00  0.00    -0.339 OA
ATOM     16  C   LIG    1       24.673 -31.071   7.796  0.00  0.00    +0.125 C 
ATOM     17  C   LIG    1       23.140 -31.074   7.734  0.00  0.00    +0.032 C 
ATOM     18  C   LIG    1       22.530 -32.279   8.430  0.00  0.00    +0.011 C 
ATOM     19  C   LIG    1       25.201 -29.665   7.449  0.00  0.00    +0.067 C 
ATOM     20  C   LIG    1       26.616 -29.587   6.793  0.00  0.00    +0.146 C 
ATOM     21  C   LIG    1       26.587 -28.758   5.501  0.00  0.00    -0.044 C 
ATOM     22  C   LIG    1       25.758 -29.413   4.409  0.00  0.00    +0.041 C 
ATOM     23  C   LIG    1       27.165 -27.570   5.195  0.00  0.00    +0.001 C 
ATOM     24  C   LIG    1       28.000 -26.623   5.936  0.00  0.00    +0.000 C 
ATOM     25  C   LIG    1       28.279 -25.427   5.380  0.00  0.00    -0.000 C 
ATOM     26  C   LIG    1       29.051 -24.296   5.853  0.00  0.00    -0.004 C 
ATOM     27  C   LIG    1       28.925 -23.673   7.036  0.00  0.00    -0.024 C 
ATOM     28  C   LIG    1       29.450 -22.264   7.272  0.00  0.00    +0.009 C 
ATOM     29  C   LIG    1       30.253 -22.144   8.568  0.00  0.00    +0.012 C 
ATOM     30  C   LIG    1       28.258 -21.263   7.277  0.00  0.00    +0.018 C 
ATOM     31  C   LIG    1       28.021 -20.634   5.890  0.00  0.00    +0.056 C 
ATOM     32  C   LIG    1       28.605 -19.213   5.882  0.00  0.00    +0.015 C 
ATOM     33  C   LIG    1       26.610 -20.609   5.280  0.00  0.00    +0.167 C 
ATOM     34  O   LIG    1       26.500 -20.294   4.081  0.00  0.00    -0.294 OA
ATOM     35  C   LIG    1       25.336 -20.875   6.097  0.00  0.00    +0.216 C 
ATOM     36  C   LIG    1       25.119 -22.380   6.478  0.00  0.00    +0.176 C 
ATOM     37  C   LIG    1       23.706 -22.967   6.425  0.00  0.00    -0.045 C 
ATOM     38  C   LIG    1       22.728 -22.246   5.517  0.00  0.00    +0.041 C 
ATOM     39  C   LIG    1       23.275 -24.115   7.012  0.00  0.00    -0.015 C 
ATOM     40  C   LIG    1       23.931 -25.304   7.714  0.00  0.00    +0.075 C 
ATOM     41  C   LIG    1       24.252 -26.274   6.575  0.00  0.00    +0.019 C 
ATOM     42  C   LIG    1       25.160 -25.206   8.662  0.00  0.00    +0.143 C 
ATOM     43  O   LIG    1       25.911 -24.232   8.641  0.00  0.00    -0.297 OA
ATOM     44  C   LIG    1       23.132 -32.541   9.824  0.00  0.00    +0.054 C 
ATOM     45  C   LIG    1       22.009 -32.607  10.867  0.00  0.00    +0.013 C 
ATOM     46  C   LIG    1       28.264 -29.937  12.876  0.00  0.00    +0.034 C 
ATOM     47  C   LIG    1       25.546 -26.430   9.526  0.00  0.00    +0.119 C 
ENDROOT
BRANCH   1  48
ATOM     48  C   LIG    1       25.413 -25.649  12.083  0.00  0.00    +0.027 C 
ATOM     49  C   LIG    1       26.931 -25.767  12.318  0.00  0.00    +0.011 C 
BRANCH  48  50
ATOM     50  C   LIG    1       24.557 -25.848  13.361  0.00  0.00    +0.010 C 
BRANCH  50  55
ATOM     51  C   LIG    1       22.161 -26.615  15.497  0.00  0.00    +0.147 C 
ATOM     52  C   LIG    1       21.091 -27.081  14.469  0.00  0.00    +0.147 C 
ATOM     53  C   LIG    1       21.655 -26.890  13.061  0.00  0.00    +0.034 C 
ATOM     54  C   LIG    1       22.873 -27.794  12.910  0.00  0.00    +0.006 C 
ATOM     55  C   LIG    1       24.025 -27.254  13.750  0.00  0.00    -0.008 C 
ATOM     56  C   LIG    1       23.543 -27.290  15.237  0.00  0.00    +0.037 C 
BRANCH  51  58
ATOM     57  C   LIG    1       23.709 -24.760  15.492  0.00  0.00    +0.194 C 
ATOM     58  O   LIG    1       22.351 -25.185  15.443  0.00  0.00    -0.377 OA
ENDBRANCH  51  58
BRANCH  52  59
ATOM     59  O   LIG    1       20.678 -28.440  14.685  0.00  0.00    -0.372 OA
BRANCH  59  60
ATOM     60  C   LIG    1       19.276 -28.575  14.417  0.00  0.00    +0.188 C 
BRANCH  60  61
ATOM     61  C   LIG    1       18.525 -27.305  14.743  0.00  0.00    +0.184 C 
BRANCH  61  62
ATOM     62  O   LIG    1       17.685 -26.986  13.640  0.00  0.00    -0.393 OA
ATOM     63  H   LIG    1       17.506 -27.816  13.169  0.00  0.00    +0.209 HD
ENDBRANCH  61  62
ENDBRANCH  60  61
ENDBRANCH  59  60
ENDBRANCH  52  59
ENDBRANCH  50  55
ENDBRANCH  48  50
ENDBRANCH   1  48
BRANCH  20  64
ATOM     64  O   LIG    1       27.591 -29.009   7.658  0.00  0.00    -0.375 OA
ATOM     65  C   LIG    1       27.349 -29.247   9.027  0.00  0.00    +0.194 C 
ENDBRANCH  20  64
BRANCH  35  66
ATOM     66  O   LIG    1       25.360 -20.011   7.246  0.00  0.00    -0.369 OA
ATOM     67  C   LIG    1       25.382 -20.714   8.483  0.00  0.00    +0.195 C 
ENDBRANCH  35  66
BRANCH  36  68
ATOM     68  O   LIG    1       25.921 -23.235   5.679  0.00  0.00    -0.385 OA
ATOM     69  H   LIG    1       25.514 -23.194   4.791  0.00  0.00    +0.210 HD
ENDBRANCH  36  68
BRANCH  14  70
ATOM     70  O   LIG    1       23.754 -30.233  10.416  0.00  0.00    -0.358 OA
ATOM     71  H   LIG    1       23.649 -30.117  11.378  0.00  0.00    +0.213 HD
ENDBRANCH  14  70
TORSDOF 12
ENDMDL
