MODEL 1
REMARK VINA RESULT:      -6.6      0.000      0.000
REMARK  Name = *****
REMARK                            x       y       z     vdW  Elec       q    Type
REMARK                         _______ _______ _______ _____ _____    ______ ____
ROOT
ATOM      1  C   LIG    1       25.810 -20.592   6.905  0.00  0.00    +0.122 C 
ATOM      2  C   LIG    1       25.199 -21.782   7.020  0.00  0.00    +0.079 C 
ATOM      3  N   LIG    1       23.895 -22.039   6.637  0.00  0.00    -0.267 N 
ATOM      4  C   LIG    1       22.997 -21.023   6.125  0.00  0.00    +0.139 C 
ATOM      5  C   LIG    1       23.465 -23.369   6.724  0.00  0.00    +0.248 C 
ATOM      6  O   LIG    1       22.305 -23.735   6.545  0.00  0.00    -0.273 OA
ATOM      7  C   LIG    1       24.647 -24.331   7.010  0.00  0.00    +0.208 C 
ATOM      8  S   LIG    1       25.905 -23.199   7.718  0.00  0.00    -0.081 S 
ENDROOT
BRANCH   7   9
ATOM      9  N   LIG    1       25.097 -24.986   5.751  0.00  0.00    -0.283 NA
ATOM     10  C   LIG    1       26.434 -25.602   5.827  0.00  0.00    +0.086 C 
ATOM     11  C   LIG    1       26.502 -26.849   6.709  0.00  0.00    +0.015 C 
ATOM     12  C   LIG    1       25.468 -27.887   6.285  0.00  0.00    +0.002 C 
ATOM     13  C   LIG    1       24.086 -27.264   6.125  0.00  0.00    +0.015 C 
ATOM     14  C   LIG    1       24.140 -25.999   5.263  0.00  0.00    +0.086 C 
ENDBRANCH   7   9
BRANCH   1  15
ATOM     15  C   LIG    1       27.217 -20.306   7.256  0.00  0.00    +0.334 C 
ATOM     16  O   LIG    1       27.656 -20.104   8.376  0.00  0.00    -0.245 OA
BRANCH  15  17
ATOM     17  O   LIG    1       27.951 -20.325   6.113  0.00  0.00    -0.462 OA
BRANCH  17  19
ATOM     18  C   LIG    1       29.464 -18.445   5.731  0.00  0.00    +0.048 C 
ATOM     19  C   LIG    1       29.307 -19.864   6.249  0.00  0.00    +0.229 C 
ENDBRANCH  17  19
ENDBRANCH  15  17
ENDBRANCH   1  15
TORSDOF 4
ENDMDL
MODEL 2
REMARK VINA RESULT:      -6.1      1.733      1.995
REMARK  Name = *****
REMARK                            x       y       z     vdW  Elec       q    Type
REMARK                         _______ _______ _______ _____ _____    ______ ____
ROOT
ATOM      1  C   LIG    1       27.581 -20.436   6.933  0.00  0.00    +0.122 C 
ATOM      2  C   LIG    1       26.575 -21.301   6.726  0.00  0.00    +0.079 C 
ATOM      3  N   LIG    1       25.630 -21.187   5.723  0.00  0.00    -0.267 N 
ATOM      4  C   LIG    1       25.570 -20.067   4.805  0.00  0.00    +0.139 C 
ATOM      5  C   LIG    1       24.724 -22.246   5.590  0.00  0.00    +0.248 C 
ATOM      6  O   LIG    1       23.753 -22.236   4.836  0.00  0.00    -0.273 OA
ATOM      7  C   LIG    1       25.136 -23.460   6.462  0.00  0.00    +0.208 C 
ATOM      8  S   LIG    1       26.237 -22.685   7.708  0.00  0.00    -0.081 S 
ENDROOT
BRANCH   7   9
ATOM      9  N   LIG    1       25.828 -24.483   5.630  0.00  0.00    -0.283 NA
ATOM     10  C   LIG    1       26.586 -25.486   6.401  0.00  0.00    +0.086 C 
ATOM     11  C   LIG    1       25.713 -26.461   7.191  0.00  0.00    +0.015 C 
ATOM     12  C   LIG    1       24.693 -27.150   6.291  0.00  0.00    +0.002 C 
ATOM     13  C   LIG    1       23.944 -26.144   5.425  0.00  0.00    +0.015 C 
ATOM     14  C   LIG    1       24.910 -25.190   4.716  0.00  0.00    +0.086 C 
ENDBRANCH   7   9
BRANCH   1  15
ATOM     15  C   LIG    1       28.634 -20.564   7.963  0.00  0.00    +0.334 C 
ATOM     16  O   LIG    1       29.301 -21.559   8.194  0.00  0.00    -0.245 OA
BRANCH  15  17
ATOM     17  O   LIG    1       28.750 -19.370   8.600  0.00  0.00    -0.462 OA
BRANCH  17  19
ATOM     18  C   LIG    1       30.211 -17.601   9.440  0.00  0.00    +0.048 C 
ATOM     19  C   LIG    1       30.003 -18.691   8.403  0.00  0.00    +0.229 C 
ENDBRANCH  17  19
ENDBRANCH  15  17
ENDBRANCH   1  15
TORSDOF 4
ENDMDL
MODEL 3
REMARK VINA RESULT:      -5.6      2.649      6.170
REMARK  Name = *****
REMARK                            x       y       z     vdW  Elec       q    Type
REMARK                         _______ _______ _______ _____ _____    ______ ____
ROOT
ATOM      1  C   LIG    1       24.502 -21.931   5.128  0.00  0.00    +0.122 C 
ATOM      2  C   LIG    1       25.380 -21.571   6.079  0.00  0.00    +0.079 C 
ATOM      3  N   LIG    1       25.817 -22.393   7.101  0.00  0.00    -0.267 N 
ATOM      4  C   LIG    1       25.319 -23.737   7.315  0.00  0.00    +0.139 C 
ATOM      5  C   LIG    1       26.823 -21.883   7.931  0.00  0.00    +0.248 C 
ATOM      6  O   LIG    1       27.224 -22.436   8.953  0.00  0.00    -0.273 OA
ATOM      7  C   LIG    1       27.415 -20.567   7.364  0.00  0.00    +0.208 C 
ATOM      8  S   LIG    1       26.085 -19.999   6.235  0.00  0.00    -0.081 S 
ENDROOT
BRANCH   7   9
ATOM      9  N   LIG    1       28.698 -20.840   6.659  0.00  0.00    -0.283 NA
ATOM     10  C   LIG    1       29.080 -19.816   5.668  0.00  0.00    +0.086 C 
ATOM     11  C   LIG    1       29.492 -18.476   6.277  0.00  0.00    +0.015 C 
ATOM     12  C   LIG    1       30.604 -18.651   7.307  0.00  0.00    +0.002 C 
ATOM     13  C   LIG    1       30.271 -19.756   8.304  0.00  0.00    +0.015 C 
ATOM     14  C   LIG    1       29.828 -21.036   7.589  0.00  0.00    +0.086 C 
ENDBRANCH   7   9
BRANCH   1  15
ATOM     15  C   LIG    1       24.061 -21.091   3.995  0.00  0.00    +0.334 C 
ATOM     16  O   LIG    1       24.737 -20.756   3.038  0.00  0.00    -0.245 OA
BRANCH  15  17
ATOM     17  O   LIG    1       22.755 -20.770   4.190  0.00  0.00    -0.462 OA
BRANCH  17  19
ATOM     18  C   LIG    1       22.209 -18.398   4.409  0.00  0.00    +0.048 C 
ATOM     19  C   LIG    1       22.521 -19.700   5.125  0.00  0.00    +0.229 C 
ENDBRANCH  17  19
ENDBRANCH  15  17
ENDBRANCH   1  15
TORSDOF 4
ENDMDL
MODEL 4
REMARK VINA RESULT:      -5.5      3.042      4.593
REMARK  Name = *****
REMARK                            x       y       z     vdW  Elec       q    Type
REMARK                         _______ _______ _______ _____ _____    ______ ____
ROOT
ATOM      1  C   LIG    1       30.015 -20.171   7.643  0.00  0.00    +0.122 C 
ATOM      2  C   LIG    1       28.754 -20.073   7.191  0.00  0.00    +0.079 C 
ATOM      3  N   LIG    1       28.394 -19.539   5.968  0.00  0.00    -0.267 N 
ATOM      4  C   LIG    1       29.340 -18.947   5.044  0.00  0.00    +0.139 C 
ATOM      5  C   LIG    1       27.041 -19.628   5.618  0.00  0.00    +0.248 C 
ATOM      6  O   LIG    1       26.545 -19.090   4.630  0.00  0.00    -0.273 OA
ATOM      7  C   LIG    1       26.259 -20.543   6.595  0.00  0.00    +0.208 C 
ATOM      8  S   LIG    1       27.343 -20.544   8.075  0.00  0.00    -0.081 S 
ENDROOT
BRANCH   7   9
ATOM      9  N   LIG    1       26.082 -21.898   6.004  0.00  0.00    -0.283 NA
ATOM     10  C   LIG    1       25.955 -22.984   6.993  0.00  0.00    +0.086 C 
ATOM     11  C   LIG    1       24.648 -22.963   7.785  0.00  0.00    +0.015 C 
ATOM     12  C   LIG    1       23.436 -22.952   6.859  0.00  0.00    +0.002 C 
ATOM     13  C   LIG    1       23.571 -21.887   5.777  0.00  0.00    +0.015 C 
ATOM     14  C   LIG    1       24.933 -21.970   5.080  0.00  0.00    +0.086 C 
ENDBRANCH   7   9
BRANCH   1  15
ATOM     15  C   LIG    1       30.431 -20.785   8.921  0.00  0.00    +0.334 C 
ATOM     16  O   LIG    1       30.463 -21.978   9.172  0.00  0.00    -0.245 OA
BRANCH  15  17
ATOM     17  O   LIG    1       30.795 -19.790   9.771  0.00  0.00    -0.462 OA
BRANCH  17  19
ATOM     18  C   LIG    1       31.188 -17.380   9.833  0.00  0.00    +0.048 C 
ATOM     19  C   LIG    1       31.518 -18.703   9.166  0.00  0.00    +0.229 C 
ENDBRANCH  17  19
ENDBRANCH  15  17
ENDBRANCH   1  15
TORSDOF 4
ENDMDL
MODEL 5
REMARK VINA RESULT:      -5.0      4.134      8.317
REMARK  Name = *****
REMARK                            x       y       z     vdW  Elec       q    Type
REMARK                         _______ _______ _______ _____ _____    ______ ____
ROOT
ATOM      1  C   LIG    1       27.380 -20.597   7.499  0.00  0.00    +0.122 C 
ATOM      2  C   LIG    1       28.640 -20.169   7.678  0.00  0.00    +0.079 C 
ATOM      3  N   LIG    1       29.465 -19.702   6.671  0.00  0.00    -0.267 N 
ATOM      4  C   LIG    1       29.087 -19.683   5.272  0.00  0.00    +0.139 C 
ATOM      5  C   LIG    1       30.707 -19.189   7.064  0.00  0.00    +0.248 C 
ATOM      6  O   LIG    1       31.597 -18.857   6.284  0.00  0.00    -0.273 OA
ATOM      7  C   LIG    1       30.796 -19.030   8.604  0.00  0.00    +0.208 C 
ATOM      8  S   LIG    1       29.487 -20.175   9.187  0.00  0.00    -0.081 S 
ENDROOT
BRANCH   7   9
ATOM      9  N   LIG    1       30.546 -17.615   8.993  0.00  0.00    -0.283 NA
ATOM     10  C   LIG    1       29.928 -17.447  10.322  0.00  0.00    +0.086 C 
ATOM     11  C   LIG    1       30.851 -17.792  11.491  0.00  0.00    +0.015 C 
ATOM     12  C   LIG    1       32.159 -17.011  11.416  0.00  0.00    +0.002 C 
ATOM     13  C   LIG    1       32.786 -17.104  10.030  0.00  0.00    +0.015 C 
ATOM     14  C   LIG    1       31.765 -16.784   8.934  0.00  0.00    +0.086 C 
ENDBRANCH   7   9
BRANCH   1  15
ATOM     15  C   LIG    1       26.461 -21.050   8.565  0.00  0.00    +0.334 C 
ATOM     16  O   LIG    1       25.964 -20.354   9.434  0.00  0.00    -0.245 OA
BRANCH  15  17
ATOM     17  O   LIG    1       26.244 -22.380   8.399  0.00  0.00    -0.462 OA
BRANCH  17  19
ATOM     18  C   LIG    1       25.746 -24.264   6.925  0.00  0.00    +0.048 C 
ATOM     19  C   LIG    1       25.713 -22.758   7.115  0.00  0.00    +0.229 C 
ENDBRANCH  17  19
ENDBRANCH  15  17
ENDBRANCH   1  15
TORSDOF 4
ENDMDL
MODEL 6
REMARK VINA RESULT:      -4.9      6.022      8.720
REMARK  Name = *****
REMARK                            x       y       z     vdW  Elec       q    Type
REMARK                         _______ _______ _______ _____ _____    ______ ____
ROOT
ATOM      1  C   LIG    1       25.307 -30.492   5.975  0.00  0.00    +0.122 C 
ATOM      2  C   LIG    1       25.631 -30.787   7.244  0.00  0.00    +0.079 C 
ATOM      3  N   LIG    1       26.536 -31.764   7.620  0.00  0.00    -0.267 N 
ATOM      4  C   LIG    1       27.198 -32.645   6.680  0.00  0.00    +0.139 C 
ATOM      5  C   LIG    1       26.834 -31.850   8.985  0.00  0.00    +0.248 C 
ATOM      6  O   LIG    1       27.515 -32.741   9.490  0.00  0.00    -0.273 OA
ATOM      7  C   LIG    1       26.255 -30.646   9.773  0.00  0.00    +0.208 C 
ATOM      8  S   LIG    1       24.939 -30.045   8.645  0.00  0.00    -0.081 S 
ENDROOT
BRANCH   7   9
ATOM      9  N   LIG    1       27.317 -29.632  10.020  0.00  0.00    -0.283 NA
ATOM     10  C   LIG    1       26.818 -28.255  10.190  0.00  0.00    +0.086 C 
ATOM     11  C   LIG    1       26.044 -28.023  11.488  0.00  0.00    +0.015 C 
ATOM     12  C   LIG    1       26.862 -28.439  12.706  0.00  0.00    +0.002 C 
ATOM     13  C   LIG    1       27.455 -29.833  12.529  0.00  0.00    +0.015 C 
ATOM     14  C   LIG    1       28.167 -29.969  11.179  0.00  0.00    +0.086 C 
ENDBRANCH   7   9
BRANCH   1  15
ATOM     15  C   LIG    1       24.385 -29.419   5.545  0.00  0.00    +0.334 C 
ATOM     16  O   LIG    1       23.167 -29.455   5.583  0.00  0.00    -0.245 OA
BRANCH  15  17
ATOM     17  O   LIG    1       25.131 -28.368   5.117  0.00  0.00    -0.462 OA
BRANCH  17  19
ATOM     18  C   LIG    1       25.821 -26.785   6.846  0.00  0.00    +0.048 C 
ATOM     19  C   LIG    1       24.828 -27.108   5.743  0.00  0.00    +0.229 C 
ENDBRANCH  17  19
ENDBRANCH  15  17
ENDBRANCH   1  15
TORSDOF 4
ENDMDL
MODEL 7
REMARK VINA RESULT:      -4.8      4.997      7.538
REMARK  Name = *****
REMARK                            x       y       z     vdW  Elec       q    Type
REMARK                         _______ _______ _______ _____ _____    ______ ____
ROOT
ATOM      1  C   LIG    1       25.734 -28.670   5.045  0.00  0.00    +0.122 C 
ATOM      2  C   LIG    1       25.285 -29.476   6.021  0.00  0.00    +0.079 C 
ATOM      3  N   LIG    1       25.151 -30.848   5.912  0.00  0.00    -0.267 N 
ATOM      4  C   LIG    1       25.417 -31.583   4.691  0.00  0.00    +0.139 C 
ATOM      5  C   LIG    1       24.777 -31.537   7.072  0.00  0.00    +0.248 C 
ATOM      6  O   LIG    1       24.494 -32.733   7.107  0.00  0.00    -0.273 OA
ATOM      7  C   LIG    1       24.828 -30.619   8.320  0.00  0.00    +0.208 C 
ATOM      8  S   LIG    1       24.737 -28.946   7.574  0.00  0.00    -0.081 S 
ENDROOT
BRANCH   7   9
ATOM      9  N   LIG    1       26.088 -30.848   9.079  0.00  0.00    -0.283 NA
ATOM     10  C   LIG    1       26.682 -29.629   9.660  0.00  0.00    +0.086 C 
ATOM     11  C   LIG    1       25.883 -29.032  10.818  0.00  0.00    +0.015 C 
ATOM     12  C   LIG    1       25.630 -30.066  11.911  0.00  0.00    +0.002 C 
ATOM     13  C   LIG    1       25.085 -31.367  11.333  0.00  0.00    +0.015 C 
ATOM     14  C   LIG    1       25.932 -31.850  10.152  0.00  0.00    +0.086 C 
ENDBRANCH   7   9
BRANCH   1  15
ATOM     15  C   LIG    1       25.937 -27.211   5.154  0.00  0.00    +0.334 C 
ATOM     16  O   LIG    1       26.994 -26.642   5.372  0.00  0.00    -0.245 OA
BRANCH  15  17
ATOM     17  O   LIG    1       24.742 -26.600   4.946  0.00  0.00    -0.462 OA
BRANCH  17  19
ATOM     18  C   LIG    1       23.946 -24.829   6.430  0.00  0.00    +0.048 C 
ATOM     19  C   LIG    1       24.732 -25.180   5.178  0.00  0.00    +0.229 C 
ENDBRANCH  17  19
ENDBRANCH  15  17
ENDBRANCH   1  15
TORSDOF 4
ENDMDL
MODEL 8
REMARK VINA RESULT:      -4.7      3.300      4.627
REMARK  Name = *****
REMARK                            x       y       z     vdW  Elec       q    Type
REMARK                         _______ _______ _______ _____ _____    ______ ____
ROOT
ATOM      1  C   LIG    1       28.860 -19.722   6.748  0.00  0.00    +0.122 C 
ATOM      2  C   LIG    1       27.785 -20.473   6.457  0.00  0.00    +0.079 C 
ATOM      3  N   LIG    1       27.296 -21.492   7.253  0.00  0.00    -0.267 N 
ATOM      4  C   LIG    1       27.934 -21.925   8.480  0.00  0.00    +0.139 C 
ATOM      5  C   LIG    1       26.097 -22.088   6.844  0.00  0.00    +0.248 C 
ATOM      6  O   LIG    1       25.604 -23.084   7.370  0.00  0.00    -0.273 OA
ATOM      7  C   LIG    1       25.433 -21.296   5.688  0.00  0.00    +0.208 C 
ATOM      8  S   LIG    1       26.847 -20.345   5.009  0.00  0.00    -0.081 S 
ENDROOT
BRANCH   7   9
ATOM      9  N   LIG    1       24.347 -20.425   6.216  0.00  0.00    -0.283 NA
ATOM     10  C   LIG    1       23.657 -19.620   5.191  0.00  0.00    +0.086 C 
ATOM     11  C   LIG    1       22.784 -20.435   4.236  0.00  0.00    +0.015 C 
ATOM     12  C   LIG    1       21.777 -21.291   4.997  0.00  0.00    +0.002 C 
ATOM     13  C   LIG    1       22.449 -22.080   6.115  0.00  0.00    +0.015 C 
ATOM     14  C   LIG    1       23.334 -21.178   6.981  0.00  0.00    +0.086 C 
ENDBRANCH   7   9
BRANCH   1  15
ATOM     15  C   LIG    1       29.371 -18.594   5.942  0.00  0.00    +0.334 C 
ATOM     16  O   LIG    1       28.736 -17.938   5.133  0.00  0.00    -0.245 OA
BRANCH  15  17
ATOM     17  O   LIG    1       30.673 -18.393   6.272  0.00  0.00    -0.462 OA
BRANCH  17  19
ATOM     18  C   LIG    1       31.775 -18.303   8.451  0.00  0.00    +0.048 C 
ATOM     19  C   LIG    1       31.152 -19.179   7.379  0.00  0.00    +0.229 C 
ENDBRANCH  17  19
ENDBRANCH  15  17
ENDBRANCH   1  15
TORSDOF 4
ENDMDL
MODEL 9
REMARK VINA RESULT:      -4.6      5.157      9.152
REMARK  Name = *****
REMARK                            x       y       z     vdW  Elec       q    Type
REMARK                         _______ _______ _______ _____ _____    ______ ____
ROOT
ATOM      1  C   LIG    1       25.277 -32.360   6.515  0.00  0.00    +0.122 C 
ATOM      2  C   LIG    1       25.147 -31.091   6.934  0.00  0.00    +0.079 C 
ATOM      3  N   LIG    1       25.825 -30.540   8.006  0.00  0.00    -0.267 N 
ATOM      4  C   LIG    1       26.717 -31.297   8.861  0.00  0.00    +0.139 C 
ATOM      5  C   LIG    1       25.649 -29.168   8.223  0.00  0.00    +0.248 C 
ATOM      6  O   LIG    1       26.079 -28.561   9.202  0.00  0.00    -0.273 OA
ATOM      7  C   LIG    1       24.903 -28.496   7.041  0.00  0.00    +0.208 C 
ATOM      8  S   LIG    1       24.067 -29.924   6.250  0.00  0.00    -0.081 S 
ENDROOT
BRANCH   7   9
ATOM      9  N   LIG    1       25.872 -27.816   6.138  0.00  0.00    -0.283 NA
ATOM     10  C   LIG    1       25.306 -27.393   4.844  0.00  0.00    +0.086 C 
ATOM     11  C   LIG    1       24.311 -26.237   4.941  0.00  0.00    +0.015 C 
ATOM     12  C   LIG    1       24.918 -25.040   5.665  0.00  0.00    +0.002 C 
ATOM     13  C   LIG    1       25.578 -25.456   6.975  0.00  0.00    +0.015 C 
ATOM     14  C   LIG    1       26.517 -26.649   6.771  0.00  0.00    +0.086 C 
ENDBRANCH   7   9
BRANCH   1  15
ATOM     15  C   LIG    1       24.605 -32.957   5.342  0.00  0.00    +0.334 C 
ATOM     16  O   LIG    1       23.402 -33.072   5.179  0.00  0.00    -0.245 OA
BRANCH  15  17
ATOM     17  O   LIG    1       25.561 -33.340   4.456  0.00  0.00    -0.462 OA
BRANCH  17  19
ATOM     18  C   LIG    1       26.758 -32.994   2.354  0.00  0.00    +0.048 C 
ATOM     19  C   LIG    1       25.547 -32.639   3.199  0.00  0.00    +0.229 C 
ENDBRANCH  17  19
ENDBRANCH  15  17
ENDBRANCH   1  15
TORSDOF 4
ENDMDL
