MODEL 1
REMARK VINA RESULT:      -8.0      0.000      0.000
REMARK  Name = *****
REMARK                            x       y       z     vdW  Elec       q    Type
REMARK                         _______ _______ _______ _____ _____    ______ ____
ROOT
ATOM      1  C   LIG    1       24.466 -20.431   4.574  0.00  0.00    +0.065 C 
ATOM      2  C   LIG    1       25.412 -21.456   5.215  0.00  0.00    +0.102 C 
ATOM      3  C   LIG    1       24.666 -22.588   5.940  0.00  0.00    +0.065 C 
ATOM      4  C   LIG    1       23.376 -22.414   6.312  0.00  0.00    +0.016 C 
ATOM      5  C   LIG    1       22.578 -23.361   7.171  0.00  0.00    +0.061 C 
ATOM      6  N   LIG    1       22.698 -21.287   5.892  0.00  0.00    -0.321 N 
ATOM      7  H   LIG    1       21.754 -21.153   6.246  0.00  0.00    +0.152 HD
ATOM      8  C   LIG    1       23.172 -20.373   4.963  0.00  0.00    +0.016 C 
ATOM      9  C   LIG    1       22.187 -19.308   4.551  0.00  0.00    +0.061 C 
ENDROOT
BRANCH   2  10
ATOM     10  C   LIG    1       26.477 -20.802   6.128  0.00  0.00    +0.042 A 
ATOM     11  C   LIG    1       26.412 -20.656   7.531  0.00  0.00    +0.277 A 
ATOM     12  C   LIG    1       27.458 -20.089   8.282  0.00  0.00    +0.084 A 
ATOM     13  C   LIG    1       28.610 -19.654   7.642  0.00  0.00    +0.007 A 
ATOM     14  C   LIG    1       28.698 -19.750   6.257  0.00  0.00    +0.001 A 
ATOM     15  C   LIG    1       27.646 -20.300   5.513  0.00  0.00    +0.011 A 
BRANCH  11  16
ATOM     16  N   LIG    1       25.252 -21.028   8.315  0.00  0.00    +0.080 N 
ATOM     17  O   LIG    1       24.252 -20.304   8.203  0.00  0.00    -0.576 OA
ATOM     18  O   LIG    1       25.380 -21.971   9.105  0.00  0.00    +0.042 OA
ENDBRANCH  11  16
ENDBRANCH   2  10
BRANCH   1  19
ATOM     19  C   LIG    1       25.001 -19.521   3.507  0.00  0.00    +0.337 C 
ATOM     20  O   LIG    1       25.223 -19.837   2.362  0.00  0.00    -0.245 OA
BRANCH  19  22
ATOM     21  C   LIG    1       25.993 -17.385   3.262  0.00  0.00    +0.280 C 
ATOM     22  O   LIG    1       25.217 -18.287   4.052  0.00  0.00    -0.465 OA
ENDBRANCH  19  22
ENDBRANCH   1  19
BRANCH   3  23
ATOM     23  C   LIG    1       25.368 -23.905   6.050  0.00  0.00    +0.338 C 
ATOM     24  O   LIG    1       26.263 -24.140   6.840  0.00  0.00    -0.245 OA
BRANCH  23  25
ATOM     25  O   LIG    1       25.000 -24.714   5.019  0.00  0.00    -0.461 OA
BRANCH  25  26
ATOM     26  C   LIG    1       24.232 -25.893   5.303  0.00  0.00    +0.235 C 
BRANCH  26  27
ATOM     27  C   LIG    1       25.108 -27.082   5.728  0.00  0.00    +0.021 C 
ATOM     28  C   LIG    1       26.387 -27.213   4.897  0.00  0.00    +0.010 C 
ATOM     29  C   LIG    1       24.324 -28.391   5.686  0.00  0.00    +0.010 C 
ENDBRANCH  26  27
ENDBRANCH  25  26
ENDBRANCH  23  25
ENDBRANCH   3  23
TORSDOF 8
ENDMDL
MODEL 2
REMARK VINA RESULT:      -7.5      2.185      5.205
REMARK  Name = *****
REMARK                            x       y       z     vdW  Elec       q    Type
REMARK                         _______ _______ _______ _____ _____    ______ ____
ROOT
ATOM      1  C   LIG    1       24.592 -20.468   5.177  0.00  0.00    +0.065 C 
ATOM      2  C   LIG    1       25.154 -21.046   6.483  0.00  0.00    +0.102 C 
ATOM      3  C   LIG    1       26.566 -20.528   6.807  0.00  0.00    +0.065 C 
ATOM      4  C   LIG    1       27.330 -19.997   5.825  0.00  0.00    +0.016 C 
ATOM      5  C   LIG    1       28.781 -19.609   5.958  0.00  0.00    +0.061 C 
ATOM      6  N   LIG    1       26.774 -19.776   4.580  0.00  0.00    -0.321 N 
ATOM      7  H   LIG    1       27.393 -19.442   3.847  0.00  0.00    +0.152 HD
ATOM      8  C   LIG    1       25.425 -19.895   4.279  0.00  0.00    +0.016 C 
ATOM      9  C   LIG    1       25.038 -19.453   2.891  0.00  0.00    +0.061 C 
ENDROOT
BRANCH   2  10
ATOM     10  C   LIG    1       25.090 -22.591   6.534  0.00  0.00    +0.042 A 
ATOM     11  C   LIG    1       23.950 -23.382   6.797  0.00  0.00    +0.277 A 
ATOM     12  C   LIG    1       23.982 -24.788   6.773  0.00  0.00    +0.084 A 
ATOM     13  C   LIG    1       25.168 -25.446   6.477  0.00  0.00    +0.007 A 
ATOM     14  C   LIG    1       26.321 -24.703   6.246  0.00  0.00    +0.001 A 
ATOM     15  C   LIG    1       26.286 -23.303   6.289  0.00  0.00    +0.011 A 
BRANCH  11  16
ATOM     16  N   LIG    1       22.663 -22.824   7.161  0.00  0.00    +0.080 N 
ATOM     17  O   LIG    1       22.673 -21.900   7.987  0.00  0.00    -0.576 OA
ATOM     18  O   LIG    1       21.656 -23.374   6.700  0.00  0.00    +0.042 OA
ENDBRANCH  11  16
ENDBRANCH   2  10
BRANCH   1  19
ATOM     19  C   LIG    1       23.113 -20.538   4.932  0.00  0.00    +0.337 C 
ATOM     20  O   LIG    1       22.547 -21.395   4.297  0.00  0.00    -0.245 OA
BRANCH  19  22
ATOM     21  C   LIG    1       22.117 -18.408   4.647  0.00  0.00    +0.280 C 
ATOM     22  O   LIG    1       22.519 -19.460   5.526  0.00  0.00    -0.465 OA
ENDBRANCH  19  22
ENDBRANCH   1  19
BRANCH   3  23
ATOM     23  C   LIG    1       26.961 -20.489   8.250  0.00  0.00    +0.338 C 
ATOM     24  O   LIG    1       26.174 -20.423   9.175  0.00  0.00    -0.245 OA
BRANCH  23  25
ATOM     25  O   LIG    1       28.310 -20.336   8.356  0.00  0.00    -0.461 OA
BRANCH  25  26
ATOM     26  C   LIG    1       29.130 -21.505   8.508  0.00  0.00    +0.235 C 
BRANCH  26  27
ATOM     27  C   LIG    1       30.632 -21.188   8.436  0.00  0.00    +0.021 C 
ATOM     28  C   LIG    1       31.494 -22.190   9.207  0.00  0.00    +0.010 C 
ATOM     29  C   LIG    1       30.923 -19.771   8.920  0.00  0.00    +0.010 C 
ENDBRANCH  26  27
ENDBRANCH  25  26
ENDBRANCH  23  25
ENDBRANCH   3  23
TORSDOF 8
ENDMDL
MODEL 3
REMARK VINA RESULT:      -6.6      5.712      9.979
REMARK  Name = *****
REMARK                            x       y       z     vdW  Elec       q    Type
REMARK                         _______ _______ _______ _____ _____    ______ ____
ROOT
ATOM      1  C   LIG    1       23.727 -30.736   8.919  0.00  0.00    +0.065 C 
ATOM      2  C   LIG    1       24.605 -29.494   8.718  0.00  0.00    +0.102 C 
ATOM      3  C   LIG    1       25.065 -29.315   7.261  0.00  0.00    +0.065 C 
ATOM      4  C   LIG    1       25.042 -30.370   6.414  0.00  0.00    +0.016 C 
ATOM      5  C   LIG    1       25.617 -30.386   5.020  0.00  0.00    +0.061 C 
ATOM      6  N   LIG    1       24.455 -31.552   6.821  0.00  0.00    -0.321 N 
ATOM      7  H   LIG    1       24.517 -32.345   6.188  0.00  0.00    +0.152 HD
ATOM      8  C   LIG    1       23.718 -31.715   7.985  0.00  0.00    +0.016 C 
ATOM      9  C   LIG    1       23.047 -33.056   8.136  0.00  0.00    +0.061 C 
ENDROOT
BRANCH   2  10
ATOM     10  C   LIG    1       25.800 -29.437   9.701  0.00  0.00    +0.042 A 
ATOM     11  C   LIG    1       26.767 -30.442   9.914  0.00  0.00    +0.277 A 
ATOM     12  C   LIG    1       27.849 -30.277  10.798  0.00  0.00    +0.084 A 
ATOM     13  C   LIG    1       27.995 -29.086  11.495  0.00  0.00    +0.007 A 
ATOM     14  C   LIG    1       27.043 -28.084  11.338  0.00  0.00    +0.001 A 
ATOM     15  C   LIG    1       25.958 -28.262  10.469  0.00  0.00    +0.011 A 
BRANCH  11  16
ATOM     16  N   LIG    1       26.710 -31.746   9.284  0.00  0.00    +0.080 N 
ATOM     17  O   LIG    1       26.294 -32.682   9.983  0.00  0.00    -0.576 OA
ATOM     18  O   LIG    1       27.171 -31.845   8.140  0.00  0.00    +0.042 OA
ENDBRANCH  11  16
ENDBRANCH   2  10
BRANCH   1  19
ATOM     19  C   LIG    1       22.875 -30.829  10.152  0.00  0.00    +0.337 C 
ATOM     20  O   LIG    1       21.711 -30.517  10.225  0.00  0.00    -0.245 OA
BRANCH  19  22
ATOM     21  C   LIG    1       23.157 -32.472  11.835  0.00  0.00    +0.280 C 
ATOM     22  O   LIG    1       23.643 -31.299  11.180  0.00  0.00    -0.465 OA
ENDBRANCH  19  22
ENDBRANCH   1  19
BRANCH   3  23
ATOM     23  C   LIG    1       25.362 -27.920   6.808  0.00  0.00    +0.338 C 
ATOM     24  O   LIG    1       26.443 -27.376   6.928  0.00  0.00    -0.245 OA
BRANCH  23  25
ATOM     25  O   LIG    1       24.208 -27.299   6.436  0.00  0.00    -0.461 OA
BRANCH  25  26
ATOM     26  C   LIG    1       24.289 -26.044   5.745  0.00  0.00    +0.235 C 
BRANCH  26  27
ATOM     27  C   LIG    1       24.326 -24.842   6.702  0.00  0.00    +0.021 C 
ATOM     28  C   LIG    1       23.072 -23.969   6.618  0.00  0.00    +0.010 C 
ATOM     29  C   LIG    1       25.570 -23.990   6.473  0.00  0.00    +0.010 C 
ENDBRANCH  26  27
ENDBRANCH  25  26
ENDBRANCH  23  25
ENDBRANCH   3  23
TORSDOF 8
ENDMDL
MODEL 4
REMARK VINA RESULT:      -6.3      7.199     10.378
REMARK  Name = *****
REMARK                            x       y       z     vdW  Elec       q    Type
REMARK                         _______ _______ _______ _____ _____    ______ ____
ROOT
ATOM      1  C   LIG    1       24.982 -32.200   7.827  0.00  0.00    +0.065 C 
ATOM      2  C   LIG    1       25.087 -31.086   8.878  0.00  0.00    +0.102 C 
ATOM      3  C   LIG    1       23.937 -31.117   9.899  0.00  0.00    +0.065 C 
ATOM      4  C   LIG    1       22.790 -31.770   9.602  0.00  0.00    +0.016 C 
ATOM      5  C   LIG    1       21.527 -31.741  10.425  0.00  0.00    +0.061 C 
ATOM      6  N   LIG    1       22.726 -32.537   8.455  0.00  0.00    -0.321 N 
ATOM      7  H   LIG    1       21.829 -32.957   8.225  0.00  0.00    +0.152 HD
ATOM      8  C   LIG    1       23.807 -32.845   7.643  0.00  0.00    +0.016 C 
ATOM      9  C   LIG    1       23.518 -33.825   6.534  0.00  0.00    +0.061 C 
ENDROOT
BRANCH   2  10
ATOM     10  C   LIG    1       25.252 -29.681   8.251  0.00  0.00    +0.042 A 
ATOM     11  C   LIG    1       26.135 -28.665   8.675  0.00  0.00    +0.277 A 
ATOM     12  C   LIG    1       26.248 -27.432   8.007  0.00  0.00    +0.084 A 
ATOM     13  C   LIG    1       25.474 -27.185   6.881  0.00  0.00    +0.007 A 
ATOM     14  C   LIG    1       24.567 -28.148   6.452  0.00  0.00    +0.001 A 
ATOM     15  C   LIG    1       24.447 -29.367   7.133  0.00  0.00    +0.011 A 
BRANCH  11  16
ATOM     16  N   LIG    1       26.966 -28.777   9.857  0.00  0.00    +0.080 N 
ATOM     17  O   LIG    1       27.742 -29.743   9.899  0.00  0.00    -0.576 OA
ATOM     18  O   LIG    1       26.768 -27.965  10.769  0.00  0.00    +0.042 OA
ENDBRANCH  11  16
ENDBRANCH   2  10
BRANCH   1  19
ATOM     19  C   LIG    1       26.203 -32.563   7.033  0.00  0.00    +0.337 C 
ATOM     20  O   LIG    1       27.104 -33.271   7.416  0.00  0.00    -0.245 OA
BRANCH  19  22
ATOM     21  C   LIG    1       26.479 -32.742   4.688  0.00  0.00    +0.280 C 
ATOM     22  O   LIG    1       26.137 -31.940   5.819  0.00  0.00    -0.465 OA
ENDBRANCH  19  22
ENDBRANCH   1  19
BRANCH   3  23
ATOM     23  C   LIG    1       24.217 -30.552  11.257  0.00  0.00    +0.338 C 
ATOM     24  O   LIG    1       24.729 -31.177  12.166  0.00  0.00    -0.245 OA
BRANCH  23  25
ATOM     25  O   LIG    1       23.638 -29.325  11.376  0.00  0.00    -0.461 OA
BRANCH  25  26
ATOM     26  C   LIG    1       23.843 -28.577  12.583  0.00  0.00    +0.235 C 
BRANCH  26  27
ATOM     27  C   LIG    1       22.528 -28.080  13.204  0.00  0.00    +0.021 C 
ATOM     28  C   LIG    1       21.286 -28.625  12.493  0.00  0.00    +0.010 C 
ATOM     29  C   LIG    1       22.476 -26.556  13.246  0.00  0.00    +0.010 C 
ENDBRANCH  26  27
ENDBRANCH  25  26
ENDBRANCH  23  25
ENDBRANCH   3  23
TORSDOF 8
ENDMDL
MODEL 5
REMARK VINA RESULT:      -6.3      6.657     10.582
REMARK  Name = *****
REMARK                            x       y       z     vdW  Elec       q    Type
REMARK                         _______ _______ _______ _____ _____    ______ ____
ROOT
ATOM      1  C   LIG    1       22.999 -31.502   9.217  0.00  0.00    +0.065 C 
ATOM      2  C   LIG    1       23.957 -30.610   8.415  0.00  0.00    +0.102 C 
ATOM      3  C   LIG    1       24.283 -31.182   7.025  0.00  0.00    +0.065 C 
ATOM      4  C   LIG    1       24.085 -32.496   6.774  0.00  0.00    +0.016 C 
ATOM      5  C   LIG    1       24.514 -33.224   5.525  0.00  0.00    +0.061 C 
ATOM      6  N   LIG    1       23.440 -33.275   7.715  0.00  0.00    -0.321 N 
ATOM      7  H   LIG    1       23.370 -34.271   7.526  0.00  0.00    +0.152 HD
ATOM      8  C   LIG    1       22.812 -32.791   8.853  0.00  0.00    +0.016 C 
ATOM      9  C   LIG    1       22.045 -33.817   9.648  0.00  0.00    +0.061 C 
ENDROOT
BRANCH   2  10
ATOM     10  C   LIG    1       25.244 -30.254   9.198  0.00  0.00    +0.042 A 
ATOM     11  C   LIG    1       26.144 -31.160   9.801  0.00  0.00    +0.277 A 
ATOM     12  C   LIG    1       27.318 -30.740  10.452  0.00  0.00    +0.084 A 
ATOM     13  C   LIG    1       27.628 -29.388  10.512  0.00  0.00    +0.007 A 
ATOM     14  C   LIG    1       26.749 -28.463   9.961  0.00  0.00    +0.001 A 
ATOM     15  C   LIG    1       25.572 -28.886   9.329  0.00  0.00    +0.011 A 
BRANCH  11  16
ATOM     16  N   LIG    1       25.920 -32.591   9.847  0.00  0.00    +0.080 N 
ATOM     17  O   LIG    1       26.274 -33.240   8.852  0.00  0.00    -0.576 OA
ATOM     18  O   LIG    1       25.307 -33.038  10.824  0.00  0.00    +0.042 OA
ENDBRANCH  11  16
ENDBRANCH   2  10
BRANCH   1  19
ATOM     19  C   LIG    1       22.270 -30.909  10.388  0.00  0.00    +0.337 C 
ATOM     20  O   LIG    1       22.760 -30.650  11.461  0.00  0.00    -0.245 OA
BRANCH  19  22
ATOM     21  C   LIG    1       20.023 -30.775  11.125  0.00  0.00    +0.280 C 
ATOM     22  O   LIG    1       20.958 -30.738  10.046  0.00  0.00    -0.465 OA
ENDBRANCH  19  22
ENDBRANCH   1  19
BRANCH   3  23
ATOM     23  C   LIG    1       24.653 -30.202   5.956  0.00  0.00    +0.338 C 
ATOM     24  O   LIG    1       25.665 -30.269   5.286  0.00  0.00    -0.245 OA
BRANCH  23  25
ATOM     25  O   LIG    1       23.804 -29.137   5.990  0.00  0.00    -0.461 OA
BRANCH  25  26
ATOM     26  C   LIG    1       24.205 -27.911   5.363  0.00  0.00    +0.235 C 
BRANCH  26  27
ATOM     27  C   LIG    1       24.683 -26.857   6.375  0.00  0.00    +0.021 C 
ATOM     28  C   LIG    1       24.047 -25.482   6.155  0.00  0.00    +0.010 C 
ATOM     29  C   LIG    1       26.204 -26.734   6.371  0.00  0.00    +0.010 C 
ENDBRANCH  26  27
ENDBRANCH  25  26
ENDBRANCH  23  25
ENDBRANCH   3  23
TORSDOF 8
ENDMDL
MODEL 6
REMARK VINA RESULT:      -6.1      8.721     11.137
REMARK  Name = *****
REMARK                            x       y       z     vdW  Elec       q    Type
REMARK                         _______ _______ _______ _____ _____    ______ ____
ROOT
ATOM      1  C   LIG    1       25.801 -30.258  11.215  0.00  0.00    +0.065 C 
ATOM      2  C   LIG    1       24.871 -30.733  10.090  0.00  0.00    +0.102 C 
ATOM      3  C   LIG    1       23.727 -31.626  10.599  0.00  0.00    +0.065 C 
ATOM      4  C   LIG    1       23.832 -32.237  11.801  0.00  0.00    +0.016 C 
ATOM      5  C   LIG    1       22.875 -33.265  12.348  0.00  0.00    +0.061 C 
ATOM      6  N   LIG    1       24.892 -31.922  12.629  0.00  0.00    -0.321 N 
ATOM      7  H   LIG    1       24.980 -32.449  13.494  0.00  0.00    +0.152 HD
ATOM      8  C   LIG    1       25.793 -30.890  12.411  0.00  0.00    +0.016 C 
ATOM      9  C   LIG    1       26.770 -30.644  13.532  0.00  0.00    +0.061 C 
ENDROOT
BRANCH   2  10
ATOM     10  C   LIG    1       25.634 -31.400   8.920  0.00  0.00    +0.042 A 
ATOM     11  C   LIG    1       25.520 -31.086   7.549  0.00  0.00    +0.277 A 
ATOM     12  C   LIG    1       26.295 -31.717   6.560  0.00  0.00    +0.084 A 
ATOM     13  C   LIG    1       27.220 -32.687   6.923  0.00  0.00    +0.007 A 
ATOM     14  C   LIG    1       27.338 -33.048   8.261  0.00  0.00    +0.001 A 
ATOM     15  C   LIG    1       26.550 -32.428   9.239  0.00  0.00    +0.011 A 
BRANCH  11  16
ATOM     16  N   LIG    1       24.566 -30.126   7.031  0.00  0.00    +0.080 N 
ATOM     17  O   LIG    1       23.555 -30.590   6.482  0.00  0.00    -0.576 OA
ATOM     18  O   LIG    1       24.877 -28.930   7.086  0.00  0.00    +0.042 OA
ENDBRANCH  11  16
ENDBRANCH   2  10
BRANCH   1  19
ATOM     19  C   LIG    1       26.695 -29.078  10.964  0.00  0.00    +0.337 C 
ATOM     20  O   LIG    1       27.793 -29.124  10.461  0.00  0.00    -0.245 OA
BRANCH  19  22
ATOM     21  C   LIG    1       26.844 -27.121  12.289  0.00  0.00    +0.280 C 
ATOM     22  O   LIG    1       26.072 -27.951  11.420  0.00  0.00    -0.465 OA
ENDBRANCH  19  22
ENDBRANCH   1  19
BRANCH   3  23
ATOM     23  C   LIG    1       22.465 -31.639   9.794  0.00  0.00    +0.338 C 
ATOM     24  O   LIG    1       22.221 -32.445   8.915  0.00  0.00    -0.245 OA
BRANCH  23  25
ATOM     25  O   LIG    1       21.741 -30.515  10.050  0.00  0.00    -0.461 OA
BRANCH  25  26
ATOM     26  C   LIG    1       20.608 -30.606  10.927  0.00  0.00    +0.235 C 
BRANCH  26  27
ATOM     27  C   LIG    1       20.765 -29.741  12.188  0.00  0.00    +0.021 C 
ATOM     28  C   LIG    1       22.089 -28.975  12.230  0.00  0.00    +0.010 C 
ATOM     29  C   LIG    1       20.606 -30.576  13.455  0.00  0.00    +0.010 C 
ENDBRANCH  26  27
ENDBRANCH  25  26
ENDBRANCH  23  25
ENDBRANCH   3  23
TORSDOF 8
ENDMDL
MODEL 7
REMARK VINA RESULT:      -6.0      6.788     10.890
REMARK  Name = *****
REMARK                            x       y       z     vdW  Elec       q    Type
REMARK                         _______ _______ _______ _____ _____    ______ ____
ROOT
ATOM      1  C   LIG    1       22.428 -31.443   9.742  0.00  0.00    +0.065 C 
ATOM      2  C   LIG    1       23.489 -30.333   9.724  0.00  0.00    +0.102 C 
ATOM      3  C   LIG    1       24.460 -30.454   8.537  0.00  0.00    +0.065 C 
ATOM      4  C   LIG    1       24.590 -31.635   7.892  0.00  0.00    +0.016 C 
ATOM      5  C   LIG    1       25.617 -31.945   6.831  0.00  0.00    +0.061 C 
ATOM      6  N   LIG    1       23.733 -32.673   8.200  0.00  0.00    -0.321 N 
ATOM      7  H   LIG    1       23.903 -33.568   7.748  0.00  0.00    +0.152 HD
ATOM      8  C   LIG    1       22.614 -32.566   9.012  0.00  0.00    +0.016 C 
ATOM      9  C   LIG    1       21.748 -33.798   9.076  0.00  0.00    +0.061 C 
ENDROOT
BRANCH   2  10
ATOM     10  C   LIG    1       24.248 -30.205  11.067  0.00  0.00    +0.042 A 
ATOM     11  C   LIG    1       25.107 -31.163  11.647  0.00  0.00    +0.277 A 
ATOM     12  C   LIG    1       25.793 -30.934  12.854  0.00  0.00    +0.084 A 
ATOM     13  C   LIG    1       25.639 -29.723  13.515  0.00  0.00    +0.007 A 
ATOM     14  C   LIG    1       24.774 -28.767  12.993  0.00  0.00    +0.001 A 
ATOM     15  C   LIG    1       24.081 -29.009  11.800  0.00  0.00    +0.011 A 
BRANCH  11  16
ATOM     16  N   LIG    1       25.322 -32.481  11.084  0.00  0.00    +0.080 N 
ATOM     17  O   LIG    1       24.548 -33.376  11.455  0.00  0.00    -0.576 OA
ATOM     18  O   LIG    1       26.314 -32.634  10.361  0.00  0.00    +0.042 OA
ENDBRANCH  11  16
ENDBRANCH   2  10
BRANCH   1  19
ATOM     19  C   LIG    1       21.188 -31.245  10.565  0.00  0.00    +0.337 C 
ATOM     20  O   LIG    1       20.178 -30.698  10.191  0.00  0.00    -0.245 OA
BRANCH  19  22
ATOM     21  C   LIG    1       21.029 -30.922  12.906  0.00  0.00    +0.280 C 
ATOM     22  O   LIG    1       21.403 -31.761  11.812  0.00  0.00    -0.465 OA
ENDBRANCH  19  22
ENDBRANCH   1  19
BRANCH   3  23
ATOM     23  C   LIG    1       25.096 -29.190   8.048  0.00  0.00    +0.338 C 
ATOM     24  O   LIG    1       26.046 -28.650   8.582  0.00  0.00    -0.245 OA
BRANCH  23  25
ATOM     25  O   LIG    1       24.337 -28.644   7.058  0.00  0.00    -0.461 OA
BRANCH  25  26
ATOM     26  C   LIG    1       24.924 -28.452   5.762  0.00  0.00    +0.235 C 
BRANCH  26  27
ATOM     27  C   LIG    1       25.194 -26.972   5.448  0.00  0.00    +0.021 C 
ATOM     28  C   LIG    1       26.606 -26.525   5.831  0.00  0.00    +0.010 C 
ATOM     29  C   LIG    1       24.163 -26.066   6.115  0.00  0.00    +0.010 C 
ENDBRANCH  26  27
ENDBRANCH  25  26
ENDBRANCH  23  25
ENDBRANCH   3  23
TORSDOF 8
ENDMDL
MODEL 8
REMARK VINA RESULT:      -5.9      8.441     11.130
REMARK  Name = *****
REMARK                            x       y       z     vdW  Elec       q    Type
REMARK                         _______ _______ _______ _____ _____    ______ ____
ROOT
ATOM      1  C   LIG    1       25.120 -30.249   9.365  0.00  0.00    +0.065 C 
ATOM      2  C   LIG    1       24.878 -29.440  10.646  0.00  0.00    +0.102 C 
ATOM      3  C   LIG    1       26.184 -29.019  11.343  0.00  0.00    +0.065 C 
ATOM      4  C   LIG    1       27.335 -29.675  11.069  0.00  0.00    +0.016 C 
ATOM      5  C   LIG    1       28.644 -29.487  11.793  0.00  0.00    +0.061 C 
ATOM      6  N   LIG    1       27.356 -30.605  10.047  0.00  0.00    -0.321 N 
ATOM      7  H   LIG    1       28.217 -31.130   9.914  0.00  0.00    +0.152 HD
ATOM      8  C   LIG    1       26.327 -30.817   9.142  0.00  0.00    +0.016 C 
ATOM      9  C   LIG    1       26.644 -31.777   8.024  0.00  0.00    +0.061 C 
ENDROOT
BRANCH   2  10
ATOM     10  C   LIG    1       23.912 -30.144  11.629  0.00  0.00    +0.042 A 
ATOM     11  C   LIG    1       24.217 -31.226  12.484  0.00  0.00    +0.277 A 
ATOM     12  C   LIG    1       23.279 -31.769  13.382  0.00  0.00    +0.084 A 
ATOM     13  C   LIG    1       22.001 -31.233  13.451  0.00  0.00    +0.007 A 
ATOM     14  C   LIG    1       21.652 -30.190  12.601  0.00  0.00    +0.001 A 
ATOM     15  C   LIG    1       22.585 -29.665  11.697  0.00  0.00    +0.011 A 
BRANCH  11  16
ATOM     16  N   LIG    1       25.498 -31.904  12.482  0.00  0.00    +0.080 N 
ATOM     17  O   LIG    1       25.671 -32.758  11.601  0.00  0.00    -0.576 OA
ATOM     18  O   LIG    1       26.274 -31.652  13.411  0.00  0.00    +0.042 OA
ENDBRANCH  11  16
ENDBRANCH   2  10
BRANCH   1  19
ATOM     19  C   LIG    1       24.004 -30.377   8.369  0.00  0.00    +0.337 C 
ATOM     20  O   LIG    1       23.221 -31.295   8.307  0.00  0.00    -0.245 OA
BRANCH  19  22
ATOM     21  C   LIG    1       24.231 -29.589   6.147  0.00  0.00    +0.280 C 
ATOM     22  O   LIG    1       24.038 -29.297   7.532  0.00  0.00    -0.465 OA
ENDBRANCH  19  22
ENDBRANCH   1  19
BRANCH   3  23
ATOM     23  C   LIG    1       26.140 -27.778  12.178  0.00  0.00    +0.338 C 
ATOM     24  O   LIG    1       26.698 -26.737  11.887  0.00  0.00    -0.245 OA
BRANCH  23  25
ATOM     25  O   LIG    1       25.564 -28.049  13.381  0.00  0.00    -0.461 OA
BRANCH  25  26
ATOM     26  C   LIG    1       25.262 -26.960  14.266  0.00  0.00    +0.235 C 
BRANCH  26  27
ATOM     27  C   LIG    1       23.771 -26.891  14.633  0.00  0.00    +0.021 C 
ATOM     28  C   LIG    1       23.232 -28.205  15.203  0.00  0.00    +0.010 C 
ATOM     29  C   LIG    1       22.926 -26.456  13.440  0.00  0.00    +0.010 C 
ENDBRANCH  26  27
ENDBRANCH  25  26
ENDBRANCH  23  25
ENDBRANCH   3  23
TORSDOF 8
ENDMDL
MODEL 9
REMARK VINA RESULT:      -5.8      8.692     11.234
REMARK  Name = *****
REMARK                            x       y       z     vdW  Elec       q    Type
REMARK                         _______ _______ _______ _____ _____    ______ ____
ROOT
ATOM      1  C   LIG    1       25.606 -29.727  13.147  0.00  0.00    +0.065 C 
ATOM      2  C   LIG    1       24.479 -29.869  12.116  0.00  0.00    +0.102 C 
ATOM      3  C   LIG    1       24.960 -29.657  10.670  0.00  0.00    +0.065 C 
ATOM      4  C   LIG    1       26.119 -29.000  10.437  0.00  0.00    +0.016 C 
ATOM      5  C   LIG    1       26.626 -28.573   9.082  0.00  0.00    +0.061 C 
ATOM      6  N   LIG    1       26.938 -28.673  11.500  0.00  0.00    -0.321 N 
ATOM      7  H   LIG    1       27.766 -28.119  11.297  0.00  0.00    +0.152 HD
ATOM      8  C   LIG    1       26.761 -29.111  12.804  0.00  0.00    +0.016 C 
ATOM      9  C   LIG    1       27.869 -28.747  13.759  0.00  0.00    +0.061 C 
ENDROOT
BRANCH   2  10
ATOM     10  C   LIG    1       23.251 -28.985  12.441  0.00  0.00    +0.042 A 
ATOM     11  C   LIG    1       21.892 -29.345  12.309  0.00  0.00    +0.277 A 
ATOM     12  C   LIG    1       20.841 -28.485  12.678  0.00  0.00    +0.084 A 
ATOM     13  C   LIG    1       21.128 -27.231  13.201  0.00  0.00    +0.007 A 
ATOM     14  C   LIG    1       22.454 -26.827  13.314  0.00  0.00    +0.001 A 
ATOM     15  C   LIG    1       23.495 -27.681  12.928  0.00  0.00    +0.011 A 
BRANCH  11  16
ATOM     16  N   LIG    1       21.455 -30.604  11.740  0.00  0.00    +0.080 N 
ATOM     17  O   LIG    1       20.740 -30.537  10.730  0.00  0.00    -0.576 OA
ATOM     18  O   LIG    1       21.743 -31.636  12.358  0.00  0.00    +0.042 OA
ENDBRANCH  11  16
ENDBRANCH   2  10
BRANCH   1  19
ATOM     19  C   LIG    1       25.406 -30.296  14.521  0.00  0.00    +0.337 C 
ATOM     20  O   LIG    1       25.078 -29.668  15.500  0.00  0.00    -0.245 OA
BRANCH  19  22
ATOM     21  C   LIG    1       26.881 -32.042  15.145  0.00  0.00    +0.280 C 
ATOM     22  O   LIG    1       25.681 -31.634  14.486  0.00  0.00    -0.465 OA
ENDBRANCH  19  22
ENDBRANCH   1  19
BRANCH   3  23
ATOM     23  C   LIG    1       24.188 -30.344   9.588  0.00  0.00    +0.338 C 
ATOM     24  O   LIG    1       23.309 -29.817   8.932  0.00  0.00    -0.245 OA
BRANCH  23  25
ATOM     25  O   LIG    1       24.472 -31.676   9.591  0.00  0.00    -0.461 OA
BRANCH  25  26
ATOM     26  C   LIG    1       24.763 -32.325   8.345  0.00  0.00    +0.235 C 
BRANCH  26  27
ATOM     27  C   LIG    1       26.166 -31.988   7.815  0.00  0.00    +0.021 C 
ATOM     28  C   LIG    1       26.430 -32.550   6.416  0.00  0.00    +0.010 C 
ATOM     29  C   LIG    1       27.251 -32.461   8.779  0.00  0.00    +0.010 C 
ENDBRANCH  26  27
ENDBRANCH  25  26
ENDBRANCH  23  25
ENDBRANCH   3  23
TORSDOF 8
ENDMDL
