MODEL 1
REMARK VINA RESULT:      -6.0      0.000      0.000
REMARK  Name = *****
REMARK                            x       y       z     vdW  Elec       q    Type
REMARK                         _______ _______ _______ _____ _____    ______ ____
ROOT
ATOM      1  C   LIG    1       26.802 -14.902   3.693  0.00  0.00    +0.425 C 
ATOM      2  N   LIG    1       26.742 -16.117   3.267  0.00  0.00    -0.110 NA
ENDROOT
BRANCH   1   3
ATOM      3  N   LIG    1       28.036 -14.332   3.702  0.00  0.00    -0.286 N 
ATOM      4  H   LIG    1       28.204 -13.907   2.797  0.00  0.00    +0.255 HD
ATOM      5  H   LIG    1       28.749 -15.008   3.946  0.00  0.00    +0.255 HD
ENDBRANCH   1   3
BRANCH   1   7
ATOM      6  C   LIG    1       25.083 -13.359   3.511  0.00  0.00    +0.387 C 
ATOM      7  N   LIG    1       25.698 -14.262   4.179  0.00  0.00    -0.004 NA
BRANCH   6   8
ATOM      8  N   LIG    1       23.999 -12.744   4.043  0.00  0.00    -0.289 N 
ATOM      9  H   LIG    1       24.281 -12.134   4.805  0.00  0.00    +0.255 HD
ATOM     10  H   LIG    1       23.460 -12.233   3.354  0.00  0.00    +0.255 HD
ENDBRANCH   6   8
BRANCH   6  11
ATOM     11  N   LIG    1       25.325 -12.846   2.278  0.00  0.00    -0.289 N 
ATOM     12  H   LIG    1       24.489 -12.442   1.857  0.00  0.00    +0.255 HD
ATOM     13  H   LIG    1       26.099 -12.193   2.270  0.00  0.00    +0.255 HD
ENDBRANCH   6  11
ENDBRANCH   1   7
BRANCH   2  14
ATOM     14  C   LIG    1       25.437 -16.787   3.296  0.00  0.00    +0.248 C 
BRANCH  14  15
ATOM     15  C   LIG    1       25.673 -18.303   3.262  0.00  0.00    +0.076 C 
BRANCH  15  16
ATOM     16  C   LIG    1       24.618 -19.099   3.997  0.00  0.00    -0.044 A 
ATOM     17  C   LIG    1       23.280 -18.679   4.011  0.00  0.00    +0.003 A 
ATOM     18  C   LIG    1       22.313 -19.407   4.707  0.00  0.00    +0.000 A 
ATOM     19  C   LIG    1       22.672 -20.559   5.403  0.00  0.00    +0.000 A 
ATOM     20  C   LIG    1       23.999 -20.984   5.401  0.00  0.00    +0.000 A 
ATOM     21  C   LIG    1       24.967 -20.258   4.704  0.00  0.00    +0.003 A 
ENDBRANCH  15  16
ENDBRANCH  14  15
ENDBRANCH   2  14
TORSDOF 7
ENDMDL
MODEL 2
REMARK VINA RESULT:      -6.0      0.052      1.246
REMARK  Name = *****
REMARK                            x       y       z     vdW  Elec       q    Type
REMARK                         _______ _______ _______ _____ _____    ______ ____
ROOT
ATOM      1  C   LIG    1       26.836 -14.875   3.702  0.00  0.00    +0.425 C 
ATOM      2  N   LIG    1       26.765 -16.090   3.276  0.00  0.00    -0.110 NA
ENDROOT
BRANCH   1   3
ATOM      3  N   LIG    1       28.073 -14.312   3.703  0.00  0.00    -0.286 N 
ATOM      4  H   LIG    1       28.766 -15.053   3.704  0.00  0.00    +0.255 HD
ATOM      5  H   LIG    1       28.187 -13.681   4.486  0.00  0.00    +0.255 HD
ENDBRANCH   1   3
BRANCH   1   7
ATOM      6  C   LIG    1       25.106 -13.344   3.522  0.00  0.00    +0.387 C 
ATOM      7  N   LIG    1       25.739 -14.229   4.197  0.00  0.00    -0.004 NA
BRANCH   6   8
ATOM      8  N   LIG    1       24.030 -12.722   4.062  0.00  0.00    -0.289 N 
ATOM      9  H   LIG    1       24.070 -11.725   3.870  0.00  0.00    +0.255 HD
ATOM     10  H   LIG    1       23.151 -13.113   3.747  0.00  0.00    +0.255 HD
ENDBRANCH   6   8
BRANCH   6  11
ATOM     11  N   LIG    1       25.319 -12.859   2.272  0.00  0.00    -0.289 N 
ATOM     12  H   LIG    1       25.647 -11.894   2.283  0.00  0.00    +0.255 HD
ATOM     13  H   LIG    1       25.926 -13.452   1.719  0.00  0.00    +0.255 HD
ENDBRANCH   6  11
ENDBRANCH   1   7
BRANCH   2  14
ATOM     14  C   LIG    1       25.457 -16.751   3.315  0.00  0.00    +0.248 C 
BRANCH  14  15
ATOM     15  C   LIG    1       25.683 -18.268   3.263  0.00  0.00    +0.076 C 
BRANCH  15  16
ATOM     16  C   LIG    1       24.628 -19.065   3.996  0.00  0.00    -0.044 A 
ATOM     17  C   LIG    1       24.955 -20.260   4.652  0.00  0.00    +0.003 A 
ATOM     18  C   LIG    1       23.973 -21.003   5.312  0.00  0.00    +0.000 A 
ATOM     19  C   LIG    1       22.652 -20.563   5.318  0.00  0.00    +0.000 A 
ATOM     20  C   LIG    1       22.312 -19.380   4.665  0.00  0.00    +0.000 A 
ATOM     21  C   LIG    1       23.293 -18.636   4.007  0.00  0.00    +0.003 A 
ENDBRANCH  15  16
ENDBRANCH  14  15
ENDBRANCH   2  14
TORSDOF 7
ENDMDL
MODEL 3
REMARK VINA RESULT:      -5.5      1.079      2.396
REMARK  Name = *****
REMARK                            x       y       z     vdW  Elec       q    Type
REMARK                         _______ _______ _______ _____ _____    ______ ____
ROOT
ATOM      1  C   LIG    1       25.517 -14.897   3.493  0.00  0.00    +0.425 C 
ATOM      2  N   LIG    1       25.161 -16.130   3.617  0.00  0.00    -0.110 NA
ENDROOT
BRANCH   1   3
ATOM      3  N   LIG    1       24.527 -13.974   3.624  0.00  0.00    -0.286 N 
ATOM      4  H   LIG    1       24.825 -13.114   3.175  0.00  0.00    +0.255 HD
ATOM      5  H   LIG    1       24.284 -13.834   4.596  0.00  0.00    +0.255 HD
ENDBRANCH   1   3
BRANCH   1   7
ATOM      6  C   LIG    1       27.526 -13.832   3.937  0.00  0.00    +0.387 C 
ATOM      7  N   LIG    1       26.798 -14.553   3.170  0.00  0.00    -0.004 NA
BRANCH   6   8
ATOM      8  N   LIG    1       28.788 -13.508   3.565  0.00  0.00    -0.289 N 
ATOM      9  H   LIG    1       28.790 -13.143   2.617  0.00  0.00    +0.255 HD
ATOM     10  H   LIG    1       29.230 -12.857   4.202  0.00  0.00    +0.255 HD
ENDBRANCH   6   8
BRANCH   6  11
ATOM     11  N   LIG    1       27.262 -13.274   5.146  0.00  0.00    -0.289 N 
ATOM     12  H   LIG    1       26.373 -12.777   5.156  0.00  0.00    +0.255 HD
ATOM     13  H   LIG    1       27.325 -13.939   5.907  0.00  0.00    +0.255 HD
ENDBRANCH   6  11
ENDBRANCH   1   7
BRANCH   2  14
ATOM     14  C   LIG    1       26.190 -17.158   3.425  0.00  0.00    +0.248 C 
BRANCH  14  15
ATOM     15  C   LIG    1       25.504 -18.436   2.921  0.00  0.00    +0.076 C 
BRANCH  15  16
ATOM     16  C   LIG    1       24.656 -19.123   3.967  0.00  0.00    -0.044 A 
ATOM     17  C   LIG    1       25.224 -20.032   4.871  0.00  0.00    +0.003 A 
ATOM     18  C   LIG    1       24.433 -20.679   5.823  0.00  0.00    +0.000 A 
ATOM     19  C   LIG    1       23.063 -20.431   5.877  0.00  0.00    +0.000 A 
ATOM     20  C   LIG    1       22.485 -19.534   4.981  0.00  0.00    +0.000 A 
ATOM     21  C   LIG    1       23.276 -18.885   4.030  0.00  0.00    +0.003 A 
ENDBRANCH  15  16
ENDBRANCH  14  15
ENDBRANCH   2  14
TORSDOF 7
ENDMDL
MODEL 4
REMARK VINA RESULT:      -5.4      3.179      6.140
REMARK  Name = *****
REMARK                            x       y       z     vdW  Elec       q    Type
REMARK                         _______ _______ _______ _____ _____    ______ ____
ROOT
ATOM      1  C   LIG    1       25.344 -19.900   4.375  0.00  0.00    +0.425 C 
ATOM      2  N   LIG    1       26.137 -18.950   4.014  0.00  0.00    -0.110 NA
ENDROOT
BRANCH   1   3
ATOM      3  N   LIG    1       25.929 -20.978   4.960  0.00  0.00    -0.286 N 
ATOM      4  H   LIG    1       26.918 -20.785   5.079  0.00  0.00    +0.255 HD
ATOM      5  H   LIG    1       25.766 -21.820   4.422  0.00  0.00    +0.255 HD
ENDBRANCH   1   3
BRANCH   1   7
ATOM      6  C   LIG    1       23.121 -20.035   5.015  0.00  0.00    +0.387 C 
ATOM      7  N   LIG    1       24.006 -19.851   4.108  0.00  0.00    -0.004 NA
BRANCH   6   8
ATOM      8  N   LIG    1       21.804 -19.988   4.697  0.00  0.00    -0.289 N 
ATOM      9  H   LIG    1       21.647 -19.311   3.956  0.00  0.00    +0.255 HD
ATOM     10  H   LIG    1       21.430 -20.894   4.441  0.00  0.00    +0.255 HD
ENDBRANCH   6   8
BRANCH   6  11
ATOM     11  N   LIG    1       23.249 -20.297   6.340  0.00  0.00    -0.289 N 
ATOM     12  H   LIG    1       24.222 -20.413   6.620  0.00  0.00    +0.255 HD
ATOM     13  H   LIG    1       22.774 -19.618   6.923  0.00  0.00    +0.255 HD
ENDBRANCH   6  11
ENDBRANCH   1   7
BRANCH   2  14
ATOM     14  C   LIG    1       25.549 -17.795   3.326  0.00  0.00    +0.248 C 
BRANCH  14  15
ATOM     15  C   LIG    1       26.514 -16.609   3.465  0.00  0.00    +0.076 C 
BRANCH  15  16
ATOM     16  C   LIG    1       25.840 -15.261   3.350  0.00  0.00    -0.044 A 
ATOM     17  C   LIG    1       24.622 -15.008   3.998  0.00  0.00    +0.003 A 
ATOM     18  C   LIG    1       23.994 -13.766   3.872  0.00  0.00    +0.000 A 
ATOM     19  C   LIG    1       24.571 -12.767   3.093  0.00  0.00    +0.000 A 
ATOM     20  C   LIG    1       25.778 -13.008   2.440  0.00  0.00    +0.000 A 
ATOM     21  C   LIG    1       26.408 -14.247   2.566  0.00  0.00    +0.003 A 
ENDBRANCH  15  16
ENDBRANCH  14  15
ENDBRANCH   2  14
TORSDOF 7
ENDMDL
MODEL 5
REMARK VINA RESULT:      -5.3      1.230      2.721
REMARK  Name = *****
REMARK                            x       y       z     vdW  Elec       q    Type
REMARK                         _______ _______ _______ _____ _____    ______ ____
ROOT
ATOM      1  C   LIG    1       24.402 -13.676   4.180  0.00  0.00    +0.425 C 
ATOM      2  N   LIG    1       23.520 -14.597   4.369  0.00  0.00    -0.110 NA
ENDROOT
BRANCH   1   3
ATOM      3  N   LIG    1       23.992 -12.400   4.407  0.00  0.00    -0.286 N 
ATOM      4  H   LIG    1       23.536 -12.052   3.570  0.00  0.00    +0.255 HD
ATOM      5  H   LIG    1       24.765 -11.812   4.693  0.00  0.00    +0.255 HD
ENDBRANCH   1   3
BRANCH   1   7
ATOM      6  C   LIG    1       26.703 -13.814   4.411  0.00  0.00    +0.387 C 
ATOM      7  N   LIG    1       25.648 -13.969   3.704  0.00  0.00    -0.004 NA
BRANCH   6   8
ATOM      8  N   LIG    1       27.919 -14.108   3.888  0.00  0.00    -0.289 N 
ATOM      9  H   LIG    1       28.180 -15.061   4.125  0.00  0.00    +0.255 HD
ATOM     10  H   LIG    1       27.961 -13.962   2.887  0.00  0.00    +0.255 HD
ENDBRANCH   6   8
BRANCH   6  11
ATOM     11  N   LIG    1       26.863 -13.371   5.684  0.00  0.00    -0.289 N 
ATOM     12  H   LIG    1       27.814 -13.052   5.866  0.00  0.00    +0.255 HD
ATOM     13  H   LIG    1       26.180 -12.670   5.944  0.00  0.00    +0.255 HD
ENDBRANCH   6  11
ENDBRANCH   1   7
BRANCH   2  14
ATOM     14  C   LIG    1       23.908 -15.981   4.079  0.00  0.00    +0.248 C 
BRANCH  14  15
ATOM     15  C   LIG    1       22.712 -16.892   4.393  0.00  0.00    +0.076 C 
BRANCH  15  16
ATOM     16  C   LIG    1       23.047 -18.366   4.362  0.00  0.00    -0.044 A 
ATOM     17  C   LIG    1       22.300 -19.289   5.109  0.00  0.00    +0.003 A 
ATOM     18  C   LIG    1       22.625 -20.647   5.092  0.00  0.00    +0.000 A 
ATOM     19  C   LIG    1       23.704 -21.098   4.335  0.00  0.00    +0.000 A 
ATOM     20  C   LIG    1       24.458 -20.190   3.593  0.00  0.00    +0.000 A 
ATOM     21  C   LIG    1       24.133 -18.832   3.608  0.00  0.00    +0.003 A 
ENDBRANCH  15  16
ENDBRANCH  14  15
ENDBRANCH   2  14
TORSDOF 7
ENDMDL
MODEL 6
REMARK VINA RESULT:      -5.0      3.585      6.338
REMARK  Name = *****
REMARK                            x       y       z     vdW  Elec       q    Type
REMARK                         _______ _______ _______ _____ _____    ______ ____
ROOT
ATOM      1  C   LIG    1       24.225 -20.427   3.975  0.00  0.00    +0.425 C 
ATOM      2  N   LIG    1       24.151 -19.345   3.278  0.00  0.00    -0.110 NA
ENDROOT
BRANCH   1   3
ATOM      3  N   LIG    1       23.855 -21.572   3.341  0.00  0.00    -0.286 N 
ATOM      4  H   LIG    1       23.462 -21.330   2.437  0.00  0.00    +0.255 HD
ATOM      5  H   LIG    1       23.211 -22.111   3.905  0.00  0.00    +0.255 HD
ENDBRANCH   1   3
BRANCH   1   7
ATOM      6  C   LIG    1       25.799 -20.398   5.673  0.00  0.00    +0.387 C 
ATOM      7  N   LIG    1       24.577 -20.405   5.293  0.00  0.00    -0.004 NA
BRANCH   6   8
ATOM      8  N   LIG    1       26.098 -20.387   6.995  0.00  0.00    -0.289 N 
ATOM      9  H   LIG    1       25.491 -19.737   7.486  0.00  0.00    +0.255 HD
ATOM     10  H   LIG    1       26.053 -21.307   7.416  0.00  0.00    +0.255 HD
ENDBRANCH   6   8
BRANCH   6  11
ATOM     11  N   LIG    1       26.953 -20.408   4.958  0.00  0.00    -0.289 N 
ATOM     12  H   LIG    1       26.900 -19.815   4.130  0.00  0.00    +0.255 HD
ATOM     13  H   LIG    1       27.766 -20.188   5.521  0.00  0.00    +0.255 HD
ENDBRANCH   6  11
ENDBRANCH   1   7
BRANCH   2  14
ATOM     14  C   LIG    1       24.485 -18.082   3.945  0.00  0.00    +0.248 C 
BRANCH  14  15
ATOM     15  C   LIG    1       25.734 -17.497   3.271  0.00  0.00    +0.076 C 
BRANCH  15  16
ATOM     16  C   LIG    1       25.922 -16.017   3.519  0.00  0.00    -0.044 A 
ATOM     17  C   LIG    1       27.205 -15.464   3.629  0.00  0.00    +0.003 A 
ATOM     18  C   LIG    1       27.373 -14.099   3.877  0.00  0.00    +0.000 A 
ATOM     19  C   LIG    1       26.261 -13.275   4.026  0.00  0.00    +0.000 A 
ATOM     20  C   LIG    1       24.980 -13.814   3.925  0.00  0.00    +0.000 A 
ATOM     21  C   LIG    1       24.811 -15.177   3.675  0.00  0.00    +0.003 A 
ENDBRANCH  15  16
ENDBRANCH  14  15
ENDBRANCH   2  14
TORSDOF 7
ENDMDL
MODEL 7
REMARK VINA RESULT:      -4.8      1.499      2.652
REMARK  Name = *****
REMARK                            x       y       z     vdW  Elec       q    Type
REMARK                         _______ _______ _______ _____ _____    ______ ____
ROOT
ATOM      1  C   LIG    1       25.489 -14.968   3.516  0.00  0.00    +0.425 C 
ATOM      2  N   LIG    1       25.127 -16.202   3.602  0.00  0.00    -0.110 NA
ENDROOT
BRANCH   1   3
ATOM      3  N   LIG    1       24.509 -14.043   3.695  0.00  0.00    -0.286 N 
ATOM      4  H   LIG    1       24.269 -13.647   2.792  0.00  0.00    +0.255 HD
ATOM      5  H   LIG    1       24.791 -13.335   4.361  0.00  0.00    +0.255 HD
ENDBRANCH   1   3
BRANCH   1   7
ATOM      6  C   LIG    1       27.493 -13.884   3.940  0.00  0.00    +0.387 C 
ATOM      7  N   LIG    1       26.768 -14.621   3.185  0.00  0.00    -0.004 NA
BRANCH   6   8
ATOM      8  N   LIG    1       28.753 -13.558   3.561  0.00  0.00    -0.289 N 
ATOM      9  H   LIG    1       28.793 -13.434   2.553  0.00  0.00    +0.255 HD
ATOM     10  H   LIG    1       29.107 -12.738   4.039  0.00  0.00    +0.255 HD
ENDBRANCH   6   8
BRANCH   6  11
ATOM     11  N   LIG    1       27.227 -13.309   5.140  0.00  0.00    -0.289 N 
ATOM     12  H   LIG    1       26.360 -12.774   5.129  0.00  0.00    +0.255 HD
ATOM     13  H   LIG    1       27.245 -13.972   5.906  0.00  0.00    +0.255 HD
ENDBRANCH   6  11
ENDBRANCH   1   7
BRANCH   2  14
ATOM     14  C   LIG    1       26.145 -17.229   3.358  0.00  0.00    +0.248 C 
BRANCH  14  15
ATOM     15  C   LIG    1       25.435 -18.580   3.188  0.00  0.00    +0.076 C 
BRANCH  15  16
ATOM     16  C   LIG    1       25.624 -19.517   4.359  0.00  0.00    -0.044 A 
ATOM     17  C   LIG    1       24.570 -20.322   4.814  0.00  0.00    +0.003 A 
ATOM     18  C   LIG    1       24.744 -21.172   5.908  0.00  0.00    +0.000 A 
ATOM     19  C   LIG    1       25.971 -21.222   6.565  0.00  0.00    +0.000 A 
ATOM     20  C   LIG    1       27.025 -20.423   6.126  0.00  0.00    +0.000 A 
ATOM     21  C   LIG    1       26.853 -19.574   5.032  0.00  0.00    +0.003 A 
ENDBRANCH  15  16
ENDBRANCH  14  15
ENDBRANCH   2  14
TORSDOF 7
ENDMDL
MODEL 8
REMARK VINA RESULT:      -4.5      2.867      6.215
REMARK  Name = *****
REMARK                            x       y       z     vdW  Elec       q    Type
REMARK                         _______ _______ _______ _____ _____    ______ ____
ROOT
ATOM      1  C   LIG    1       24.508 -18.684   3.761  0.00  0.00    +0.425 C 
ATOM      2  N   LIG    1       24.999 -17.557   3.371  0.00  0.00    -0.110 NA
ENDROOT
BRANCH   1   3
ATOM      3  N   LIG    1       23.155 -18.737   3.880  0.00  0.00    -0.286 N 
ATOM      4  H   LIG    1       22.794 -19.385   3.188  0.00  0.00    +0.255 HD
ATOM      5  H   LIG    1       22.744 -17.816   3.793  0.00  0.00    +0.255 HD
ENDBRANCH   1   3
BRANCH   1   7
ATOM      6  C   LIG    1       25.071 -20.471   5.123  0.00  0.00    +0.387 C 
ATOM      7  N   LIG    1       25.313 -19.730   4.108  0.00  0.00    -0.004 NA
BRANCH   6   8
ATOM      8  N   LIG    1       25.908 -21.491   5.434  0.00  0.00    -0.289 N 
ATOM      9  H   LIG    1       25.597 -22.347   4.983  0.00  0.00    +0.255 HD
ATOM     10  H   LIG    1       26.873 -21.292   5.201  0.00  0.00    +0.255 HD
ENDBRANCH   6   8
BRANCH   6  11
ATOM     11  N   LIG    1       24.064 -20.431   6.032  0.00  0.00    -0.289 N 
ATOM     12  H   LIG    1       23.931 -19.499   6.422  0.00  0.00    +0.255 HD
ATOM     13  H   LIG    1       23.195 -20.810   5.673  0.00  0.00    +0.255 HD
ENDBRANCH   6  11
ENDBRANCH   1   7
BRANCH   2  14
ATOM     14  C   LIG    1       26.459 -17.443   3.287  0.00  0.00    +0.248 C 
BRANCH  14  15
ATOM     15  C   LIG    1       26.868 -16.077   3.855  0.00  0.00    +0.076 C 
BRANCH  15  16
ATOM     16  C   LIG    1       25.939 -14.951   3.459  0.00  0.00    -0.044 A 
ATOM     17  C   LIG    1       26.277 -14.071   2.421  0.00  0.00    +0.003 A 
ATOM     18  C   LIG    1       25.424 -13.022   2.072  0.00  0.00    +0.000 A 
ATOM     19  C   LIG    1       24.229 -12.835   2.762  0.00  0.00    +0.000 A 
ATOM     20  C   LIG    1       23.884 -13.699   3.799  0.00  0.00    +0.000 A 
ATOM     21  C   LIG    1       24.735 -14.750   4.147  0.00  0.00    +0.003 A 
ENDBRANCH  15  16
ENDBRANCH  14  15
ENDBRANCH   2  14
TORSDOF 7
ENDMDL
MODEL 9
REMARK VINA RESULT:      -4.1      3.200      6.406
REMARK  Name = *****
REMARK                            x       y       z     vdW  Elec       q    Type
REMARK                         _______ _______ _______ _____ _____    ______ ____
ROOT
ATOM      1  C   LIG    1       24.396 -18.786   3.783  0.00  0.00    +0.425 C 
ATOM      2  N   LIG    1       24.341 -17.498   3.834  0.00  0.00    -0.110 NA
ENDROOT
BRANCH   1   3
ATOM      3  N   LIG    1       25.610 -19.320   3.485  0.00  0.00    -0.286 N 
ATOM      4  H   LIG    1       26.241 -18.569   3.227  0.00  0.00    +0.255 HD
ATOM      5  H   LIG    1       25.533 -20.021   2.759  0.00  0.00    +0.255 HD
ENDBRANCH   1   3
BRANCH   1   7
ATOM      6  C   LIG    1       23.158 -20.392   4.902  0.00  0.00    +0.387 C 
ATOM      7  N   LIG    1       23.280 -19.554   3.942  0.00  0.00    -0.004 NA
BRANCH   6   8
ATOM      8  N   LIG    1       22.033 -21.141   5.010  0.00  0.00    -0.289 N 
ATOM      9  H   LIG    1       21.888 -21.417   5.977  0.00  0.00    +0.255 HD
ATOM     10  H   LIG    1       21.214 -20.674   4.642  0.00  0.00    +0.255 HD
ENDBRANCH   6   8
BRANCH   6  11
ATOM     11  N   LIG    1       24.003 -20.713   5.914  0.00  0.00    -0.289 N 
ATOM     12  H   LIG    1       24.169 -19.928   6.543  0.00  0.00    +0.255 HD
ATOM     13  H   LIG    1       23.713 -21.540   6.421  0.00  0.00    +0.255 HD
ENDBRANCH   6  11
ENDBRANCH   1   7
BRANCH   2  14
ATOM     14  C   LIG    1       23.035 -16.883   4.095  0.00  0.00    +0.248 C 
BRANCH  14  15
ATOM     15  C   LIG    1       23.271 -15.490   4.696  0.00  0.00    +0.076 C 
BRANCH  15  16
ATOM     16  C   LIG    1       24.192 -14.621   3.870  0.00  0.00    -0.044 A 
ATOM     17  C   LIG    1       25.565 -14.897   3.792  0.00  0.00    +0.003 A 
ATOM     18  C   LIG    1       26.414 -14.079   3.043  0.00  0.00    +0.000 A 
ATOM     19  C   LIG    1       25.904 -12.972   2.370  0.00  0.00    +0.000 A 
ATOM     20  C   LIG    1       24.542 -12.683   2.444  0.00  0.00    +0.000 A 
ATOM     21  C   LIG    1       23.692 -13.501   3.190  0.00  0.00    +0.003 A 
ENDBRANCH  15  16
ENDBRANCH  14  15
ENDBRANCH   2  14
TORSDOF 7
ENDMDL
