MODEL 1
REMARK VINA RESULT:      -4.3      0.000      0.000
REMARK  Name = *****
REMARK                            x       y       z     vdW  Elec       q    Type
REMARK                         _______ _______ _______ _____ _____    ______ ____
ROOT
ATOM      1  C   LIG    1       25.885 -14.442   3.513  0.00  0.00    +0.124 A 
ATOM      2  C   LIG    1       27.235 -14.364   3.840  0.00  0.00    +0.069 A 
ATOM      3 CL   LIG    1       28.110 -12.881   3.989  0.00  0.00    -0.082 Cl
ATOM      4  C   LIG    1       27.959 -15.544   4.064  0.00  0.00    +0.045 A 
ATOM      5  C   LIG    1       27.368 -16.820   3.985  0.00  0.00    +0.043 A 
ATOM      6  C   LIG    1       25.999 -16.882   3.623  0.00  0.00    +0.082 A 
ATOM      7  C   LIG    1       25.270 -15.696   3.402  0.00  0.00    +0.046 A 
ENDROOT
BRANCH   1   8
ATOM      8  S   LIG    1       24.920 -13.000   3.194  0.00  0.00    +0.057 S 
ATOM      9  O   LIG    1       24.495 -12.423   4.448  0.00  0.00    -0.153 OA
ATOM     10  O   LIG    1       25.575 -12.211   2.177  0.00  0.00    -0.153 OA
BRANCH   8  11
ATOM     11  N   LIG    1       23.554 -13.615   2.439  0.00  0.00    -0.203 NA
ATOM     12  H   LIG    1       22.828 -12.896   2.403  0.00  0.00    +0.144 HD
ATOM     13  H   LIG    1       23.801 -14.002   1.528  0.00  0.00    +0.144 HD
ENDBRANCH   8  11
ENDBRANCH   1   8
BRANCH   5  14
ATOM     14  N   LIG    1       28.155 -17.976   4.121  0.00  0.00    -0.336 N 
ATOM     15  H   LIG    1       27.636 -18.807   3.812  0.00  0.00    +0.146 HD
BRANCH  14  16
ATOM     16  C   LIG    1       28.871 -18.225   5.375  0.00  0.00    +0.176 C 
BRANCH  16  17
ATOM     17  C   LIG    1       28.535 -19.531   6.017  0.00  0.00    +0.122 A 
ATOM     18  O   LIG    1       27.220 -19.899   5.980  0.00  0.00    -0.466 OA
ATOM     19  C   LIG    1       27.121 -21.093   6.616  0.00  0.00    +0.195 A 
ATOM     20  C   LIG    1       28.355 -21.507   7.058  0.00  0.00    +0.041 A 
ATOM     21  C   LIG    1       29.272 -20.496   6.674  0.00  0.00    +0.046 A 
ENDBRANCH  16  17
ENDBRANCH  14  16
ENDBRANCH   5  14
BRANCH   6  22
ATOM     22  C   LIG    1       25.222 -18.147   3.463  0.00  0.00    +0.339 C 
ATOM     23  O   LIG    1       24.022 -18.259   3.637  0.00  0.00    -0.245 OA
BRANCH  22  24
ATOM     24  O   LIG    1       25.957 -19.219   3.114  0.00  0.00    -0.477 OA
ATOM     25  H   LIG    1       26.769 -19.125   3.657  0.00  0.00    +0.295 HD
ENDBRANCH  22  24
ENDBRANCH   6  22
TORSDOF 7
ENDMDL
MODEL 2
REMARK VINA RESULT:      -4.2      2.518      3.765
REMARK  Name = *****
REMARK                            x       y       z     vdW  Elec       q    Type
REMARK                         _______ _______ _______ _____ _____    ______ ____
ROOT
ATOM      1  C   LIG    1       27.227 -14.821   3.736  0.00  0.00    +0.124 A 
ATOM      2  C   LIG    1       26.023 -15.077   3.086  0.00  0.00    +0.069 A 
ATOM      3 CL   LIG    1       25.031 -13.859   2.369  0.00  0.00    -0.082 Cl
ATOM      4  C   LIG    1       25.558 -16.398   2.996  0.00  0.00    +0.045 A 
ATOM      5  C   LIG    1       26.271 -17.489   3.529  0.00  0.00    +0.043 A 
ATOM      6  C   LIG    1       27.480 -17.206   4.212  0.00  0.00    +0.082 A 
ATOM      7  C   LIG    1       27.950 -15.880   4.299  0.00  0.00    +0.046 A 
ENDROOT
BRANCH   1   8
ATOM      8  S   LIG    1       27.859 -13.183   3.908  0.00  0.00    +0.057 S 
ATOM      9  O   LIG    1       27.222 -12.321   2.940  0.00  0.00    -0.153 OA
ATOM     10  O   LIG    1       27.910 -12.843   5.311  0.00  0.00    -0.153 OA
BRANCH   8  11
ATOM     11  N   LIG    1       29.466 -13.345   3.452  0.00  0.00    -0.203 NA
ATOM     12  H   LIG    1       30.057 -12.786   4.070  0.00  0.00    +0.144 HD
ATOM     13  H   LIG    1       29.722 -14.332   3.414  0.00  0.00    +0.144 HD
ENDBRANCH   8  11
ENDBRANCH   1   8
BRANCH   5  14
ATOM     14  N   LIG    1       25.718 -18.780   3.500  0.00  0.00    -0.336 N 
ATOM     15  H   LIG    1       26.046 -19.297   2.674  0.00  0.00    +0.146 HD
BRANCH  14  16
ATOM     16  C   LIG    1       24.278 -18.960   3.707  0.00  0.00    +0.176 C 
BRANCH  16  17
ATOM     17  C   LIG    1       23.934 -19.757   4.922  0.00  0.00    +0.122 A 
ATOM     18  O   LIG    1       24.975 -20.386   5.544  0.00  0.00    -0.466 OA
ATOM     19  C   LIG    1       24.461 -21.057   6.605  0.00  0.00    +0.195 A 
ATOM     20  C   LIG    1       23.101 -20.866   6.682  0.00  0.00    +0.041 A 
ATOM     21  C   LIG    1       22.758 -20.027   5.592  0.00  0.00    +0.046 A 
ENDBRANCH  16  17
ENDBRANCH  14  16
ENDBRANCH   5  14
BRANCH   6  22
ATOM     22  C   LIG    1       28.346 -18.233   4.862  0.00  0.00    +0.339 C 
ATOM     23  O   LIG    1       29.468 -18.034   5.294  0.00  0.00    -0.245 OA
BRANCH  22  24
ATOM     24  O   LIG    1       27.802 -19.462   4.938  0.00  0.00    -0.477 OA
ATOM     25  H   LIG    1       26.840 -19.281   5.006  0.00  0.00    +0.295 HD
ENDBRANCH  22  24
ENDBRANCH   6  22
TORSDOF 7
ENDMDL
MODEL 3
REMARK VINA RESULT:      -4.2      2.392      2.951
REMARK  Name = *****
REMARK                            x       y       z     vdW  Elec       q    Type
REMARK                         _______ _______ _______ _____ _____    ______ ____
ROOT
ATOM      1  C   LIG    1       25.067 -14.966   3.817  0.00  0.00    +0.124 A 
ATOM      2  C   LIG    1       26.294 -15.531   3.482  0.00  0.00    +0.069 A 
ATOM      3 CL   LIG    1       27.730 -14.619   3.179  0.00  0.00    -0.082 Cl
ATOM      4  C   LIG    1       26.403 -16.925   3.373  0.00  0.00    +0.045 A 
ATOM      5  C   LIG    1       25.313 -17.789   3.603  0.00  0.00    +0.043 A 
ATOM      6  C   LIG    1       24.065 -17.194   3.914  0.00  0.00    +0.082 A 
ATOM      7  C   LIG    1       23.957 -15.794   4.029  0.00  0.00    +0.046 A 
ENDROOT
BRANCH   1   8
ATOM      8  S   LIG    1       24.853 -13.220   3.948  0.00  0.00    +0.057 S 
ATOM      9  O   LIG    1       25.268 -12.593   2.715  0.00  0.00    -0.153 OA
ATOM     10  O   LIG    1       23.566 -12.947   4.544  0.00  0.00    -0.153 OA
BRANCH   8  11
ATOM     11  N   LIG    1       25.966 -12.787   5.127  0.00  0.00    -0.203 NA
ATOM     12  H   LIG    1       25.482 -12.352   5.915  0.00  0.00    +0.144 HD
ATOM     13  H   LIG    1       26.536 -13.594   5.384  0.00  0.00    +0.144 HD
ENDBRANCH   8  11
ENDBRANCH   1   8
BRANCH   5  14
ATOM     14  N   LIG    1       25.447 -19.170   3.385  0.00  0.00    -0.336 N 
ATOM     15  H   LIG    1       24.574 -19.564   3.010  0.00  0.00    +0.146 HD
BRANCH  14  16
ATOM     16  C   LIG    1       26.011 -20.022   4.436  0.00  0.00    +0.176 C 
BRANCH  16  17
ATOM     17  C   LIG    1       24.998 -20.563   5.389  0.00  0.00    +0.122 A 
ATOM     18  O   LIG    1       23.891 -21.135   4.831  0.00  0.00    -0.466 OA
ATOM     19  C   LIG    1       23.098 -21.551   5.851  0.00  0.00    +0.195 A 
ATOM     20  C   LIG    1       23.680 -21.261   7.062  0.00  0.00    +0.041 A 
ATOM     21  C   LIG    1       24.909 -20.619   6.766  0.00  0.00    +0.046 A 
ENDBRANCH  16  17
ENDBRANCH  14  16
ENDBRANCH   5  14
BRANCH   6  22
ATOM     22  C   LIG    1       22.803 -17.954   4.158  0.00  0.00    +0.339 C 
ATOM     23  O   LIG    1       21.955 -17.658   4.982  0.00  0.00    -0.245 OA
BRANCH  22  24
ATOM     24  O   LIG    1       22.648 -19.049   3.392  0.00  0.00    -0.477 OA
ATOM     25  H   LIG    1       22.202 -18.703   2.589  0.00  0.00    +0.295 HD
ENDBRANCH  22  24
ENDBRANCH   6  22
TORSDOF 7
ENDMDL
MODEL 4
REMARK VINA RESULT:      -3.4      1.329      1.900
REMARK  Name = *****
REMARK                            x       y       z     vdW  Elec       q    Type
REMARK                         _______ _______ _______ _____ _____    ______ ____
ROOT
ATOM      1  C   LIG    1       25.257 -15.067   3.636  0.00  0.00    +0.124 A 
ATOM      2  C   LIG    1       26.576 -15.508   3.581  0.00  0.00    +0.069 A 
ATOM      3 CL   LIG    1       27.943 -14.460   3.449  0.00  0.00    -0.082 Cl
ATOM      4  C   LIG    1       26.844 -16.884   3.629  0.00  0.00    +0.045 A 
ATOM      5  C   LIG    1       25.824 -17.849   3.746  0.00  0.00    +0.043 A 
ATOM      6  C   LIG    1       24.486 -17.383   3.772  0.00  0.00    +0.082 A 
ATOM      7  C   LIG    1       24.217 -16.000   3.729  0.00  0.00    +0.046 A 
ENDROOT
BRANCH   1   8
ATOM      8  S   LIG    1       24.847 -13.353   3.557  0.00  0.00    +0.057 S 
ATOM      9  O   LIG    1       24.998 -12.764   4.867  0.00  0.00    -0.153 OA
ATOM     10  O   LIG    1       25.467 -12.775   2.387  0.00  0.00    -0.153 OA
BRANCH   8  11
ATOM     11  N   LIG    1       23.207 -13.369   3.202  0.00  0.00    -0.203 NA
ATOM     12  H   LIG    1       22.805 -12.449   3.389  0.00  0.00    +0.144 HD
ATOM     13  H   LIG    1       23.058 -13.702   2.249  0.00  0.00    +0.144 HD
ENDBRANCH   8  11
ENDBRANCH   1   8
BRANCH   5  14
ATOM     14  N   LIG    1       26.134 -19.218   3.691  0.00  0.00    -0.336 N 
ATOM     15  H   LIG    1       25.634 -19.673   2.917  0.00  0.00    +0.146 HD
BRANCH  14  16
ATOM     16  C   LIG    1       26.082 -20.026   4.912  0.00  0.00    +0.176 C 
BRANCH  16  17
ATOM     17  C   LIG    1       27.353 -20.028   5.695  0.00  0.00    +0.122 A 
ATOM     18  O   LIG    1       28.338 -19.195   5.246  0.00  0.00    -0.466 OA
ATOM     19  C   LIG    1       29.401 -19.348   6.076  0.00  0.00    +0.195 A 
ATOM     20  C   LIG    1       29.115 -20.265   7.059  0.00  0.00    +0.041 A 
ATOM     21  C   LIG    1       27.791 -20.709   6.814  0.00  0.00    +0.046 A 
ENDBRANCH  16  17
ENDBRANCH  14  16
ENDBRANCH   5  14
BRANCH   6  22
ATOM     22  C   LIG    1       23.284 -18.264   3.862  0.00  0.00    +0.339 C 
ATOM     23  O   LIG    1       23.180 -19.363   3.347  0.00  0.00    -0.245 OA
BRANCH  22  24
ATOM     24  O   LIG    1       22.259 -17.748   4.565  0.00  0.00    -0.477 OA
ATOM     25  H   LIG    1       21.761 -18.542   4.856  0.00  0.00    +0.295 HD
ENDBRANCH  22  24
ENDBRANCH   6  22
TORSDOF 7
ENDMDL
MODEL 5
REMARK VINA RESULT:      -2.7      2.735      4.087
REMARK  Name = *****
REMARK                            x       y       z     vdW  Elec       q    Type
REMARK                         _______ _______ _______ _____ _____    ______ ____
ROOT
ATOM      1  C   LIG    1       27.217 -15.117   3.843  0.00  0.00    +0.124 A 
ATOM      2  C   LIG    1       26.052 -15.480   3.173  0.00  0.00    +0.069 A 
ATOM      3 CL   LIG    1       24.999 -14.359   2.387  0.00  0.00    -0.082 Cl
ATOM      4  C   LIG    1       25.681 -16.832   3.119  0.00  0.00    +0.045 A 
ATOM      5  C   LIG    1       26.454 -17.851   3.710  0.00  0.00    +0.043 A 
ATOM      6  C   LIG    1       27.621 -17.460   4.412  0.00  0.00    +0.082 A 
ATOM      7  C   LIG    1       27.997 -16.103   4.461  0.00  0.00    +0.046 A 
ENDROOT
BRANCH   1   8
ATOM      8  S   LIG    1       27.730 -13.434   3.969  0.00  0.00    +0.057 S 
ATOM      9  O   LIG    1       29.141 -13.341   3.673  0.00  0.00    -0.153 OA
ATOM     10  O   LIG    1       26.757 -12.595   3.309  0.00  0.00    -0.153 OA
BRANCH   8  11
ATOM     11  N   LIG    1       27.540 -13.099   5.602  0.00  0.00    -0.203 NA
ATOM     12  H   LIG    1       27.873 -13.890   6.157  0.00  0.00    +0.144 HD
ATOM     13  H   LIG    1       27.989 -12.212   5.833  0.00  0.00    +0.144 HD
ENDBRANCH   8  11
ENDBRANCH   1   8
BRANCH   5  14
ATOM     14  N   LIG    1       25.991 -19.178   3.715  0.00  0.00    -0.336 N 
ATOM     15  H   LIG    1       25.422 -19.366   2.879  0.00  0.00    +0.146 HD
BRANCH  14  16
ATOM     16  C   LIG    1       25.371 -19.729   4.922  0.00  0.00    +0.176 C 
BRANCH  16  17
ATOM     17  C   LIG    1       23.893 -19.910   4.817  0.00  0.00    +0.122 A 
ATOM     18  O   LIG    1       23.412 -21.144   5.151  0.00  0.00    -0.466 OA
ATOM     19  C   LIG    1       22.066 -21.109   4.982  0.00  0.00    +0.195 A 
ATOM     20  C   LIG    1       21.669 -19.866   4.549  0.00  0.00    +0.041 A 
ATOM     21  C   LIG    1       22.849 -19.089   4.438  0.00  0.00    +0.046 A 
ENDBRANCH  16  17
ENDBRANCH  14  16
ENDBRANCH   5  14
BRANCH   6  22
ATOM     22  C   LIG    1       28.538 -18.402   5.120  0.00  0.00    +0.339 C 
ATOM     23  O   LIG    1       29.474 -18.071   5.826  0.00  0.00    -0.245 OA
BRANCH  22  24
ATOM     24  O   LIG    1       28.274 -19.705   4.917  0.00  0.00    -0.477 OA
ATOM     25  H   LIG    1       29.148 -20.079   4.671  0.00  0.00    +0.295 HD
ENDBRANCH  22  24
ENDBRANCH   6  22
TORSDOF 7
ENDMDL
MODEL 6
REMARK VINA RESULT:      -2.0      3.937      6.468
REMARK  Name = *****
REMARK                            x       y       z     vdW  Elec       q    Type
REMARK                         _______ _______ _______ _____ _____    ______ ____
ROOT
ATOM      1  C   LIG    1       24.101 -18.740   3.949  0.00  0.00    +0.124 A 
ATOM      2  C   LIG    1       22.925 -18.029   4.165  0.00  0.00    +0.069 A 
ATOM      3 CL   LIG    1       21.398 -18.764   4.505  0.00  0.00    -0.082 Cl
ATOM      4  C   LIG    1       22.946 -16.628   4.105  0.00  0.00    +0.045 A 
ATOM      5  C   LIG    1       24.125 -15.900   3.846  0.00  0.00    +0.043 A 
ATOM      6  C   LIG    1       25.307 -16.641   3.601  0.00  0.00    +0.082 A 
ATOM      7  C   LIG    1       25.286 -18.049   3.666  0.00  0.00    +0.046 A 
ENDROOT
BRANCH   1   8
ATOM      8  S   LIG    1       24.142 -20.503   3.985  0.00  0.00    +0.057 S 
ATOM      9  O   LIG    1       23.247 -20.981   5.013  0.00  0.00    -0.153 OA
ATOM     10  O   LIG    1       24.081 -21.003   2.631  0.00  0.00    -0.153 OA
BRANCH   8  11
ATOM     11  N   LIG    1       25.706 -20.839   4.490  0.00  0.00    -0.203 NA
ATOM     12  H   LIG    1       26.334 -20.849   3.684  0.00  0.00    +0.144 HD
ATOM     13  H   LIG    1       25.985 -20.188   5.225  0.00  0.00    +0.144 HD
ENDBRANCH   8  11
ENDBRANCH   1   8
BRANCH   5  14
ATOM     14  N   LIG    1       24.077 -14.504   3.700  0.00  0.00    -0.336 N 
ATOM     15  H   LIG    1       24.526 -14.216   2.821  0.00  0.00    +0.146 HD
BRANCH  14  16
ATOM     16  C   LIG    1       24.475 -13.641   4.814  0.00  0.00    +0.176 C 
BRANCH  16  17
ATOM     17  C   LIG    1       25.932 -13.314   4.840  0.00  0.00    +0.122 A 
ATOM     18  O   LIG    1       26.459 -12.820   3.680  0.00  0.00    -0.466 OA
ATOM     19  C   LIG    1       27.779 -12.600   3.903  0.00  0.00    +0.195 A 
ATOM     20  C   LIG    1       28.113 -12.939   5.192  0.00  0.00    +0.041 A 
ATOM     21  C   LIG    1       26.920 -13.405   5.800  0.00  0.00    +0.046 A 
ENDBRANCH  16  17
ENDBRANCH  14  16
ENDBRANCH   5  14
BRANCH   6  22
ATOM     22  C   LIG    1       26.634 -16.037   3.282  0.00  0.00    +0.339 C 
ATOM     23  O   LIG    1       27.679 -16.297   3.852  0.00  0.00    -0.245 OA
BRANCH  22  24
ATOM     24  O   LIG    1       26.615 -15.130   2.288  0.00  0.00    -0.477 OA
ATOM     25  H   LIG    1       27.567 -14.969   2.110  0.00  0.00    +0.295 HD
ENDBRANCH  22  24
ENDBRANCH   6  22
TORSDOF 7
ENDMDL
MODEL 7
REMARK VINA RESULT:      -1.9      4.006      6.317
REMARK  Name = *****
REMARK                            x       y       z     vdW  Elec       q    Type
REMARK                         _______ _______ _______ _____ _____    ______ ____
ROOT
ATOM      1  C   LIG    1       23.538 -18.904   4.385  0.00  0.00    +0.124 A 
ATOM      2  C   LIG    1       24.773 -19.112   3.779  0.00  0.00    +0.069 A 
ATOM      3 CL   LIG    1       25.476 -20.670   3.523  0.00  0.00    -0.082 Cl
ATOM      4  C   LIG    1       25.520 -18.008   3.341  0.00  0.00    +0.045 A 
ATOM      5  C   LIG    1       25.062 -16.683   3.478  0.00  0.00    +0.043 A 
ATOM      6  C   LIG    1       23.816 -16.488   4.124  0.00  0.00    +0.082 A 
ATOM      7  C   LIG    1       23.063 -17.598   4.559  0.00  0.00    +0.046 A 
ENDROOT
BRANCH   1   8
ATOM      8  S   LIG    1       22.558 -20.244   4.980  0.00  0.00    +0.057 S 
ATOM      9  O   LIG    1       22.814 -20.435   6.389  0.00  0.00    -0.153 OA
ATOM     10  O   LIG    1       21.216 -20.111   4.462  0.00  0.00    -0.153 OA
BRANCH   8  11
ATOM     11  N   LIG    1       23.194 -21.570   4.173  0.00  0.00    -0.203 NA
ATOM     12  H   LIG    1       22.445 -22.226   3.944  0.00  0.00    +0.144 HD
ATOM     13  H   LIG    1       23.738 -21.262   3.366  0.00  0.00    +0.144 HD
ENDBRANCH   8  11
ENDBRANCH   1   8
BRANCH   5  14
ATOM     14  N   LIG    1       25.888 -15.607   3.114  0.00  0.00    -0.336 N 
ATOM     15  H   LIG    1       25.819 -15.421   2.105  0.00  0.00    +0.146 HD
BRANCH  14  16
ATOM     16  C   LIG    1       27.279 -15.568   3.573  0.00  0.00    +0.176 C 
BRANCH  16  17
ATOM     17  C   LIG    1       27.694 -14.254   4.147  0.00  0.00    +0.122 A 
ATOM     18  O   LIG    1       28.697 -13.600   3.491  0.00  0.00    -0.466 OA
ATOM     19  C   LIG    1       28.931 -12.447   4.167  0.00  0.00    +0.195 A 
ATOM     20  C   LIG    1       28.088 -12.342   5.248  0.00  0.00    +0.041 A 
ATOM     21  C   LIG    1       27.288 -13.513   5.239  0.00  0.00    +0.046 A 
ENDBRANCH  16  17
ENDBRANCH  14  16
ENDBRANCH   5  14
BRANCH   6  22
ATOM     22  C   LIG    1       23.194 -15.156   4.380  0.00  0.00    +0.339 C 
ATOM     23  O   LIG    1       23.402 -14.148   3.728  0.00  0.00    -0.245 OA
BRANCH  22  24
ATOM     24  O   LIG    1       22.358 -15.118   5.434  0.00  0.00    -0.477 OA
ATOM     25  H   LIG    1       21.500 -15.406   5.054  0.00  0.00    +0.295 HD
ENDBRANCH  22  24
ENDBRANCH   6  22
TORSDOF 7
ENDMDL
