MODEL 1
REMARK VINA RESULT:      -7.3      0.000      0.000
REMARK  Name = *****
REMARK                            x       y       z     vdW  Elec       q    Type
REMARK                         _______ _______ _______ _____ _____    ______ ____
ROOT
ATOM      1  C   LIG    1       25.470 -29.982   8.947  0.00  0.00    +0.000 C 
ATOM      2  C   LIG    1       24.576 -30.158   9.931  0.00  0.00    +0.000 C 
ENDROOT
BRANCH   1   5
ATOM      3  C   LIG    1       24.281 -29.701   6.146  0.00  0.00    +0.044 C 
ATOM      4  C   LIG    1       25.027 -28.644   6.914  0.00  0.00    -0.050 C 
ATOM      5  C   LIG    1       25.524 -28.777   8.157  0.00  0.00    +0.003 C 
BRANCH   4   6
ATOM      6  C   LIG    1       25.119 -27.362   6.239  0.00  0.00    +0.003 C 
ATOM      7  C   LIG    1       25.495 -26.246   6.879  0.00  0.00    +0.001 C 
BRANCH   7   8
ATOM      8  C   LIG    1       25.552 -24.961   6.221  0.00  0.00    +0.003 C 
ATOM      9  C   LIG    1       24.581 -24.026   6.190  0.00  0.00    -0.050 C 
ATOM     10  C   LIG    1       23.238 -24.127   6.868  0.00  0.00    +0.044 C 
BRANCH   9  11
ATOM     11  C   LIG    1       24.842 -22.814   5.430  0.00  0.00    +0.003 C 
ATOM     12  C   LIG    1       24.694 -21.564   5.887  0.00  0.00    +0.004 C 
BRANCH  12  13
ATOM     13  C   LIG    1       25.030 -20.376   5.101  0.00  0.00    -0.043 C 
ATOM     14  C   LIG    1       23.859 -19.779   4.283  0.00  0.00    -0.008 C 
ATOM     15  C   LIG    1       23.398 -20.774   3.189  0.00  0.00    +0.016 C 
ATOM     16  C   LIG    1       22.637 -19.482   5.186  0.00  0.00    +0.016 C 
ATOM     17  C   LIG    1       24.251 -18.425   3.619  0.00  0.00    +0.042 C 
ATOM     18  C   LIG    1       25.688 -18.369   3.122  0.00  0.00    +0.119 C 
ATOM     19  C   LIG    1       26.660 -18.648   4.266  0.00  0.00    +0.062 C 
ATOM     20  C   LIG    1       26.274 -19.845   5.118  0.00  0.00    -0.067 C 
ATOM     21  C   LIG    1       27.428 -20.323   5.971  0.00  0.00    +0.039 C 
BRANCH  18  22
ATOM     22  O   LIG    1       25.900 -19.277   2.043  0.00  0.00    -0.391 OA
ATOM     23  H   LIG    1       26.827 -19.572   2.085  0.00  0.00    +0.210 HD
ENDBRANCH  18  22
ENDBRANCH  12  13
ENDBRANCH   9  11
ENDBRANCH   7   8
ENDBRANCH   4   6
ENDBRANCH   1   5
BRANCH   2  24
ATOM     24  C   LIG    1       24.448 -31.412  10.639  0.00  0.00    +0.003 C 
ATOM     25  C   LIG    1       25.053 -31.711  11.806  0.00  0.00    -0.050 C 
ATOM     26  C   LIG    1       25.903 -30.747  12.596  0.00  0.00    +0.044 C 
BRANCH  25  27
ATOM     27  C   LIG    1       24.768 -33.009  12.416  0.00  0.00    +0.003 C 
ATOM     28  C   LIG    1       23.772 -33.307  13.268  0.00  0.00    +0.001 C 
BRANCH  28  29
ATOM     29  C   LIG    1       22.730 -32.397  13.669  0.00  0.00    +0.003 C 
ATOM     30  C   LIG    1       21.575 -32.107  13.044  0.00  0.00    -0.050 C 
ATOM     31  C   LIG    1       21.111 -32.709  11.754  0.00  0.00    +0.044 C 
BRANCH  30  32
ATOM     32  C   LIG    1       20.754 -31.083  13.683  0.00  0.00    +0.003 C 
ATOM     33  C   LIG    1       19.894 -30.233  13.097  0.00  0.00    +0.004 C 
BRANCH  33  34
ATOM     34  C   LIG    1       19.102 -29.254  13.851  0.00  0.00    -0.043 C 
ATOM     35  C   LIG    1       17.795 -29.769  14.513  0.00  0.00    -0.008 C 
ATOM     36  C   LIG    1       16.713 -30.134  13.465  0.00  0.00    +0.016 C 
ATOM     37  C   LIG    1       18.071 -31.040  15.353  0.00  0.00    +0.016 C 
ATOM     38  C   LIG    1       17.196 -28.724  15.498  0.00  0.00    +0.042 C 
ATOM     39  C   LIG    1       17.290 -27.285  15.011  0.00  0.00    +0.119 C 
ATOM     40  C   LIG    1       18.745 -26.912  14.741  0.00  0.00    +0.062 C 
ATOM     41  C   LIG    1       19.531 -27.971  13.983  0.00  0.00    -0.067 C 
ATOM     42  C   LIG    1       20.816 -27.409  13.419  0.00  0.00    +0.039 C 
BRANCH  39  43
ATOM     43  O   LIG    1       16.485 -27.070  13.854  0.00  0.00    -0.391 OA
ATOM     44  H   LIG    1       17.069 -26.747  13.146  0.00  0.00    +0.210 HD
ENDBRANCH  39  43
ENDBRANCH  33  34
ENDBRANCH  30  32
ENDBRANCH  28  29
ENDBRANCH  25  27
ENDBRANCH   2  24
TORSDOF 12
ENDMDL
MODEL 2
REMARK VINA RESULT:      -6.7      2.495      3.907
REMARK  Name = *****
REMARK                            x       y       z     vdW  Elec       q    Type
REMARK                         _______ _______ _______ _____ _____    ______ ____
ROOT
ATOM      1  C   LIG    1       24.496 -29.558   7.358  0.00  0.00    +0.000 C 
ATOM      2  C   LIG    1       24.567 -30.476   8.333  0.00  0.00    +0.000 C 
ENDROOT
BRANCH   1   5
ATOM      3  C   LIG    1       24.116 -27.218   5.430  0.00  0.00    +0.044 C 
ATOM      4  C   LIG    1       25.156 -27.329   6.511  0.00  0.00    -0.050 C 
ATOM      5  C   LIG    1       25.295 -28.356   7.368  0.00  0.00    +0.003 C 
BRANCH   4   6
ATOM      6  C   LIG    1       26.006 -26.160   6.650  0.00  0.00    +0.003 C 
ATOM      7  C   LIG    1       25.502 -24.923   6.773  0.00  0.00    +0.001 C 
BRANCH   7   8
ATOM      8  C   LIG    1       26.343 -23.754   6.875  0.00  0.00    +0.003 C 
ATOM      9  C   LIG    1       25.967 -22.520   7.266  0.00  0.00    -0.050 C 
ATOM     10  C   LIG    1       24.581 -22.119   7.706  0.00  0.00    +0.044 C 
BRANCH   9  11
ATOM     11  C   LIG    1       26.979 -21.476   7.256  0.00  0.00    +0.003 C 
ATOM     12  C   LIG    1       28.286 -21.659   7.485  0.00  0.00    +0.004 C 
BRANCH  12  13
ATOM     13  C   LIG    1       29.275 -20.584   7.401  0.00  0.00    -0.043 C 
ATOM     14  C   LIG    1       30.422 -20.669   8.437  0.00  0.00    -0.008 C 
ATOM     15  C   LIG    1       29.872 -20.494   9.873  0.00  0.00    +0.016 C 
ATOM     16  C   LIG    1       31.134 -22.042   8.375  0.00  0.00    +0.016 C 
ATOM     17  C   LIG    1       31.520 -19.595   8.169  0.00  0.00    +0.042 C 
ATOM     18  C   LIG    1       30.979 -18.261   7.678  0.00  0.00    +0.119 C 
ATOM     19  C   LIG    1       30.166 -18.452   6.400  0.00  0.00    +0.062 C 
ATOM     20  C   LIG    1       29.183 -19.609   6.468  0.00  0.00    -0.067 C 
ATOM     21  C   LIG    1       28.144 -19.529   5.371  0.00  0.00    +0.039 C 
BRANCH  18  22
ATOM     22  O   LIG    1       30.201 -17.615   8.683  0.00  0.00    -0.391 OA
ATOM     23  H   LIG    1       29.409 -18.160   8.837  0.00  0.00    +0.210 HD
ENDBRANCH  18  22
ENDBRANCH  12  13
ENDBRANCH   9  11
ENDBRANCH   7   8
ENDBRANCH   4   6
ENDBRANCH   1   5
BRANCH   2  24
ATOM     24  C   LIG    1       23.680 -31.617   8.380  0.00  0.00    +0.003 C 
ATOM     25  C   LIG    1       23.577 -32.479   9.411  0.00  0.00    -0.050 C 
ATOM     26  C   LIG    1       24.322 -32.340  10.716  0.00  0.00    +0.044 C 
BRANCH  25  27
ATOM     27  C   LIG    1       22.585 -33.549   9.317  0.00  0.00    +0.003 C 
ATOM     28  C   LIG    1       21.386 -33.603   9.920  0.00  0.00    +0.001 C 
BRANCH  28  29
ATOM     29  C   LIG    1       20.814 -32.546  10.715  0.00  0.00    +0.003 C 
ATOM     30  C   LIG    1       19.534 -32.135  10.778  0.00  0.00    -0.050 C 
ATOM     31  C   LIG    1       18.393 -32.728  10.012  0.00  0.00    +0.044 C 
BRANCH  30  32
ATOM     32  C   LIG    1       19.287 -30.984  11.640  0.00  0.00    +0.003 C 
ATOM     33  C   LIG    1       19.827 -30.725  12.843  0.00  0.00    +0.004 C 
BRANCH  33  34
ATOM     34  C   LIG    1       19.517 -29.515  13.613  0.00  0.00    -0.043 C 
ATOM     35  C   LIG    1       18.276 -29.574  14.545  0.00  0.00    -0.008 C 
ATOM     36  C   LIG    1       16.949 -29.647  13.749  0.00  0.00    +0.016 C 
ATOM     37  C   LIG    1       18.336 -30.824  15.458  0.00  0.00    +0.016 C 
ATOM     38  C   LIG    1       18.212 -28.347  15.500  0.00  0.00    +0.042 C 
ATOM     39  C   LIG    1       18.617 -27.032  14.851  0.00  0.00    +0.119 C 
ATOM     40  C   LIG    1       20.034 -27.132  14.291  0.00  0.00    +0.062 C 
ATOM     41  C   LIG    1       20.314 -28.417  13.528  0.00  0.00    -0.067 C 
ATOM     42  C   LIG    1       21.567 -28.302  12.689  0.00  0.00    +0.039 C 
BRANCH  39  43
ATOM     43  O   LIG    1       17.695 -26.643  13.836  0.00  0.00    -0.391 OA
ATOM     44  H   LIG    1       17.354 -27.455  13.421  0.00  0.00    +0.210 HD
ENDBRANCH  39  43
ENDBRANCH  33  34
ENDBRANCH  30  32
ENDBRANCH  28  29
ENDBRANCH  25  27
ENDBRANCH   2  24
TORSDOF 12
ENDMDL
MODEL 3
REMARK VINA RESULT:      -6.7      3.234      5.619
REMARK  Name = *****
REMARK                            x       y       z     vdW  Elec       q    Type
REMARK                         _______ _______ _______ _____ _____    ______ ____
ROOT
ATOM      1  C   LIG    1       24.619 -28.844   6.668  0.00  0.00    +0.000 C 
ATOM      2  C   LIG    1       24.970 -29.874   5.885  0.00  0.00    +0.000 C 
ENDROOT
BRANCH   1   5
ATOM      3  C   LIG    1       23.959 -26.068   5.572  0.00  0.00    +0.044 C 
ATOM      4  C   LIG    1       25.191 -26.458   6.341  0.00  0.00    -0.050 C 
ATOM      5  C   LIG    1       25.456 -27.681   6.837  0.00  0.00    +0.003 C 
BRANCH   4   6
ATOM      6  C   LIG    1       26.103 -25.362   6.613  0.00  0.00    +0.003 C 
ATOM      7  C   LIG    1       25.669 -24.150   6.987  0.00  0.00    +0.001 C 
BRANCH   7   8
ATOM      8  C   LIG    1       26.570 -23.046   7.222  0.00  0.00    +0.003 C 
ATOM      9  C   LIG    1       26.232 -21.790   7.577  0.00  0.00    -0.050 C 
ATOM     10  C   LIG    1       24.831 -21.291   7.828  0.00  0.00    +0.044 C 
BRANCH   9  11
ATOM     11  C   LIG    1       27.308 -20.823   7.724  0.00  0.00    +0.003 C 
ATOM     12  C   LIG    1       28.613 -21.084   7.574  0.00  0.00    +0.004 C 
BRANCH  12  13
ATOM     13  C   LIG    1       29.654 -20.060   7.670  0.00  0.00    -0.043 C 
ATOM     14  C   LIG    1       30.657 -20.255   8.833  0.00  0.00    -0.008 C 
ATOM     15  C   LIG    1       29.940 -20.120  10.199  0.00  0.00    +0.016 C 
ATOM     16  C   LIG    1       31.306 -21.661   8.785  0.00  0.00    +0.016 C 
ATOM     17  C   LIG    1       31.829 -19.231   8.761  0.00  0.00    +0.042 C 
ATOM     18  C   LIG    1       31.417 -17.847   8.280  0.00  0.00    +0.119 C 
ATOM     19  C   LIG    1       30.763 -17.934   6.903  0.00  0.00    +0.062 C 
ATOM     20  C   LIG    1       29.726 -19.039   6.787  0.00  0.00    -0.067 C 
ATOM     21  C   LIG    1       28.838 -18.851   5.577  0.00  0.00    +0.039 C 
BRANCH  18  22
ATOM     22  O   LIG    1       30.550 -17.210   9.215  0.00  0.00    -0.391 OA
ATOM     23  H   LIG    1       30.516 -17.767  10.012  0.00  0.00    +0.210 HD
ENDBRANCH  18  22
ENDBRANCH  12  13
ENDBRANCH   9  11
ENDBRANCH   7   8
ENDBRANCH   4   6
ENDBRANCH   1   5
BRANCH   2  24
ATOM     24  C   LIG    1       24.186 -31.087   5.812  0.00  0.00    +0.003 C 
ATOM     25  C   LIG    1       24.678 -32.318   5.570  0.00  0.00    -0.050 C 
ATOM     26  C   LIG    1       26.145 -32.632   5.412  0.00  0.00    +0.044 C 
BRANCH  25  27
ATOM     27  C   LIG    1       23.749 -33.446   5.588  0.00  0.00    +0.003 C 
ATOM     28  C   LIG    1       22.947 -33.825   6.597  0.00  0.00    +0.001 C 
BRANCH  28  29
ATOM     29  C   LIG    1       22.793 -33.112   7.840  0.00  0.00    +0.003 C 
ATOM     30  C   LIG    1       23.615 -33.083   8.905  0.00  0.00    -0.050 C 
ATOM     31  C   LIG    1       24.922 -33.805   9.012  0.00  0.00    +0.044 C 
BRANCH  30  32
ATOM     32  C   LIG    1       23.137 -32.310  10.046  0.00  0.00    +0.003 C 
ATOM     33  C   LIG    1       23.254 -30.986  10.251  0.00  0.00    +0.004 C 
BRANCH  33  34
ATOM     34  C   LIG    1       22.710 -30.312  11.435  0.00  0.00    -0.043 C 
ATOM     35  C   LIG    1       23.734 -29.791  12.479  0.00  0.00    -0.008 C 
ATOM     36  C   LIG    1       24.451 -30.945  13.223  0.00  0.00    +0.016 C 
ATOM     37  C   LIG    1       24.827 -28.934  11.794  0.00  0.00    +0.016 C 
ATOM     38  C   LIG    1       23.062 -28.865  13.535  0.00  0.00    +0.042 C 
ATOM     39  C   LIG    1       21.685 -29.331  13.983  0.00  0.00    +0.119 C 
ATOM     40  C   LIG    1       20.749 -29.449  12.783  0.00  0.00    +0.062 C 
ATOM     41  C   LIG    1       21.370 -30.129  11.572  0.00  0.00    -0.067 C 
ATOM     42  C   LIG    1       20.316 -30.555  10.575  0.00  0.00    +0.039 C 
BRANCH  39  43
ATOM     43  O   LIG    1       21.755 -30.563  14.697  0.00  0.00    -0.391 OA
ATOM     44  H   LIG    1       22.690 -30.725  14.914  0.00  0.00    +0.210 HD
ENDBRANCH  39  43
ENDBRANCH  33  34
ENDBRANCH  30  32
ENDBRANCH  28  29
ENDBRANCH  25  27
ENDBRANCH   2  24
TORSDOF 12
ENDMDL
MODEL 4
REMARK VINA RESULT:      -6.6      3.108     13.846
REMARK  Name = *****
REMARK                            x       y       z     vdW  Elec       q    Type
REMARK                         _______ _______ _______ _____ _____    ______ ____
ROOT
ATOM      1  C   LIG    1       25.056 -24.279   5.418  0.00  0.00    +0.000 C 
ATOM      2  C   LIG    1       24.261 -23.199   5.438  0.00  0.00    +0.000 C 
ENDROOT
BRANCH   1   5
ATOM      3  C   LIG    1       26.272 -27.053   5.010  0.00  0.00    +0.044 C 
ATOM      4  C   LIG    1       25.388 -26.620   6.147  0.00  0.00    -0.050 C 
ATOM      5  C   LIG    1       24.880 -25.387   6.325  0.00  0.00    +0.003 C 
BRANCH   4   6
ATOM      6  C   LIG    1       25.162 -27.640   7.155  0.00  0.00    +0.003 C 
ATOM      7  C   LIG    1       24.427 -28.735   6.909  0.00  0.00    +0.001 C 
BRANCH   7   8
ATOM      8  C   LIG    1       24.168 -29.734   7.919  0.00  0.00    +0.003 C 
ATOM      9  C   LIG    1       23.997 -31.056   7.722  0.00  0.00    -0.050 C 
ATOM     10  C   LIG    1       24.070 -31.766   6.393  0.00  0.00    +0.044 C 
BRANCH   9  11
ATOM     11  C   LIG    1       23.707 -31.876   8.888  0.00  0.00    +0.003 C 
ATOM     12  C   LIG    1       23.102 -31.451  10.005  0.00  0.00    +0.004 C 
BRANCH  12  13
ATOM     13  C   LIG    1       22.776 -32.332  11.127  0.00  0.00    -0.043 C 
ATOM     14  C   LIG    1       21.275 -32.683  11.268  0.00  0.00    -0.008 C 
ATOM     15  C   LIG    1       20.449 -31.416  11.598  0.00  0.00    +0.016 C 
ATOM     16  C   LIG    1       20.711 -33.277   9.954  0.00  0.00    +0.016 C 
ATOM     17  C   LIG    1       21.036 -33.758  12.370  0.00  0.00    +0.042 C 
ATOM     18  C   LIG    1       21.945 -33.619  13.582  0.00  0.00    +0.119 C 
ATOM     19  C   LIG    1       23.411 -33.675  13.159  0.00  0.00    +0.062 C 
ATOM     20  C   LIG    1       23.734 -32.807  11.955  0.00  0.00    -0.067 C 
ATOM     21  C   LIG    1       25.223 -32.580  11.809  0.00  0.00    +0.039 C 
BRANCH  18  22
ATOM     22  O   LIG    1       21.671 -32.419  14.302  0.00  0.00    -0.391 OA
ATOM     23  H   LIG    1       20.742 -32.456  14.592  0.00  0.00    +0.210 HD
ENDBRANCH  18  22
ENDBRANCH  12  13
ENDBRANCH   9  11
ENDBRANCH   7   8
ENDBRANCH   4   6
ENDBRANCH   1   5
BRANCH   2  24
ATOM     24  C   LIG    1       24.515 -22.042   4.611  0.00  0.00    +0.003 C 
ATOM     25  C   LIG    1       23.630 -21.057   4.359  0.00  0.00    -0.050 C 
ATOM     26  C   LIG    1       22.252 -20.973   4.969  0.00  0.00    +0.044 C 
BRANCH  25  27
ATOM     27  C   LIG    1       24.071 -19.926   3.544  0.00  0.00    +0.003 C 
ATOM     28  C   LIG    1       25.221 -19.240   3.658  0.00  0.00    +0.001 C 
BRANCH  28  29
ATOM     29  C   LIG    1       26.287 -19.564   4.571  0.00  0.00    +0.003 C 
ATOM     30  C   LIG    1       27.414 -18.875   4.831  0.00  0.00    -0.050 C 
ATOM     31  C   LIG    1       27.796 -17.568   4.210  0.00  0.00    +0.044 C 
BRANCH  30  32
ATOM     32  C   LIG    1       28.335 -19.510   5.769  0.00  0.00    +0.003 C 
ATOM     33  C   LIG    1       28.410 -19.329   7.099  0.00  0.00    +0.004 C 
BRANCH  33  34
ATOM     34  C   LIG    1       29.370 -20.045   7.947  0.00  0.00    -0.043 C 
ATOM     35  C   LIG    1       30.651 -19.273   8.364  0.00  0.00    -0.008 C 
ATOM     36  C   LIG    1       31.599 -19.021   7.165  0.00  0.00    +0.016 C 
ATOM     37  C   LIG    1       30.287 -17.893   8.964  0.00  0.00    +0.016 C 
ATOM     38  C   LIG    1       31.444 -20.027   9.471  0.00  0.00    +0.042 C 
ATOM     39  C   LIG    1       31.489 -21.537   9.286  0.00  0.00    +0.119 C 
ATOM     40  C   LIG    1       30.074 -22.106   9.237  0.00  0.00    +0.062 C 
ATOM     41  C   LIG    1       29.110 -21.311   8.368  0.00  0.00    -0.067 C 
ATOM     42  C   LIG    1       27.863 -22.107   8.053  0.00  0.00    +0.039 C 
BRANCH  39  43
ATOM     43  O   LIG    1       32.224 -21.900   8.119  0.00  0.00    -0.391 OA
ATOM     44  H   LIG    1       32.938 -21.248   8.007  0.00  0.00    +0.210 HD
ENDBRANCH  39  43
ENDBRANCH  33  34
ENDBRANCH  30  32
ENDBRANCH  28  29
ENDBRANCH  25  27
ENDBRANCH   2  24
TORSDOF 12
ENDMDL
MODEL 5
REMARK VINA RESULT:      -6.2      3.199      5.373
REMARK  Name = *****
REMARK                            x       y       z     vdW  Elec       q    Type
REMARK                         _______ _______ _______ _____ _____    ______ ____
ROOT
ATOM      1  C   LIG    1       24.452 -28.816   6.739  0.00  0.00    +0.000 C 
ATOM      2  C   LIG    1       24.912 -30.030   6.401  0.00  0.00    +0.000 C 
ENDROOT
BRANCH   1   5
ATOM      3  C   LIG    1       23.856 -26.084   5.506  0.00  0.00    +0.044 C 
ATOM      4  C   LIG    1       25.078 -26.463   6.296  0.00  0.00    -0.050 C 
ATOM      5  C   LIG    1       25.315 -27.665   6.852  0.00  0.00    +0.003 C 
BRANCH   4   6
ATOM      6  C   LIG    1       26.014 -25.376   6.514  0.00  0.00    +0.003 C 
ATOM      7  C   LIG    1       25.634 -24.204   7.043  0.00  0.00    +0.001 C 
BRANCH   7   8
ATOM      8  C   LIG    1       26.553 -23.106   7.228  0.00  0.00    +0.003 C 
ATOM      9  C   LIG    1       26.265 -21.885   7.723  0.00  0.00    -0.050 C 
ATOM     10  C   LIG    1       24.913 -21.429   8.212  0.00  0.00    +0.044 C 
BRANCH   9  11
ATOM     11  C   LIG    1       27.346 -20.914   7.785  0.00  0.00    +0.003 C 
ATOM     12  C   LIG    1       28.650 -21.196   7.673  0.00  0.00    +0.004 C 
BRANCH  12  13
ATOM     13  C   LIG    1       29.696 -20.173   7.679  0.00  0.00    -0.043 C 
ATOM     14  C   LIG    1       30.741 -20.313   8.813  0.00  0.00    -0.008 C 
ATOM     15  C   LIG    1       30.075 -20.106  10.195  0.00  0.00    +0.016 C 
ATOM     16  C   LIG    1       31.384 -21.722   8.813  0.00  0.00    +0.016 C 
ATOM     17  C   LIG    1       31.912 -19.299   8.645  0.00  0.00    +0.042 C 
ATOM     18  C   LIG    1       31.486 -17.940   8.110  0.00  0.00    +0.119 C 
ATOM     19  C   LIG    1       30.781 -18.093   6.765  0.00  0.00    +0.062 C 
ATOM     20  C   LIG    1       29.738 -19.198   6.743  0.00  0.00    -0.067 C 
ATOM     21  C   LIG    1       28.807 -19.068   5.558  0.00  0.00    +0.039 C 
BRANCH  18  22
ATOM     22  O   LIG    1       30.656 -17.252   9.042  0.00  0.00    -0.391 OA
ATOM     23  H   LIG    1       30.918 -16.314   9.033  0.00  0.00    +0.210 HD
ENDBRANCH  18  22
ENDBRANCH  12  13
ENDBRANCH   9  11
ENDBRANCH   7   8
ENDBRANCH   4   6
ENDBRANCH   1   5
BRANCH   2  24
ATOM     24  C   LIG    1       24.066 -31.202   6.406  0.00  0.00    +0.003 C 
ATOM     25  C   LIG    1       24.227 -32.280   5.614  0.00  0.00    -0.050 C 
ATOM     26  C   LIG    1       25.370 -32.462   4.645  0.00  0.00    +0.044 C 
BRANCH  25  27
ATOM     27  C   LIG    1       23.312 -33.406   5.790  0.00  0.00    +0.003 C 
ATOM     28  C   LIG    1       22.747 -33.825   6.934  0.00  0.00    +0.001 C 
BRANCH  28  29
ATOM     29  C   LIG    1       22.876 -33.165   8.208  0.00  0.00    +0.003 C 
ATOM     30  C   LIG    1       21.997 -33.110   9.225  0.00  0.00    -0.050 C 
ATOM     31  C   LIG    1       20.651 -33.766   9.244  0.00  0.00    +0.044 C 
BRANCH  30  32
ATOM     32  C   LIG    1       22.405 -32.298  10.366  0.00  0.00    +0.003 C 
ATOM     33  C   LIG    1       22.164 -30.992  10.575  0.00  0.00    +0.004 C 
BRANCH  33  34
ATOM     34  C   LIG    1       22.609 -30.282  11.780  0.00  0.00    -0.043 C 
ATOM     35  C   LIG    1       21.634 -30.270  12.989  0.00  0.00    -0.008 C 
ATOM     36  C   LIG    1       20.370 -29.417  12.713  0.00  0.00    +0.016 C 
ATOM     37  C   LIG    1       21.158 -31.706  13.322  0.00  0.00    +0.016 C 
ATOM     38  C   LIG    1       22.320 -29.734  14.278  0.00  0.00    +0.042 C 
ATOM     39  C   LIG    1       23.257 -28.559  14.042  0.00  0.00    +0.119 C 
ATOM     40  C   LIG    1       24.345 -28.942  13.043  0.00  0.00    +0.062 C 
ATOM     41  C   LIG    1       23.837 -29.702  11.827  0.00  0.00    -0.067 C 
ATOM     42  C   LIG    1       24.863 -29.719  10.716  0.00  0.00    +0.039 C 
BRANCH  39  43
ATOM     43  O   LIG    1       22.547 -27.403  13.603  0.00  0.00    -0.391 OA
ATOM     44  H   LIG    1       21.644 -27.458  13.963  0.00  0.00    +0.210 HD
ENDBRANCH  39  43
ENDBRANCH  33  34
ENDBRANCH  30  32
ENDBRANCH  28  29
ENDBRANCH  25  27
ENDBRANCH   2  24
TORSDOF 12
ENDMDL
MODEL 6
REMARK VINA RESULT:      -5.9      4.276      6.441
REMARK  Name = *****
REMARK                            x       y       z     vdW  Elec       q    Type
REMARK                         _______ _______ _______ _____ _____    ______ ____
ROOT
ATOM      1  C   LIG    1       24.495 -28.582   6.407  0.00  0.00    +0.000 C 
ATOM      2  C   LIG    1       24.945 -29.782   6.012  0.00  0.00    +0.000 C 
ENDROOT
BRANCH   1   5
ATOM      3  C   LIG    1       23.682 -25.699   5.801  0.00  0.00    +0.044 C 
ATOM      4  C   LIG    1       25.030 -26.169   6.274  0.00  0.00    -0.050 C 
ATOM      5  C   LIG    1       25.365 -27.441   6.559  0.00  0.00    +0.003 C 
BRANCH   4   6
ATOM      6  C   LIG    1       25.992 -25.107   6.503  0.00  0.00    +0.003 C 
ATOM      7  C   LIG    1       25.634 -23.922   7.019  0.00  0.00    +0.001 C 
BRANCH   7   8
ATOM      8  C   LIG    1       26.581 -22.848   7.214  0.00  0.00    +0.003 C 
ATOM      9  C   LIG    1       26.315 -21.614   7.688  0.00  0.00    -0.050 C 
ATOM     10  C   LIG    1       24.966 -21.114   8.139  0.00  0.00    +0.044 C 
BRANCH   9  11
ATOM     11  C   LIG    1       27.422 -20.674   7.765  0.00  0.00    +0.003 C 
ATOM     12  C   LIG    1       28.721 -20.998   7.731  0.00  0.00    +0.004 C 
BRANCH  12  13
ATOM     13  C   LIG    1       29.797 -20.007   7.749  0.00  0.00    -0.043 C 
ATOM     14  C   LIG    1       30.799 -20.151   8.920  0.00  0.00    -0.008 C 
ATOM     15  C   LIG    1       30.093 -19.889  10.274  0.00  0.00    +0.016 C 
ATOM     16  C   LIG    1       31.398 -21.577   8.976  0.00  0.00    +0.016 C 
ATOM     17  C   LIG    1       32.005 -19.176   8.769  0.00  0.00    +0.042 C 
ATOM     18  C   LIG    1       31.640 -17.819   8.188  0.00  0.00    +0.119 C 
ATOM     19  C   LIG    1       30.976 -17.984   6.823  0.00  0.00    +0.062 C 
ATOM     20  C   LIG    1       29.901 -19.057   6.792  0.00  0.00    -0.067 C 
ATOM     21  C   LIG    1       29.014 -18.928   5.573  0.00  0.00    +0.039 C 
BRANCH  18  22
ATOM     22  O   LIG    1       30.800 -17.083   9.075  0.00  0.00    -0.391 OA
ATOM     23  H   LIG    1       31.167 -16.184   9.149  0.00  0.00    +0.210 HD
ENDBRANCH  18  22
ENDBRANCH  12  13
ENDBRANCH   9  11
ENDBRANCH   7   8
ENDBRANCH   4   6
ENDBRANCH   1   5
BRANCH   2  24
ATOM     24  C   LIG    1       24.093 -30.949   5.977  0.00  0.00    +0.003 C 
ATOM     25  C   LIG    1       24.401 -32.119   5.384  0.00  0.00    -0.050 C 
ATOM     26  C   LIG    1       25.726 -32.417   4.725  0.00  0.00    +0.044 C 
BRANCH  25  27
ATOM     27  C   LIG    1       23.445 -33.219   5.493  0.00  0.00    +0.003 C 
ATOM     28  C   LIG    1       23.009 -33.810   6.618  0.00  0.00    +0.001 C 
BRANCH  28  29
ATOM     29  C   LIG    1       23.348 -33.392   7.954  0.00  0.00    +0.003 C 
ATOM     30  C   LIG    1       22.546 -33.258   9.026  0.00  0.00    -0.050 C 
ATOM     31  C   LIG    1       21.076 -33.542   9.052  0.00  0.00    +0.044 C 
BRANCH  30  32
ATOM     32  C   LIG    1       23.190 -32.747  10.232  0.00  0.00    +0.003 C 
ATOM     33  C   LIG    1       24.224 -31.893  10.314  0.00  0.00    +0.004 C 
BRANCH  33  34
ATOM     34  C   LIG    1       24.776 -31.430  11.592  0.00  0.00    -0.043 C 
ATOM     35  C   LIG    1       24.761 -29.898  11.850  0.00  0.00    -0.008 C 
ATOM     36  C   LIG    1       25.745 -29.139  10.924  0.00  0.00    +0.016 C 
ATOM     37  C   LIG    1       23.349 -29.315  11.601  0.00  0.00    +0.016 C 
ATOM     38  C   LIG    1       25.112 -29.558  13.328  0.00  0.00    +0.042 C 
ATOM     39  C   LIG    1       26.217 -30.421  13.919  0.00  0.00    +0.119 C 
ATOM     40  C   LIG    1       25.834 -31.897  13.844  0.00  0.00    +0.062 C 
ATOM     41  C   LIG    1       25.239 -32.320  12.509  0.00  0.00    -0.067 C 
ATOM     42  C   LIG    1       25.235 -33.825  12.357  0.00  0.00    +0.039 C 
BRANCH  39  43
ATOM     43  O   LIG    1       27.467 -30.186  13.275  0.00  0.00    -0.391 OA
ATOM     44  H   LIG    1       27.610 -30.908  12.639  0.00  0.00    +0.210 HD
ENDBRANCH  39  43
ENDBRANCH  33  34
ENDBRANCH  30  32
ENDBRANCH  28  29
ENDBRANCH  25  27
ENDBRANCH   2  24
TORSDOF 12
ENDMDL
MODEL 7
REMARK VINA RESULT:      -5.5      4.253     13.836
REMARK  Name = *****
REMARK                            x       y       z     vdW  Elec       q    Type
REMARK                         _______ _______ _______ _____ _____    ______ ____
ROOT
ATOM      1  C   LIG    1       25.146 -24.230   5.466  0.00  0.00    +0.000 C 
ATOM      2  C   LIG    1       24.360 -23.154   5.617  0.00  0.00    +0.000 C 
ENDROOT
BRANCH   1   5
ATOM      3  C   LIG    1       26.050 -27.114   5.015  0.00  0.00    +0.044 C 
ATOM      4  C   LIG    1       25.724 -26.473   6.336  0.00  0.00    -0.050 C 
ATOM      5  C   LIG    1       25.349 -25.194   6.520  0.00  0.00    +0.003 C 
BRANCH   4   6
ATOM      6  C   LIG    1       25.925 -27.333   7.488  0.00  0.00    +0.003 C 
ATOM      7  C   LIG    1       25.300 -28.513   7.614  0.00  0.00    +0.001 C 
BRANCH   7   8
ATOM      8  C   LIG    1       25.469 -29.355   8.776  0.00  0.00    +0.003 C 
ATOM      9  C   LIG    1       25.842 -30.650   8.787  0.00  0.00    -0.050 C 
ATOM     10  C   LIG    1       26.188 -31.479   7.575  0.00  0.00    +0.044 C 
BRANCH   9  11
ATOM     11  C   LIG    1       25.911 -31.317  10.078  0.00  0.00    +0.003 C 
ATOM     12  C   LIG    1       25.318 -30.896  11.202  0.00  0.00    +0.004 C 
BRANCH  12  13
ATOM     13  C   LIG    1       25.365 -31.637  12.462  0.00  0.00    -0.043 C 
ATOM     14  C   LIG    1       25.712 -30.787  13.709  0.00  0.00    -0.008 C 
ATOM     15  C   LIG    1       27.153 -30.231  13.603  0.00  0.00    +0.016 C 
ATOM     16  C   LIG    1       24.755 -29.578  13.848  0.00  0.00    +0.016 C 
ATOM     17  C   LIG    1       25.570 -31.609  15.025  0.00  0.00    +0.042 C 
ATOM     18  C   LIG    1       26.001 -33.063  14.900  0.00  0.00    +0.119 C 
ATOM     19  C   LIG    1       25.205 -33.764  13.801  0.00  0.00    +0.062 C 
ATOM     20  C   LIG    1       25.104 -32.963  12.514  0.00  0.00    -0.067 C 
ATOM     21  C   LIG    1       24.665 -33.824  11.350  0.00  0.00    +0.039 C 
BRANCH  18  22
ATOM     22  O   LIG    1       27.402 -33.170  14.657  0.00  0.00    -0.391 OA
ATOM     23  H   LIG    1       27.536 -33.892  14.018  0.00  0.00    +0.210 HD
ENDBRANCH  18  22
ENDBRANCH  12  13
ENDBRANCH   9  11
ENDBRANCH   7   8
ENDBRANCH   4   6
ENDBRANCH   1   5
BRANCH   2  24
ATOM     24  C   LIG    1       24.254 -22.130   4.603  0.00  0.00    +0.003 C 
ATOM     25  C   LIG    1       23.143 -21.418   4.328  0.00  0.00    -0.050 C 
ATOM     26  C   LIG    1       21.849 -21.530   5.097  0.00  0.00    +0.044 C 
BRANCH  25  27
ATOM     27  C   LIG    1       23.227 -20.378   3.305  0.00  0.00    +0.003 C 
ATOM     28  C   LIG    1       24.185 -19.447   3.168  0.00  0.00    +0.001 C 
BRANCH  28  29
ATOM     29  C   LIG    1       25.377 -19.365   3.972  0.00  0.00    +0.003 C 
ATOM     30  C   LIG    1       26.316 -18.401   3.995  0.00  0.00    -0.050 C 
ATOM     31  C   LIG    1       26.304 -17.157   3.163  0.00  0.00    +0.044 C 
BRANCH  30  32
ATOM     32  C   LIG    1       27.447 -18.647   4.883  0.00  0.00    +0.003 C 
ATOM     33  C   LIG    1       27.625 -19.682   5.723  0.00  0.00    +0.004 C 
BRANCH  33  34
ATOM     34  C   LIG    1       28.822 -19.835   6.557  0.00  0.00    -0.043 C 
ATOM     35  C   LIG    1       28.732 -20.840   7.738  0.00  0.00    -0.008 C 
ATOM     36  C   LIG    1       27.777 -20.348   8.854  0.00  0.00    +0.016 C 
ATOM     37  C   LIG    1       28.204 -22.212   7.249  0.00  0.00    +0.016 C 
ATOM     38  C   LIG    1       30.128 -21.116   8.368  0.00  0.00    +0.042 C 
ATOM     39  C   LIG    1       31.015 -19.885   8.480  0.00  0.00    +0.119 C 
ATOM     40  C   LIG    1       31.225 -19.258   7.105  0.00  0.00    +0.062 C 
ATOM     41  C   LIG    1       29.959 -19.148   6.268  0.00  0.00    -0.067 C 
ATOM     42  C   LIG    1       30.143 -18.198   5.106  0.00  0.00    +0.039 C 
BRANCH  39  43
ATOM     43  O   LIG    1       30.478 -18.934   9.397  0.00  0.00    -0.391 OA
ATOM     44  H   LIG    1       29.620 -19.276   9.706  0.00  0.00    +0.210 HD
ENDBRANCH  39  43
ENDBRANCH  33  34
ENDBRANCH  30  32
ENDBRANCH  28  29
ENDBRANCH  25  27
ENDBRANCH   2  24
TORSDOF 12
ENDMDL
MODEL 8
REMARK VINA RESULT:      -4.8      1.614      2.536
REMARK  Name = *****
REMARK                            x       y       z     vdW  Elec       q    Type
REMARK                         _______ _______ _______ _____ _____    ______ ____
ROOT
ATOM      1  C   LIG    1       26.387 -30.173  10.685  0.00  0.00    +0.000 C 
ATOM      2  C   LIG    1       26.202 -30.254  12.011  0.00  0.00    +0.000 C 
ENDROOT
BRANCH   1   5
ATOM      3  C   LIG    1       25.619 -29.881   7.741  0.00  0.00    +0.044 C 
ATOM      4  C   LIG    1       26.038 -28.776   8.672  0.00  0.00    -0.050 C 
ATOM      5  C   LIG    1       26.350 -28.919   9.973  0.00  0.00    +0.003 C 
BRANCH   4   6
ATOM      6  C   LIG    1       26.006 -27.449   8.085  0.00  0.00    +0.003 C 
ATOM      7  C   LIG    1       24.999 -27.043   7.297  0.00  0.00    +0.001 C 
BRANCH   7   8
ATOM      8  C   LIG    1       24.981 -25.737   6.680  0.00  0.00    +0.003 C 
ATOM      9  C   LIG    1       25.194 -25.457   5.378  0.00  0.00    -0.050 C 
ATOM     10  C   LIG    1       25.470 -26.466   4.293  0.00  0.00    +0.044 C 
BRANCH   9  11
ATOM     11  C   LIG    1       25.167 -24.058   4.981  0.00  0.00    +0.003 C 
ATOM     12  C   LIG    1       24.910 -23.025   5.793  0.00  0.00    +0.004 C 
BRANCH  12  13
ATOM     13  C   LIG    1       24.956 -21.629   5.357  0.00  0.00    -0.043 C 
ATOM     14  C   LIG    1       23.713 -21.149   4.567  0.00  0.00    -0.008 C 
ATOM     15  C   LIG    1       23.599 -21.907   3.222  0.00  0.00    +0.016 C 
ATOM     16  C   LIG    1       22.409 -21.408   5.360  0.00  0.00    +0.016 C 
ATOM     17  C   LIG    1       23.761 -19.615   4.295  0.00  0.00    +0.042 C 
ATOM     18  C   LIG    1       25.155 -19.078   4.003  0.00  0.00    +0.119 C 
ATOM     19  C   LIG    1       26.102 -19.396   5.158  0.00  0.00    +0.062 C 
ATOM     20  C   LIG    1       26.007 -20.830   5.650  0.00  0.00    -0.067 C 
ATOM     21  C   LIG    1       27.199 -21.212   6.500  0.00  0.00    +0.039 C 
BRANCH  18  22
ATOM     22  O   LIG    1       25.663 -19.593   2.775  0.00  0.00    -0.391 OA
ATOM     23  H   LIG    1       25.006 -20.221   2.424  0.00  0.00    +0.210 HD
ENDBRANCH  18  22
ENDBRANCH  12  13
ENDBRANCH   9  11
ENDBRANCH   7   8
ENDBRANCH   4   6
ENDBRANCH   1   5
BRANCH   2  24
ATOM     24  C   LIG    1       26.121 -31.521  12.700  0.00  0.00    +0.003 C 
ATOM     25  C   LIG    1       25.589 -31.709  13.924  0.00  0.00    -0.050 C 
ATOM     26  C   LIG    1       24.921 -30.626  14.737  0.00  0.00    +0.044 C 
BRANCH  25  27
ATOM     27  C   LIG    1       25.536 -33.071  14.451  0.00  0.00    +0.003 C 
ATOM     28  C   LIG    1       24.442 -33.825  14.649  0.00  0.00    +0.001 C 
BRANCH  28  29
ATOM     29  C   LIG    1       23.101 -33.446  14.284  0.00  0.00    +0.003 C 
ATOM     30  C   LIG    1       22.542 -33.392  13.061  0.00  0.00    -0.050 C 
ATOM     31  C   LIG    1       23.227 -33.744  11.777  0.00  0.00    +0.044 C 
BRANCH  30  32
ATOM     32  C   LIG    1       21.169 -32.900  13.019  0.00  0.00    +0.003 C 
ATOM     33  C   LIG    1       20.748 -31.655  12.737  0.00  0.00    +0.004 C 
BRANCH  33  34
ATOM     34  C   LIG    1       19.329 -31.282  12.703  0.00  0.00    -0.043 C 
ATOM     35  C   LIG    1       18.771 -30.529  13.941  0.00  0.00    -0.008 C 
ATOM     36  C   LIG    1       18.707 -31.433  15.197  0.00  0.00    +0.016 C 
ATOM     37  C   LIG    1       19.666 -29.314  14.292  0.00  0.00    +0.016 C 
ATOM     38  C   LIG    1       17.350 -29.952  13.674  0.00  0.00    +0.042 C 
ATOM     39  C   LIG    1       16.446 -30.874  12.870  0.00  0.00    +0.119 C 
ATOM     40  C   LIG    1       17.089 -31.208  11.527  0.00  0.00    +0.062 C 
ATOM     41  C   LIG    1       18.567 -31.559  11.612  0.00  0.00    -0.067 C 
ATOM     42  C   LIG    1       19.049 -32.236  10.349  0.00  0.00    +0.039 C 
BRANCH  39  43
ATOM     43  O   LIG    1       16.133 -32.063  13.594  0.00  0.00    -0.391 OA
ATOM     44  H   LIG    1       16.788 -32.153  14.308  0.00  0.00    +0.210 HD
ENDBRANCH  39  43
ENDBRANCH  33  34
ENDBRANCH  30  32
ENDBRANCH  28  29
ENDBRANCH  25  27
ENDBRANCH   2  24
TORSDOF 12
ENDMDL
MODEL 9
REMARK VINA RESULT:      -4.7      3.753     13.840
REMARK  Name = *****
REMARK                            x       y       z     vdW  Elec       q    Type
REMARK                         _______ _______ _______ _____ _____    ______ ____
ROOT
ATOM      1  C   LIG    1       25.365 -23.535   5.600  0.00  0.00    +0.000 C 
ATOM      2  C   LIG    1       24.234 -22.853   5.367  0.00  0.00    +0.000 C 
ENDROOT
BRANCH   1   5
ATOM      3  C   LIG    1       25.737 -26.516   5.037  0.00  0.00    +0.044 C 
ATOM      4  C   LIG    1       25.599 -25.870   6.388  0.00  0.00    -0.050 C 
ATOM      5  C   LIG    1       25.459 -24.552   6.620  0.00  0.00    +0.003 C 
BRANCH   4   6
ATOM      6  C   LIG    1       25.715 -26.786   7.508  0.00  0.00    +0.003 C 
ATOM      7  C   LIG    1       25.643 -28.116   7.350  0.00  0.00    +0.001 C 
BRANCH   7   8
ATOM      8  C   LIG    1       25.720 -29.030   8.466  0.00  0.00    +0.003 C 
ATOM      9  C   LIG    1       25.484 -30.357   8.440  0.00  0.00    -0.050 C 
ATOM     10  C   LIG    1       25.114 -31.163   7.220  0.00  0.00    +0.044 C 
BRANCH   9  11
ATOM     11  C   LIG    1       25.584 -31.080   9.698  0.00  0.00    +0.003 C 
ATOM     12  C   LIG    1       24.827 -30.863  10.781  0.00  0.00    +0.004 C 
BRANCH  12  13
ATOM     13  C   LIG    1       24.924 -31.661  12.003  0.00  0.00    -0.043 C 
ATOM     14  C   LIG    1       24.035 -32.928  12.029  0.00  0.00    -0.008 C 
ATOM     15  C   LIG    1       22.536 -32.541  12.012  0.00  0.00    +0.016 C 
ATOM     16  C   LIG    1       24.299 -33.825  10.795  0.00  0.00    +0.016 C 
ATOM     17  C   LIG    1       24.327 -33.811  13.280  0.00  0.00    +0.042 C 
ATOM     18  C   LIG    1       24.633 -33.019  14.543  0.00  0.00    +0.119 C 
ATOM     19  C   LIG    1       25.824 -32.091  14.315  0.00  0.00    +0.062 C 
ATOM     20  C   LIG    1       25.751 -31.309  13.014  0.00  0.00    -0.067 C 
ATOM     21  C   LIG    1       26.713 -30.141  13.005  0.00  0.00    +0.039 C 
BRANCH  18  22
ATOM     22  O   LIG    1       23.494 -32.284  14.983  0.00  0.00    -0.391 OA
ATOM     23  H   LIG    1       23.807 -31.418  15.300  0.00  0.00    +0.210 HD
ENDBRANCH  18  22
ENDBRANCH  12  13
ENDBRANCH   9  11
ENDBRANCH   7   8
ENDBRANCH   4   6
ENDBRANCH   1   5
BRANCH   2  24
ATOM     24  C   LIG    1       24.178 -21.755   4.428  0.00  0.00    +0.003 C 
ATOM     25  C   LIG    1       23.101 -20.977   4.205  0.00  0.00    -0.050 C 
ATOM     26  C   LIG    1       21.800 -21.086   4.963  0.00  0.00    +0.044 C 
BRANCH  25  27
ATOM     27  C   LIG    1       23.235 -19.871   3.259  0.00  0.00    +0.003 C 
ATOM     28  C   LIG    1       24.233 -18.974   3.191  0.00  0.00    +0.001 C 
BRANCH  28  29
ATOM     29  C   LIG    1       25.423 -19.001   4.002  0.00  0.00    +0.003 C 
ATOM     30  C   LIG    1       26.445 -18.127   4.032  0.00  0.00    -0.050 C 
ATOM     31  C   LIG    1       26.550 -16.886   3.201  0.00  0.00    +0.044 C 
BRANCH  30  32
ATOM     32  C   LIG    1       27.544 -18.475   4.926  0.00  0.00    +0.003 C 
ATOM     33  C   LIG    1       27.663 -19.570   5.697  0.00  0.00    +0.004 C 
BRANCH  33  34
ATOM     34  C   LIG    1       28.833 -19.825   6.545  0.00  0.00    -0.043 C 
ATOM     35  C   LIG    1       28.642 -20.816   7.726  0.00  0.00    -0.008 C 
ATOM     36  C   LIG    1       27.720 -20.239   8.830  0.00  0.00    +0.016 C 
ATOM     37  C   LIG    1       28.002 -22.138   7.234  0.00  0.00    +0.016 C 
ATOM     38  C   LIG    1       30.001 -21.210   8.373  0.00  0.00    +0.042 C 
ATOM     39  C   LIG    1       30.990 -20.061   8.494  0.00  0.00    +0.119 C 
ATOM     40  C   LIG    1       31.270 -19.458   7.120  0.00  0.00    +0.062 C 
ATOM     41  C   LIG    1       30.028 -19.241   6.268  0.00  0.00    -0.067 C 
ATOM     42  C   LIG    1       30.308 -18.313   5.107  0.00  0.00    +0.039 C 
BRANCH  39  43
ATOM     43  O   LIG    1       30.528 -19.065   9.403  0.00  0.00    -0.391 OA
ATOM     44  H   LIG    1       29.572 -19.202   9.528  0.00  0.00    +0.210 HD
ENDBRANCH  39  43
ENDBRANCH  33  34
ENDBRANCH  30  32
ENDBRANCH  28  29
ENDBRANCH  25  27
ENDBRANCH   2  24
TORSDOF 12
ENDMDL
