MODEL 1
REMARK VINA RESULT:      -5.7      0.000      0.000
REMARK  Name = *****
REMARK                            x       y       z     vdW  Elec       q    Type
REMARK                         _______ _______ _______ _____ _____    ______ ____
ROOT
ATOM      1  C   LIG    1       25.069 -30.317   6.230  0.00  0.00    +0.030 A 
ATOM      2  C   LIG    1       24.804 -29.227   5.383  0.00  0.00    +0.040 A 
ATOM      3  C   LIG    1       25.030 -27.889   5.769  0.00  0.00    +0.040 A 
ATOM      4  C   LIG    1       25.556 -27.610   7.031  0.00  0.00    +0.078 A 
ATOM      5  N   LIG    1       25.830 -26.327   7.522  0.00  0.00    -0.246 NA
ATOM      6  C   LIG    1       25.584 -25.271   6.821  0.00  0.00    +0.079 A 
ATOM      7  C   LIG    1       25.004 -25.178   5.455  0.00  0.00    +0.044 A 
ATOM      8  C   LIG    1       24.781 -23.989   4.873  0.00  0.00    +0.095 A 
ATOM      9  C   LIG    1       25.092 -22.683   5.530  0.00  0.00    +0.203 A 
ATOM     10  N   LIG    1       24.847 -21.535   4.962  0.00  0.00    -0.234 N 
ATOM     11  C   LIG    1       25.273 -20.230   5.564  0.00  0.00    +0.432 C 
ATOM     12  C   LIG    1       24.114 -21.415   3.660  0.00  0.00    +0.432 C 
ATOM     13  C   LIG    1       25.706 -22.792   6.884  0.00  0.00    +0.080 A 
ATOM     14  C   LIG    1       25.922 -23.976   7.460  0.00  0.00    +0.035 A 
ATOM     15  C   LIG    1       25.842 -28.679   7.880  0.00  0.00    +0.030 A 
ATOM     16  S   LIG    1       24.622 -26.619   4.591  0.00  0.00    -0.085 S 
ATOM     17  C   LIG    1       25.606 -30.002   7.485  0.00  0.00    +0.025 A 
ENDROOT
BRANCH   1  19
ATOM     18  C   LIG    1       25.527 -32.171   4.655  0.00  0.00    +0.129 C 
ATOM     19  N   LIG    1       24.860 -31.645   5.845  0.00  0.00    -0.336 N 
ATOM     20  C   LIG    1       23.540 -32.219   6.123  0.00  0.00    +0.129 C 
ENDBRANCH   1  19
TORSDOF 1
ENDMDL
MODEL 2
REMARK VINA RESULT:      -5.5      0.876      7.376
REMARK  Name = *****
REMARK                            x       y       z     vdW  Elec       q    Type
REMARK                         _______ _______ _______ _____ _____    ______ ____
ROOT
ATOM      1  C   LIG    1       24.986 -22.575   5.351  0.00  0.00    +0.030 A 
ATOM      2  C   LIG    1       24.583 -23.861   4.957  0.00  0.00    +0.040 A 
ATOM      3  C   LIG    1       24.912 -25.022   5.689  0.00  0.00    +0.040 A 
ATOM      4  C   LIG    1       25.652 -24.913   6.866  0.00  0.00    +0.078 A 
ATOM      5  N   LIG    1       26.032 -25.988   7.680  0.00  0.00    -0.246 NA
ATOM      6  C   LIG    1       25.731 -27.205   7.371  0.00  0.00    +0.079 A 
ATOM      7  C   LIG    1       24.980 -27.704   6.188  0.00  0.00    +0.044 A 
ATOM      8  C   LIG    1       24.776 -29.017   5.996  0.00  0.00    +0.095 A 
ATOM      9  C   LIG    1       25.270 -30.069   6.936  0.00  0.00    +0.203 A 
ATOM     10  N   LIG    1       25.085 -31.343   6.724  0.00  0.00    -0.234 N 
ATOM     11  C   LIG    1       25.469 -32.392   7.724  0.00  0.00    +0.432 C 
ATOM     12  C   LIG    1       24.479 -31.875   5.460  0.00  0.00    +0.432 C 
ATOM     13  C   LIG    1       25.989 -29.553   8.135  0.00  0.00    +0.080 A 
ATOM     14  C   LIG    1       26.194 -28.247   8.319  0.00  0.00    +0.035 A 
ATOM     15  C   LIG    1       26.048 -23.642   7.284  0.00  0.00    +0.030 A 
ATOM     16  S   LIG    1       24.345 -26.581   5.046  0.00  0.00    -0.085 S 
ATOM     17  C   LIG    1       25.719 -22.500   6.544  0.00  0.00    +0.025 A 
ENDROOT
BRANCH   1  19
ATOM     18  C   LIG    1       25.626 -20.341   4.497  0.00  0.00    +0.129 C 
ATOM     19  N   LIG    1       24.649 -21.421   4.636  0.00  0.00    -0.336 N 
ATOM     20  C   LIG    1       23.250 -20.989   4.689  0.00  0.00    +0.129 C 
ENDBRANCH   1  19
TORSDOF 1
ENDMDL
MODEL 3
REMARK VINA RESULT:      -5.4      1.880      7.864
REMARK  Name = *****
REMARK                            x       y       z     vdW  Elec       q    Type
REMARK                         _______ _______ _______ _____ _____    ______ ____
ROOT
ATOM      1  C   LIG    1       25.563 -23.887   6.274  0.00  0.00    +0.030 A 
ATOM      2  C   LIG    1       25.952 -24.935   7.125  0.00  0.00    +0.040 A 
ATOM      3  C   LIG    1       25.558 -26.274   6.916  0.00  0.00    +0.040 A 
ATOM      4  C   LIG    1       24.764 -26.600   5.817  0.00  0.00    +0.078 A 
ATOM      5  N   LIG    1       24.318 -27.890   5.501  0.00  0.00    -0.246 NA
ATOM      6  C   LIG    1       24.603 -28.902   6.250  0.00  0.00    +0.079 A 
ATOM      7  C   LIG    1       25.399 -28.934   7.506  0.00  0.00    +0.044 A 
ATOM      8  C   LIG    1       25.578 -30.076   8.188  0.00  0.00    +0.095 A 
ATOM      9  C   LIG    1       25.013 -31.388   7.752  0.00  0.00    +0.203 A 
ATOM     10  N   LIG    1       25.175 -32.486   8.438  0.00  0.00    -0.234 N 
ATOM     11  C   LIG    1       24.716 -33.824   7.940  0.00  0.00    +0.432 C 
ATOM     12  C   LIG    1       25.829 -32.510   9.786  0.00  0.00    +0.432 C 
ATOM     13  C   LIG    1       24.248 -31.349   6.473  0.00  0.00    +0.080 A 
ATOM     14  C   LIG    1       24.068 -30.210   5.801  0.00  0.00    +0.035 A 
ATOM     15  C   LIG    1       24.381 -25.576   4.950  0.00  0.00    +0.030 A 
ATOM     16  S   LIG    1       26.117 -27.482   8.096  0.00  0.00    -0.085 S 
ATOM     17  C   LIG    1       24.774 -24.251   5.173  0.00  0.00    +0.025 A 
ENDROOT
BRANCH   1  19
ATOM     18  C   LIG    1       26.537 -22.157   7.751  0.00  0.00    +0.129 C 
ATOM     19  N   LIG    1       25.963 -22.561   6.469  0.00  0.00    -0.336 N 
ATOM     20  C   LIG    1       25.192 -21.523   5.778  0.00  0.00    +0.129 C 
ENDBRANCH   1  19
TORSDOF 1
ENDMDL
MODEL 4
REMARK VINA RESULT:      -5.3      2.161      3.363
REMARK  Name = *****
REMARK                            x       y       z     vdW  Elec       q    Type
REMARK                         _______ _______ _______ _____ _____    ______ ____
ROOT
ATOM      1  C   LIG    1       25.895 -32.245   7.529  0.00  0.00    +0.030 A 
ATOM      2  C   LIG    1       25.980 -30.950   8.068  0.00  0.00    +0.040 A 
ATOM      3  C   LIG    1       25.745 -29.788   7.302  0.00  0.00    +0.040 A 
ATOM      4  C   LIG    1       25.396 -29.903   5.957  0.00  0.00    +0.078 A 
ATOM      5  N   LIG    1       25.132 -28.827   5.100  0.00  0.00    -0.246 NA
ATOM      6  C   LIG    1       25.221 -27.605   5.507  0.00  0.00    +0.079 A 
ATOM      7  C   LIG    1       25.590 -27.100   6.857  0.00  0.00    +0.044 A 
ATOM      8  C   LIG    1       25.667 -25.784   7.111  0.00  0.00    +0.095 A 
ATOM      9  C   LIG    1       25.389 -24.734   6.085  0.00  0.00    +0.203 A 
ATOM     10  N   LIG    1       25.492 -23.459   6.340  0.00  0.00    -0.234 N 
ATOM     11  C   LIG    1       25.093 -22.404   5.352  0.00  0.00    +0.432 C 
ATOM     12  C   LIG    1       26.020 -22.932   7.640  0.00  0.00    +0.432 C 
ATOM     13  C   LIG    1       24.985 -25.253   4.747  0.00  0.00    +0.080 A 
ATOM     14  C   LIG    1       24.915 -26.563   4.498  0.00  0.00    +0.035 A 
ATOM     15  C   LIG    1       25.289 -31.181   5.407  0.00  0.00    +0.030 A 
ATOM     16  S   LIG    1       25.913 -28.220   8.126  0.00  0.00    -0.085 S 
ATOM     17  C   LIG    1       25.531 -32.324   6.178  0.00  0.00    +0.025 A 
ENDROOT
BRANCH   1  19
ATOM     18  C   LIG    1       25.215 -33.718   9.399  0.00  0.00    +0.129 C 
ATOM     19  N   LIG    1       26.112 -33.399   8.289  0.00  0.00    -0.336 N 
ATOM     20  C   LIG    1       27.502 -33.825   8.472  0.00  0.00    +0.129 C 
ENDBRANCH   1  19
TORSDOF 1
ENDMDL
MODEL 5
REMARK VINA RESULT:      -4.9      6.335      6.990
REMARK  Name = *****
REMARK                            x       y       z     vdW  Elec       q    Type
REMARK                         _______ _______ _______ _____ _____    ______ ____
ROOT
ATOM      1  C   LIG    1       25.794 -32.488   5.198  0.00  0.00    +0.030 A 
ATOM      2  C   LIG    1       26.296 -31.850   6.345  0.00  0.00    +0.040 A 
ATOM      3  C   LIG    1       25.471 -31.455   7.420  0.00  0.00    +0.040 A 
ATOM      4  C   LIG    1       24.102 -31.713   7.375  0.00  0.00    +0.078 A 
ATOM      5  N   LIG    1       23.186 -31.377   8.381  0.00  0.00    -0.246 NA
ATOM      6  C   LIG    1       23.560 -30.759   9.452  0.00  0.00    +0.079 A 
ATOM      7  C   LIG    1       24.923 -30.302   9.832  0.00  0.00    +0.044 A 
ATOM      8  C   LIG    1       25.140 -29.639  10.979  0.00  0.00    +0.095 A 
ATOM      9  C   LIG    1       24.057 -29.315  11.956  0.00  0.00    +0.203 A 
ATOM     10  N   LIG    1       24.278 -28.648  13.055  0.00  0.00    -0.234 N 
ATOM     11  C   LIG    1       23.219 -28.430  14.094  0.00  0.00    +0.432 C 
ATOM     12  C   LIG    1       25.608 -28.036  13.377  0.00  0.00    +0.432 C 
ATOM     13  C   LIG    1       22.702 -29.810  11.579  0.00  0.00    +0.080 A 
ATOM     14  C   LIG    1       22.490 -30.465  10.435  0.00  0.00    +0.035 A 
ATOM     15  C   LIG    1       23.587 -32.361   6.252  0.00  0.00    +0.030 A 
ATOM     16  S   LIG    1       26.256 -30.637   8.792  0.00  0.00    -0.085 S 
ATOM     17  C   LIG    1       24.416 -32.741   5.190  0.00  0.00    +0.025 A 
ENDROOT
BRANCH   1  19
ATOM     18  C   LIG    1       26.043 -33.034   2.797  0.00  0.00    +0.129 C 
ATOM     19  N   LIG    1       26.610 -32.894   4.137  0.00  0.00    -0.336 N 
ATOM     20  C   LIG    1       27.698 -33.825   4.451  0.00  0.00    +0.129 C 
ENDBRANCH   1  19
TORSDOF 1
ENDMDL
MODEL 6
REMARK VINA RESULT:      -4.9      5.655      8.192
REMARK  Name = *****
REMARK                            x       y       z     vdW  Elec       q    Type
REMARK                         _______ _______ _______ _____ _____    ______ ____
ROOT
ATOM      1  C   LIG    1       23.761 -21.649   5.935  0.00  0.00    +0.030 A 
ATOM      2  C   LIG    1       24.542 -21.281   7.044  0.00  0.00    +0.040 A 
ATOM      3  C   LIG    1       25.808 -20.670   6.916  0.00  0.00    +0.040 A 
ATOM      4  C   LIG    1       26.319 -20.392   5.648  0.00  0.00    +0.078 A 
ATOM      5  N   LIG    1       27.556 -19.783   5.396  0.00  0.00    -0.246 NA
ATOM      6  C   LIG    1       28.348 -19.445   6.358  0.00  0.00    +0.079 A 
ATOM      7  C   LIG    1       28.153 -19.608   7.823  0.00  0.00    +0.044 A 
ATOM      8  C   LIG    1       29.097 -19.228   8.698  0.00  0.00    +0.095 A 
ATOM      9  C   LIG    1       30.397 -18.616   8.286  0.00  0.00    +0.203 A 
ATOM     10  N   LIG    1       31.316 -18.275   9.147  0.00  0.00    -0.234 N 
ATOM     11  C   LIG    1       32.565 -17.548   8.747  0.00  0.00    +0.432 C 
ATOM     12  C   LIG    1       31.210 -18.581  10.610  0.00  0.00    +0.432 C 
ATOM     13  C   LIG    1       30.565 -18.426   6.818  0.00  0.00    +0.080 A 
ATOM     14  C   LIG    1       29.625 -18.809   5.951  0.00  0.00    +0.035 A 
ATOM     15  C   LIG    1       25.551 -20.734   4.535  0.00  0.00    +0.030 A 
ATOM     16  S   LIG    1       26.683 -20.285   8.417  0.00  0.00    -0.085 S 
ATOM     17  C   LIG    1       24.300 -21.346   4.677  0.00  0.00    +0.025 A 
ENDROOT
BRANCH   1  19
ATOM     18  C   LIG    1       22.380 -23.585   6.620  0.00  0.00    +0.129 C 
ATOM     19  N   LIG    1       22.500 -22.241   6.057  0.00  0.00    -0.336 N 
ATOM     20  C   LIG    1       21.503 -21.904   5.037  0.00  0.00    +0.129 C 
ENDBRANCH   1  19
TORSDOF 1
ENDMDL
MODEL 7
REMARK VINA RESULT:      -4.8      8.081     10.017
REMARK  Name = *****
REMARK                            x       y       z     vdW  Elec       q    Type
REMARK                         _______ _______ _______ _____ _____    ______ ____
ROOT
ATOM      1  C   LIG    1       25.686 -27.813  12.631  0.00  0.00    +0.030 A 
ATOM      2  C   LIG    1       24.518 -28.587  12.530  0.00  0.00    +0.040 A 
ATOM      3  C   LIG    1       23.278 -28.167  13.056  0.00  0.00    +0.040 A 
ATOM      4  C   LIG    1       23.177 -26.930  13.693  0.00  0.00    +0.078 A 
ATOM      5  N   LIG    1       22.002 -26.405  14.247  0.00  0.00    -0.246 NA
ATOM      6  C   LIG    1       20.894 -27.066  14.226  0.00  0.00    +0.079 A 
ATOM      7  C   LIG    1       20.628 -28.416  13.662  0.00  0.00    +0.044 A 
ATOM      8  C   LIG    1       19.413 -28.981  13.750  0.00  0.00    +0.095 A 
ATOM      9  C   LIG    1       18.246 -28.316  14.404  0.00  0.00    +0.203 A 
ATOM     10  N   LIG    1       17.077 -28.887  14.504  0.00  0.00    -0.234 N 
ATOM     11  C   LIG    1       15.875 -28.175  15.046  0.00  0.00    +0.432 C 
ATOM     12  C   LIG    1       16.832 -30.307  14.092  0.00  0.00    +0.432 C 
ATOM     13  C   LIG    1       18.516 -26.949  14.933  0.00  0.00    +0.080 A 
ATOM     14  C   LIG    1       19.727 -26.393  14.847  0.00  0.00    +0.035 A 
ATOM     15  C   LIG    1       24.322 -26.140  13.788  0.00  0.00    +0.030 A 
ATOM     16  S   LIG    1       21.895 -29.271  12.866  0.00  0.00    -0.085 S 
ATOM     17  C   LIG    1       25.547 -26.571  13.266  0.00  0.00    +0.025 A 
ENDROOT
BRANCH   1  19
ATOM     18  C   LIG    1       27.020 -28.525  10.671  0.00  0.00    +0.129 C 
ATOM     19  N   LIG    1       26.914 -28.218  12.097  0.00  0.00    -0.336 N 
ATOM     20  C   LIG    1       27.794 -29.002  12.968  0.00  0.00    +0.129 C 
ENDBRANCH   1  19
TORSDOF 1
ENDMDL
MODEL 8
REMARK VINA RESULT:      -4.7      6.852      9.448
REMARK  Name = *****
REMARK                            x       y       z     vdW  Elec       q    Type
REMARK                         _______ _______ _______ _____ _____    ______ ____
ROOT
ATOM      1  C   LIG    1       20.491 -27.285  14.045  0.00  0.00    +0.030 A 
ATOM      2  C   LIG    1       20.627 -28.390  13.189  0.00  0.00    +0.040 A 
ATOM      3  C   LIG    1       21.867 -28.783  12.642  0.00  0.00    +0.040 A 
ATOM      4  C   LIG    1       23.023 -28.070  12.961  0.00  0.00    +0.078 A 
ATOM      5  N   LIG    1       24.307 -28.368  12.487  0.00  0.00    -0.246 NA
ATOM      6  C   LIG    1       24.513 -29.346  11.671  0.00  0.00    +0.079 A 
ATOM      7  C   LIG    1       23.527 -30.300  11.095  0.00  0.00    +0.044 A 
ATOM      8  C   LIG    1       23.904 -31.252  10.227  0.00  0.00    +0.095 A 
ATOM      9  C   LIG    1       25.317 -31.438   9.777  0.00  0.00    +0.203 A 
ATOM     10  N   LIG    1       25.664 -32.352   8.914  0.00  0.00    -0.234 N 
ATOM     11  C   LIG    1       27.095 -32.622   8.557  0.00  0.00    +0.432 C 
ATOM     12  C   LIG    1       24.667 -33.212   8.199  0.00  0.00    +0.432 C 
ATOM     13  C   LIG    1       26.300 -30.500  10.389  0.00  0.00    +0.080 A 
ATOM     14  C   LIG    1       25.920 -29.551  11.248  0.00  0.00    +0.035 A 
ATOM     15  C   LIG    1       22.911 -26.979  13.823  0.00  0.00    +0.030 A 
ATOM     16  S   LIG    1       21.870 -30.193  11.557  0.00  0.00    -0.085 S 
ATOM     17  C   LIG    1       21.673 -26.598  14.353  0.00  0.00    +0.025 A 
ENDROOT
BRANCH   1  19
ATOM     18  C   LIG    1       18.559 -27.813  15.500  0.00  0.00    +0.129 C 
ATOM     19  N   LIG    1       19.266 -26.902  14.602  0.00  0.00    -0.336 N 
ATOM     20  C   LIG    1       18.404 -26.040  13.787  0.00  0.00    +0.129 C 
ENDBRANCH   1  19
TORSDOF 1
ENDMDL
MODEL 9
REMARK VINA RESULT:      -4.7      5.744      8.516
REMARK  Name = *****
REMARK                            x       y       z     vdW  Elec       q    Type
REMARK                         _______ _______ _______ _____ _____    ______ ____
ROOT
ATOM      1  C   LIG    1       26.747 -27.049  13.547  0.00  0.00    +0.030 A 
ATOM      2  C   LIG    1       26.974 -27.366  12.197  0.00  0.00    +0.040 A 
ATOM      3  C   LIG    1       26.168 -28.276  11.481  0.00  0.00    +0.040 A 
ATOM      4  C   LIG    1       25.084 -28.886  12.112  0.00  0.00    +0.078 A 
ATOM      5  N   LIG    1       24.209 -29.797  11.505  0.00  0.00    -0.246 NA
ATOM      6  C   LIG    1       24.368 -30.167  10.278  0.00  0.00    +0.079 A 
ATOM      7  C   LIG    1       25.419 -29.751   9.311  0.00  0.00    +0.044 A 
ATOM      8  C   LIG    1       25.461 -30.258   8.069  0.00  0.00    +0.095 A 
ATOM      9  C   LIG    1       24.476 -31.258   7.557  0.00  0.00    +0.203 A 
ATOM     10  N   LIG    1       24.544 -31.760   6.355  0.00  0.00    -0.234 N 
ATOM     11  C   LIG    1       23.488 -32.666   5.798  0.00  0.00    +0.432 C 
ATOM     12  C   LIG    1       25.686 -31.481   5.424  0.00  0.00    +0.432 C 
ATOM     13  C   LIG    1       23.407 -31.639   8.524  0.00  0.00    +0.080 A 
ATOM     14  C   LIG    1       23.372 -31.136   9.760  0.00  0.00    +0.035 A 
ATOM     15  C   LIG    1       24.831 -28.572  13.447  0.00  0.00    +0.030 A 
ATOM     16  S   LIG    1       26.599 -28.587   9.783  0.00  0.00    -0.085 S 
ATOM     17  C   LIG    1       25.644 -27.672  14.146  0.00  0.00    +0.025 A 
ENDROOT
BRANCH   1  19
ATOM     18  C   LIG    1       28.388 -26.606  15.347  0.00  0.00    +0.129 C 
ATOM     19  N   LIG    1       27.535 -26.136  14.256  0.00  0.00    -0.336 N 
ATOM     20  C   LIG    1       26.998 -24.783  14.426  0.00  0.00    +0.129 C 
ENDBRANCH   1  19
TORSDOF 1
ENDMDL
