MODEL 1
REMARK VINA RESULT:      -5.0      0.000      0.000
REMARK  Name = *****
REMARK                            x       y       z     vdW  Elec       q    Type
REMARK                         _______ _______ _______ _____ _____    ______ ____
ROOT
ATOM      1  C   LIG    1       25.226 -19.168   3.933  0.00  0.00    +0.256 C 
ATOM      2  N   LIG    1       23.970 -19.680   4.480  0.00  0.00    -0.180 N 
ATOM      3  C   LIG    1       24.186 -20.486   5.565  0.00  0.00    +0.318 C 
ATOM      4  N   LIG    1       23.255 -21.313   5.943  0.00  0.00    -0.079 NA
ATOM      5  C   LIG    1       22.188 -21.035   4.918  0.00  0.00    +0.334 C 
ATOM      6  C   LIG    1       25.561 -20.413   5.990  0.00  0.00    +0.075 A 
ATOM      7  C   LIG    1       26.201 -21.060   7.027  0.00  0.00    +0.016 A 
ATOM      8  C   LIG    1       27.592 -20.980   7.061  0.00  0.00    +0.001 A 
ATOM      9  C   LIG    1       28.291 -20.310   6.041  0.00  0.00    +0.001 A 
ATOM     10  C   LIG    1       27.612 -19.691   4.981  0.00  0.00    +0.012 A 
ATOM     11  C   LIG    1       22.886 -20.285   3.753  0.00  0.00    +0.279 C 
ATOM     12  C   LIG    1       26.223 -19.703   4.975  0.00  0.00    +0.045 A 
ENDROOT
BRANCH   1  13
ATOM     13  C   LIG    1       25.171 -17.643   3.756  0.00  0.00    +0.031 A 
ATOM     14  C   LIG    1       24.025 -16.883   4.061  0.00  0.00    +0.012 A 
ATOM     15  C   LIG    1       24.006 -15.487   3.932  0.00  0.00    +0.020 A 
ATOM     16  C   LIG    1       25.144 -14.813   3.506  0.00  0.00    +0.041 A 
ATOM     17 CL   LIG    1       25.123 -13.101   3.352  0.00  0.00    -0.084 Cl
ATOM     18  C   LIG    1       26.299 -15.523   3.214  0.00  0.00    +0.020 A 
ATOM     19  C   LIG    1       26.310 -16.918   3.345  0.00  0.00    +0.012 A 
ENDBRANCH   1  13
BRANCH   1  20
ATOM     20  O   LIG    1       25.484 -19.765   2.677  0.00  0.00    -0.346 OA
ATOM     21  H   LIG    1       26.431 -19.626   2.518  0.00  0.00    +0.215 HD
ENDBRANCH   1  20
TORSDOF 2
ENDMDL
