MODEL 1
REMARK VINA RESULT:       8.5      0.000      0.000
REMARK  Name = *****
REMARK                            x       y       z     vdW  Elec       q    Type
REMARK                         _______ _______ _______ _____ _____    ______ ____
ROOT
ATOM      1  C   LIG    1       23.430 -20.205   4.250  0.00  0.00    -0.002 C 
ATOM      2  C   LIG    1       23.753 -18.767   4.841  0.00  0.00    -0.026 C 
ATOM      3  C   LIG    1       23.726 -18.676   6.377  0.00  0.00    +0.012 C 
ATOM      4  C   LIG    1       22.613 -17.872   4.242  0.00  0.00    +0.001 C 
ATOM      5  C   LIG    1       22.905 -16.386   3.958  0.00  0.00    +0.025 C 
ATOM      6  C   LIG    1       24.618 -16.176   3.183  0.00  0.00    +0.001 C 
ATOM      7  C   LIG    1       25.342 -17.547   3.146  0.00  0.00    +0.005 C 
ATOM      8  C   LIG    1       25.594 -14.803   3.926  0.00  0.00    -0.026 C 
ATOM      9  C   LIG    1       26.996 -15.208   4.339  0.00  0.00    +0.012 C 
ATOM     10  C   LIG    1       25.033 -13.378   4.983  0.00  0.00    +0.000 C 
ATOM     11  C   LIG    1       24.935 -12.165   4.113  0.00  0.00    +0.035 C 
ATOM     12  C   LIG    1       23.942 -12.633   3.109  0.00  0.00    +0.115 C 
ATOM     13  C   LIG    1       23.473 -14.072   3.503  0.00  0.00    +0.032 C 
ATOM     14  C   LIG    1       23.337 -13.685   5.824  0.00  0.00    +0.035 C 
ATOM     15  C   LIG    1       24.552 -15.118   4.777  0.00  0.00    +0.009 C 
ATOM     16  C   LIG    1       22.426 -15.270   5.400  0.00  0.00    +0.118 C 
ATOM     17  C   LIG    1       22.173 -18.602   2.965  0.00  0.00    +0.005 C 
ATOM     18  C   LIG    1       25.210 -18.375   4.420  0.00  0.00    +0.007 C 
ATOM     19  C   LIG    1       22.166 -20.054   3.389  0.00  0.00    +0.004 C 
ENDROOT
BRANCH   1  21
ATOM     20  C   LIG    1       22.047 -21.543   5.872  0.00  0.00    +0.008 C 
ATOM     21  C   LIG    1       23.419 -21.468   5.168  0.00  0.00    -0.010 C 
BRANCH  21  22
ATOM     22  C   LIG    1       24.560 -21.554   6.216  0.00  0.00    +0.015 C 
BRANCH  22  23
ATOM     23  C   LIG    1       25.968 -21.569   5.613  0.00  0.00    +0.121 C 
BRANCH  23  24
ATOM     24  C   LIG    1       26.917 -20.728   6.450  0.00  0.00    +0.305 C 
ATOM     25  O   LIG    1       26.586 -19.730   7.059  0.00  0.00    -0.251 OA
BRANCH  24  26
ATOM     26  O   LIG    1       28.195 -21.189   6.435  0.00  0.00    -0.481 OA
ATOM     27  H   LIG    1       28.781 -20.769   7.089  0.00  0.00    +0.295 HD
ENDBRANCH  24  26
ENDBRANCH  23  24
ENDBRANCH  22  23
ENDBRANCH  21  22
ENDBRANCH   1  21
BRANCH  12  28
ATOM     28  O   LIG    1       24.533 -12.633   1.816  0.00  0.00    -0.392 OA
ATOM     29  H   LIG    1       24.849 -13.537   1.645  0.00  0.00    +0.210 HD
ENDBRANCH  12  28
BRANCH  16  30
ATOM     30  O   LIG    1       22.308 -16.033   6.600  0.00  0.00    -0.392 OA
ATOM     31  H   LIG    1       21.404 -15.925   6.936  0.00  0.00    +0.210 HD
ENDBRANCH  16  30
TORSDOF 7
ENDMDL
MODEL 2
REMARK VINA RESULT:      11.0      1.848      7.144
REMARK  Name = *****
REMARK                            x       y       z     vdW  Elec       q    Type
REMARK                         _______ _______ _______ _____ _____    ______ ____
ROOT
ATOM      1  C   LIG    1       26.164 -13.765   3.472  0.00  0.00    -0.002 C 
ATOM      2  C   LIG    1       25.979 -15.134   4.255  0.00  0.00    -0.026 C 
ATOM      3  C   LIG    1       26.625 -15.175   5.651  0.00  0.00    +0.012 C 
ATOM      4  C   LIG    1       26.683 -16.177   3.319  0.00  0.00    +0.001 C 
ATOM      5  C   LIG    1       26.163 -17.626   3.295  0.00  0.00    +0.025 C 
ATOM      6  C   LIG    1       24.272 -17.660   3.299  0.00  0.00    +0.001 C 
ATOM      7  C   LIG    1       23.727 -16.215   3.449  0.00  0.00    +0.005 C 
ATOM      8  C   LIG    1       23.563 -18.883   4.479  0.00  0.00    -0.026 C 
ATOM      9  C   LIG    1       22.498 -18.302   5.389  0.00  0.00    +0.012 C 
ATOM     10  C   LIG    1       24.372 -20.327   5.327  0.00  0.00    +0.000 C 
ATOM     11  C   LIG    1       23.991 -21.572   4.591  0.00  0.00    +0.035 C 
ATOM     12  C   LIG    1       24.523 -21.258   3.238  0.00  0.00    +0.115 C 
ATOM     13  C   LIG    1       25.245 -19.872   3.294  0.00  0.00    +0.032 C 
ATOM     14  C   LIG    1       26.285 -20.193   5.384  0.00  0.00    +0.035 C 
ATOM     15  C   LIG    1       24.887 -18.663   4.808  0.00  0.00    +0.009 C 
ATOM     16  C   LIG    1       27.085 -18.742   4.505  0.00  0.00    +0.118 C 
ATOM     17  C   LIG    1       26.627 -15.547   1.920  0.00  0.00    +0.005 C 
ATOM     18  C   LIG    1       24.448 -15.366   4.491  0.00  0.00    +0.007 C 
ATOM     19  C   LIG    1       26.943 -14.092   2.189  0.00  0.00    +0.004 C 
ENDROOT
BRANCH   1  21
ATOM     20  C   LIG    1       27.785 -12.892   5.188  0.00  0.00    +0.008 C 
ATOM     21  C   LIG    1       26.669 -12.482   4.205  0.00  0.00    -0.010 C 
BRANCH  21  22
ATOM     22  C   LIG    1       25.585 -11.653   4.946  0.00  0.00    +0.015 C 
BRANCH  22  23
ATOM     23  C   LIG    1       24.146 -12.042   4.594  0.00  0.00    +0.121 C 
BRANCH  23  24
ATOM     24  C   LIG    1       23.976 -12.157   3.089  0.00  0.00    +0.305 C 
ATOM     25  O   LIG    1       24.544 -11.447   2.283  0.00  0.00    -0.251 OA
BRANCH  24  26
ATOM     26  O   LIG    1       23.099 -13.127   2.722  0.00  0.00    -0.481 OA
ATOM     27  H   LIG    1       22.212 -13.035   3.112  0.00  0.00    +0.295 HD
ENDBRANCH  24  26
ENDBRANCH  23  24
ENDBRANCH  22  23
ENDBRANCH  21  22
ENDBRANCH   1  21
BRANCH  12  28
ATOM     28  O   LIG    1       23.456 -21.233   2.298  0.00  0.00    -0.392 OA
ATOM     29  H   LIG    1       23.615 -20.478   1.704  0.00  0.00    +0.210 HD
ENDBRANCH  12  28
BRANCH  16  30
ATOM     30  O   LIG    1       27.757 -17.957   5.490  0.00  0.00    -0.392 OA
ATOM     31  H   LIG    1       27.690 -18.422   6.339  0.00  0.00    +0.210 HD
ENDBRANCH  16  30
TORSDOF 7
ENDMDL
