MODEL 1
REMARK VINA RESULT:       3.6      0.000      0.000
REMARK  Name = *****
REMARK                            x       y       z     vdW  Elec       q    Type
REMARK                         _______ _______ _______ _____ _____    ______ ____
ROOT
ATOM      1  C   LIG    1       27.238 -13.400   5.769  0.00  0.00    +0.008 C 
ATOM      2  C   LIG    1       25.781 -13.347   5.310  0.00  0.00    -0.003 C 
ATOM      3  C   LIG    1       25.642 -13.218   3.779  0.00  0.00    +0.067 C 
ATOM      4  C   LIG    1       25.121 -14.605   3.281  0.00  0.00    -0.017 C 
ATOM      5  C   LIG    1       24.214 -15.050   4.447  0.00  0.00    +0.002 C 
ATOM      6  C   LIG    1       23.823 -16.545   4.486  0.00  0.00    +0.036 C 
ATOM      7  C   LIG    1       24.736 -17.496   3.675  0.00  0.00    +0.153 C 
ATOM      8  C   LIG    1       26.184 -16.983   3.703  0.00  0.00    +0.153 C 
ATOM      9  F   LIG    1       24.349 -17.390   2.353  0.00  0.00    -0.238 F 
ATOM     10  C   LIG    1       24.456 -19.001   4.087  0.00  0.00    +0.047 C 
ATOM     11  C   LIG    1       22.953 -19.155   4.412  0.00  0.00    -0.020 C 
ATOM     12  C   LIG    1       22.484 -19.974   5.370  0.00  0.00    +0.054 C 
ATOM     13  C   LIG    1       23.405 -20.712   6.258  0.00  0.00    +0.179 C 
ATOM     14  C   LIG    1       24.828 -20.301   6.228  0.00  0.00    +0.047 C 
ATOM     15  O   LIG    1       23.005 -21.567   7.033  0.00  0.00    -0.288 OA
ATOM     16  C   LIG    1       22.037 -18.216   3.670  0.00  0.00    +0.194 C 
ATOM     17  F   LIG    1       20.726 -18.449   3.965  0.00  0.00    -0.241 F 
ATOM     18  C   LIG    1       24.767 -19.954   2.907  0.00  0.00    +0.023 C 
ATOM     19  C   LIG    1       25.295 -19.498   5.259  0.00  0.00    -0.009 C 
ATOM     20  C   LIG    1       22.353 -16.761   4.047  0.00  0.00    +0.048 C 
ATOM     21  C   LIG    1       24.347 -14.459   1.954  0.00  0.00    +0.012 C 
ATOM     22  C   LIG    1       26.314 -15.587   3.056  0.00  0.00    +0.042 C 
ATOM     23  C   LIG    1       25.009 -14.619   5.699  0.00  0.00    +0.008 C 
ENDROOT
BRANCH   3  24
ATOM     24  C   LIG    1       24.694 -12.045   3.473  0.00  0.00    +0.162 C 
ATOM     25  O   LIG    1       24.645 -11.502   2.367  0.00  0.00    -0.295 OA
BRANCH  24  26
ATOM     26  C   LIG    1       23.817 -11.554   4.619  0.00  0.00    +0.230 C 
BRANCH  26  27
ATOM     27  O   LIG    1       24.525 -11.447   5.843  0.00  0.00    -0.388 OA
ATOM     28  H   LIG    1       23.923 -11.770   6.543  0.00  0.00    +0.210 HD
ENDBRANCH  26  27
ENDBRANCH  24  26
ENDBRANCH   3  24
BRANCH   8  29
ATOM     29  O   LIG    1       27.086 -17.861   3.028  0.00  0.00    -0.389 OA
ATOM     30  H   LIG    1       26.561 -18.384   2.392  0.00  0.00    +0.210 HD
ENDBRANCH   8  29
TORSDOF 4
ENDMDL
