MODEL 1
REMARK VINA RESULT:      18.4      0.000      0.000
REMARK  Name = *****
REMARK                            x       y       z     vdW  Elec       q    Type
REMARK                         _______ _______ _______ _____ _____    ______ ____
ROOT
ATOM      1  C   LIG    1       23.902 -17.405   3.488  0.00  0.00    +0.035 C 
ATOM      2  N   LIG    1       25.158 -16.823   3.531  0.00  0.00    -0.342 NA
ATOM      3  C   LIG    1       25.065 -15.531   4.049  0.00  0.00    +0.058 C 
ATOM      4  C   LIG    1       23.742 -15.342   4.466  0.00  0.00    +0.020 C 
ATOM      5  C   LIG    1       23.067 -16.592   4.251  0.00  0.00    +0.066 C 
ENDROOT
BRANCH   3   6
ATOM      6  C   LIG    1       26.234 -14.648   4.192  0.00  0.00    -0.001 C 
ATOM      7  C   LIG    1       26.603 -14.163   5.455  0.00  0.00    +0.013 C 
ATOM      8  C   LIG    1       27.693 -13.301   5.589  0.00  0.00    +0.039 C 
ATOM      9  C   LIG    1       28.419 -12.937   4.462  0.00  0.00    +0.123 C 
ATOM     10  F   LIG    1       29.471 -12.118   4.592  0.00  0.00    -0.205 F 
ATOM     11  C   LIG    1       28.068 -13.405   3.202  0.00  0.00    +0.039 C 
ATOM     12  C   LIG    1       26.968 -14.252   3.064  0.00  0.00    +0.013 C 
ENDBRANCH   3   6
BRANCH   4  13
ATOM     13  C   LIG    1       23.227 -14.107   5.081  0.00  0.00    -0.015 C 
ATOM     14  C   LIG    1       22.263 -14.146   6.098  0.00  0.00    +0.008 C 
ATOM     15  C   LIG    1       21.749 -12.967   6.652  0.00  0.00    +0.001 C 
ATOM     16  C   LIG    1       22.215 -11.728   6.221  0.00  0.00    +0.000 C 
ATOM     17  C   LIG    1       23.177 -11.667   5.220  0.00  0.00    +0.001 C 
ATOM     18  C   LIG    1       23.656 -12.845   4.641  0.00  0.00    +0.008 C 
ENDBRANCH   4  13
BRANCH   5  19
ATOM     19  C   LIG    1       21.733 -16.986   4.686  0.00  0.00    +0.251 C 
ATOM     20  N   LIG    1       21.570 -18.198   5.349  0.00  0.00    -0.281 N 
ATOM     21  H   LIG    1       20.583 -18.389   5.474  0.00  0.00    +0.155 HD
ATOM     22  O   LIG    1       20.747 -16.300   4.465  0.00  0.00    -0.270 OA
BRANCH  20  23
ATOM     23  C   LIG    1       22.466 -19.160   5.862  0.00  0.00    +0.034 C 
ATOM     24  C   LIG    1       22.038 -20.493   5.874  0.00  0.00    +0.023 C 
ATOM     25  C   LIG    1       22.877 -21.520   6.326  0.00  0.00    +0.002 C 
ATOM     26  C   LIG    1       24.167 -21.233   6.765  0.00  0.00    +0.000 C 
ATOM     27  C   LIG    1       24.593 -19.917   6.795  0.00  0.00    +0.002 C 
ATOM     28  C   LIG    1       23.735 -18.894   6.377  0.00  0.00    +0.023 C 
ENDBRANCH  20  23
ENDBRANCH   5  19
BRANCH   1  30
ATOM     29  C   LIG    1       24.291 -19.865   3.307  0.00  0.00    +0.014 C 
ATOM     30  C   LIG    1       23.497 -18.677   2.766  0.00  0.00    +0.030 C 
ATOM     31  C   LIG    1       22.003 -18.971   2.696  0.00  0.00    +0.014 C 
ENDBRANCH   1  30
BRANCH   2  32
ATOM     32  C   LIG    1       26.425 -17.506   3.265  0.00  0.00    +0.124 C 
BRANCH  32  33
ATOM     33  C   LIG    1       27.540 -16.990   4.178  0.00  0.00    +0.053 C 
BRANCH  33  34
ATOM     34  C   LIG    1       28.434 -18.087   4.761  0.00  0.00    +0.119 C 
BRANCH  34  35
ATOM     35  O   LIG    1       29.474 -17.427   5.487  0.00  0.00    -0.392 OA
ATOM     36  H   LIG    1       29.071 -16.871   6.176  0.00  0.00    +0.210 HD
ENDBRANCH  34  35
BRANCH  34  37
ATOM     37  C   LIG    1       27.666 -19.008   5.717  0.00  0.00    +0.063 C 
BRANCH  37  38
ATOM     38  C   LIG    1       28.186 -20.451   5.774  0.00  0.00    +0.128 C 
BRANCH  38  39
ATOM     39  O   LIG    1       28.794 -20.705   7.047  0.00  0.00    -0.391 OA
ATOM     40  H   LIG    1       29.030 -21.652   7.096  0.00  0.00    +0.210 HD
ENDBRANCH  38  39
BRANCH  38  41
ATOM     41  C   LIG    1       27.136 -21.531   5.527  0.00  0.00    +0.151 C 
BRANCH  41  42
ATOM     42  C   LIG    1       26.210 -21.138   4.406  0.00  0.00    +0.307 C 
ATOM     43  O   LIG    1       25.078 -21.560   4.292  0.00  0.00    -0.251 OA
BRANCH  42  44
ATOM     44  O   LIG    1       26.796 -20.342   3.474  0.00  0.00    -0.481 OA
ATOM     45  H   LIG    1       26.896 -20.763   2.601  0.00  0.00    +0.295 HD
ENDBRANCH  42  44
ENDBRANCH  41  42
ENDBRANCH  38  41
ENDBRANCH  37  38
ENDBRANCH  34  37
ENDBRANCH  33  34
ENDBRANCH  32  33
ENDBRANCH   2  32
TORSDOF 15
ENDMDL
MODEL 2
REMARK VINA RESULT:      20.8      2.539      5.833
REMARK  Name = *****
REMARK                            x       y       z     vdW  Elec       q    Type
REMARK                         _______ _______ _______ _____ _____    ______ ____
ROOT
ATOM      1  C   LIG    1       27.829 -18.338   5.011  0.00  0.00    +0.035 C 
ATOM      2  N   LIG    1       27.359 -17.072   4.708  0.00  0.00    -0.342 NA
ATOM      3  C   LIG    1       26.184 -17.167   3.963  0.00  0.00    +0.058 C 
ATOM      4  C   LIG    1       25.832 -18.521   3.908  0.00  0.00    +0.020 C 
ATOM      5  C   LIG    1       26.795 -19.222   4.711  0.00  0.00    +0.066 C 
ENDROOT
BRANCH   3   6
ATOM      6  C   LIG    1       25.461 -15.984   3.467  0.00  0.00    -0.001 C 
ATOM      7  C   LIG    1       24.245 -15.603   4.050  0.00  0.00    +0.013 C 
ATOM      8  C   LIG    1       23.543 -14.499   3.562  0.00  0.00    +0.039 C 
ATOM      9  C   LIG    1       24.065 -13.772   2.500  0.00  0.00    +0.123 C 
ATOM     10  F   LIG    1       23.396 -12.708   2.037  0.00  0.00    -0.205 F 
ATOM     11  C   LIG    1       25.268 -14.135   1.906  0.00  0.00    +0.039 C 
ATOM     12  C   LIG    1       25.961 -15.249   2.382  0.00  0.00    +0.013 C 
ENDBRANCH   3   6
BRANCH   4  13
ATOM     13  C   LIG    1       24.644 -19.049   3.218  0.00  0.00    -0.015 C 
ATOM     14  C   LIG    1       24.684 -20.267   2.524  0.00  0.00    +0.008 C 
ATOM     15  C   LIG    1       23.561 -20.745   1.838  0.00  0.00    +0.001 C 
ATOM     16  C   LIG    1       22.368 -20.029   1.861  0.00  0.00    +0.000 C 
ATOM     17  C   LIG    1       22.303 -18.824   2.549  0.00  0.00    +0.001 C 
ATOM     18  C   LIG    1       23.438 -18.330   3.198  0.00  0.00    +0.008 C 
ENDBRANCH   4  13
BRANCH   5  19
ATOM     19  C   LIG    1       26.776 -20.616   5.134  0.00  0.00    +0.251 C 
ATOM     20  N   LIG    1       25.581 -21.170   5.581  0.00  0.00    -0.281 N 
ATOM     21  H   LIG    1       25.752 -22.097   5.954  0.00  0.00    +0.155 HD
ATOM     22  O   LIG    1       27.782 -21.310   5.134  0.00  0.00    -0.270 OA
BRANCH  20  23
ATOM     23  C   LIG    1       24.244 -20.720   5.607  0.00  0.00    +0.034 C 
ATOM     24  C   LIG    1       23.304 -21.463   4.882  0.00  0.00    +0.023 C 
ATOM     25  C   LIG    1       21.946 -21.115   4.885  0.00  0.00    +0.002 C 
ATOM     26  C   LIG    1       21.502 -20.022   5.624  0.00  0.00    +0.000 C 
ATOM     27  C   LIG    1       22.423 -19.255   6.316  0.00  0.00    +0.002 C 
ATOM     28  C   LIG    1       23.781 -19.587   6.277  0.00  0.00    +0.023 C 
ENDBRANCH  20  23
ENDBRANCH   5  19
BRANCH   1  30
ATOM     29  C   LIG    1       29.470 -17.928   6.847  0.00  0.00    +0.014 C 
ATOM     30  C   LIG    1       29.192 -18.711   5.565  0.00  0.00    +0.030 C 
ATOM     31  C   LIG    1       29.474 -20.199   5.731  0.00  0.00    +0.014 C 
ENDBRANCH   1  30
BRANCH   2  32
ATOM     32  C   LIG    1       27.886 -15.815   5.242  0.00  0.00    +0.124 C 
BRANCH  32  33
ATOM     33  C   LIG    1       26.764 -14.914   5.764  0.00  0.00    +0.053 C 
BRANCH  33  34
ATOM     34  C   LIG    1       27.248 -13.616   6.412  0.00  0.00    +0.119 C 
BRANCH  34  35
ATOM     35  O   LIG    1       28.624 -13.811   6.745  0.00  0.00    -0.392 OA
ATOM     36  H   LIG    1       28.760 -13.567   7.677  0.00  0.00    +0.210 HD
ENDBRANCH  34  35
BRANCH  34  37
ATOM     37  C   LIG    1       27.132 -12.419   5.459  0.00  0.00    +0.063 C 
BRANCH  37  38
ATOM     38  C   LIG    1       28.436 -11.639   5.244  0.00  0.00    +0.128 C 
BRANCH  38  39
ATOM     39  O   LIG    1       29.323 -11.852   6.350  0.00  0.00    -0.391 OA
ATOM     40  H   LIG    1       29.320 -12.804   6.572  0.00  0.00    +0.210 HD
ENDBRANCH  38  39
BRANCH  38  41
ATOM     41  C   LIG    1       29.190 -11.972   3.959  0.00  0.00    +0.151 C 
BRANCH  41  42
ATOM     42  C   LIG    1       28.741 -13.294   3.396  0.00  0.00    +0.307 C 
ATOM     43  O   LIG    1       29.135 -14.366   3.805  0.00  0.00    -0.251 OA
BRANCH  42  44
ATOM     44  O   LIG    1       27.927 -13.172   2.315  0.00  0.00    -0.481 OA
ATOM     45  H   LIG    1       28.399 -12.984   1.483  0.00  0.00    +0.295 HD
ENDBRANCH  42  44
ENDBRANCH  41  42
ENDBRANCH  38  41
ENDBRANCH  37  38
ENDBRANCH  34  37
ENDBRANCH  33  34
ENDBRANCH  32  33
ENDBRANCH   2  32
TORSDOF 15
ENDMDL
MODEL 3
REMARK VINA RESULT:      21.2      2.287      4.363
REMARK  Name = *****
REMARK                            x       y       z     vdW  Elec       q    Type
REMARK                         _______ _______ _______ _____ _____    ______ ____
ROOT
ATOM      1  C   LIG    1       24.765 -18.917   3.980  0.00  0.00    +0.035 C 
ATOM      2  N   LIG    1       25.222 -17.740   3.412  0.00  0.00    -0.342 NA
ATOM      3  C   LIG    1       24.402 -16.679   3.794  0.00  0.00    +0.058 C 
ATOM      4  C   LIG    1       23.487 -17.174   4.730  0.00  0.00    +0.020 C 
ATOM      5  C   LIG    1       23.838 -18.549   4.952  0.00  0.00    +0.066 C 
ENDROOT
BRANCH   3   6
ATOM      6  C   LIG    1       24.619 -15.300   3.325  0.00  0.00    -0.001 C 
ATOM      7  C   LIG    1       23.652 -14.313   3.562  0.00  0.00    +0.013 C 
ATOM      8  C   LIG    1       23.842 -13.012   3.092  0.00  0.00    +0.039 C 
ATOM      9  C   LIG    1       25.003 -12.698   2.398  0.00  0.00    +0.123 C 
ATOM     10  F   LIG    1       25.190 -11.448   1.955  0.00  0.00    -0.205 F 
ATOM     11  C   LIG    1       25.972 -13.664   2.150  0.00  0.00    +0.039 C 
ATOM     12  C   LIG    1       25.775 -14.969   2.604  0.00  0.00    +0.013 C 
ENDBRANCH   3   6
BRANCH   4  13
ATOM     13  C   LIG    1       22.445 -16.368   5.390  0.00  0.00    -0.015 C 
ATOM     14  C   LIG    1       22.774 -15.255   6.178  0.00  0.00    +0.008 C 
ATOM     15  C   LIG    1       21.782 -14.516   6.834  0.00  0.00    +0.001 C 
ATOM     16  C   LIG    1       20.441 -14.856   6.686  0.00  0.00    +0.000 C 
ATOM     17  C   LIG    1       20.092 -15.949   5.902  0.00  0.00    +0.001 C 
ATOM     18  C   LIG    1       21.088 -16.709   5.283  0.00  0.00    +0.008 C 
ENDBRANCH   4  13
BRANCH   5  19
ATOM     19  C   LIG    1       23.323 -19.462   5.964  0.00  0.00    +0.251 C 
ATOM     20  N   LIG    1       22.055 -20.011   5.796  0.00  0.00    -0.281 N 
ATOM     21  H   LIG    1       21.790 -20.520   6.630  0.00  0.00    +0.155 HD
ATOM     22  O   LIG    1       23.957 -19.743   6.970  0.00  0.00    -0.270 OA
BRANCH  20  23
ATOM     23  C   LIG    1       21.120 -20.004   4.740  0.00  0.00    +0.034 C 
ATOM     24  C   LIG    1       20.878 -18.780   4.106  0.00  0.00    +0.023 C 
ATOM     25  C   LIG    1       19.996 -18.687   3.019  0.00  0.00    +0.002 C 
ATOM     26  C   LIG    1       19.350 -19.822   2.539  0.00  0.00    +0.000 C 
ATOM     27  C   LIG    1       19.550 -21.034   3.178  0.00  0.00    +0.002 C 
ATOM     28  C   LIG    1       20.401 -21.110   4.285  0.00  0.00    +0.023 C 
ENDBRANCH  20  23
ENDBRANCH   5  19
BRANCH   1  30
ATOM     29  C   LIG    1       25.866 -20.990   4.831  0.00  0.00    +0.014 C 
ATOM     30  C   LIG    1       25.182 -20.335   3.632  0.00  0.00    +0.030 C 
ATOM     31  C   LIG    1       24.108 -21.229   3.026  0.00  0.00    +0.014 C 
ENDBRANCH   1  30
BRANCH   2  32
ATOM     32  C   LIG    1       26.481 -17.577   2.682  0.00  0.00    +0.124 C 
BRANCH  32  33
ATOM     33  C   LIG    1       27.688 -17.705   3.614  0.00  0.00    +0.053 C 
BRANCH  33  34
ATOM     34  C   LIG    1       27.898 -16.507   4.541  0.00  0.00    +0.119 C 
BRANCH  34  35
ATOM     35  O   LIG    1       29.070 -16.783   5.310  0.00  0.00    -0.392 OA
ATOM     36  H   LIG    1       28.802 -17.103   6.189  0.00  0.00    +0.210 HD
ENDBRANCH  34  35
BRANCH  34  37
ATOM     37  C   LIG    1       28.110 -15.204   3.759  0.00  0.00    +0.063 C 
BRANCH  37  38
ATOM     38  C   LIG    1       28.686 -14.045   4.584  0.00  0.00    +0.128 C 
BRANCH  38  39
ATOM     39  O   LIG    1       28.683 -12.840   3.809  0.00  0.00    -0.391 OA
ATOM     40  H   LIG    1       27.780 -12.467   3.818  0.00  0.00    +0.210 HD
ENDBRANCH  38  39
BRANCH  38  41
ATOM     41  C   LIG    1       27.968 -13.765   5.901  0.00  0.00    +0.151 C 
BRANCH  41  42
ATOM     42  C   LIG    1       26.601 -13.182   5.658  0.00  0.00    +0.307 C 
ATOM     43  O   LIG    1       25.569 -13.734   5.978  0.00  0.00    -0.251 OA
BRANCH  42  44
ATOM     44  O   LIG    1       26.626 -12.021   4.952  0.00  0.00    -0.481 OA
ATOM     45  H   LIG    1       25.873 -11.430   5.133  0.00  0.00    +0.295 HD
ENDBRANCH  42  44
ENDBRANCH  41  42
ENDBRANCH  38  41
ENDBRANCH  37  38
ENDBRANCH  34  37
ENDBRANCH  33  34
ENDBRANCH  32  33
ENDBRANCH   2  32
TORSDOF 15
ENDMDL
