MODEL 1
REMARK VINA RESULT:      -8.7      0.000      0.000
REMARK  Name = *****
REMARK                            x       y       z     vdW  Elec       q    Type
REMARK                         _______ _______ _______ _____ _____    ______ ____
ROOT
ATOM      1  C   LIG    1       29.503 -19.550   5.562  0.00  0.00    +0.088 C 
ATOM      2  C   LIG    1       28.689 -19.703   6.790  0.00  0.00    +0.135 A 
ATOM      3  N   LIG    1       27.389 -20.179   6.859  0.00  0.00    -0.281 N 
ATOM      4  C   LIG    1       26.442 -20.400   5.826  0.00  0.00    +0.059 A 
ATOM      5  C   LIG    1       25.455 -21.400   5.940  0.00  0.00    +0.026 A 
ATOM      6  C   LIG    1       25.437 -22.419   7.039  0.00  0.00    +0.077 C 
ATOM      7  N   LIG    1       25.587 -22.166   8.294  0.00  0.00    -0.275 NA
ATOM      8  C   LIG    1       25.851 -20.803   8.739  0.00  0.00    +0.218 C 
ATOM      9  C   LIG    1       24.482 -21.530   4.932  0.00  0.00    +0.032 A 
ATOM     10  C   LIG    1       24.508 -20.695   3.819  0.00  0.00    +0.042 A 
ATOM     11 CL   LIG    1       23.318 -20.871   2.591  0.00  0.00    -0.084 Cl
ATOM     12  C   LIG    1       25.490 -19.719   3.694  0.00  0.00    +0.022 A 
ATOM     13  C   LIG    1       26.453 -19.567   4.695  0.00  0.00    +0.028 A 
ATOM     14  C   LIG    1       27.146 -20.328   8.208  0.00  0.00    +0.160 A 
ATOM     15  N   LIG    1       28.181 -19.899   8.898  0.00  0.00    -0.132 NA
ATOM     16  N   LIG    1       29.145 -19.509   8.011  0.00  0.00    -0.134 NA
ENDROOT
BRANCH   6  17
ATOM     17  C   LIG    1       25.199 -23.849   6.676  0.00  0.00    +0.019 A 
ATOM     18  C   LIG    1       23.919 -24.412   6.580  0.00  0.00    +0.050 A 
ATOM     19 CL   LIG    1       22.469 -23.499   6.800  0.00  0.00    -0.083 Cl
ATOM     20  C   LIG    1       23.783 -25.765   6.250  0.00  0.00    +0.021 A 
ATOM     21  C   LIG    1       24.912 -26.549   6.005  0.00  0.00    +0.002 A 
ATOM     22  C   LIG    1       26.184 -25.984   6.076  0.00  0.00    +0.001 A 
ATOM     23  C   LIG    1       26.329 -24.635   6.405  0.00  0.00    +0.011 A 
ENDBRANCH   6  17
TORSDOF 1
ENDMDL
MODEL 2
REMARK VINA RESULT:      -6.2      7.440      9.446
REMARK  Name = *****
REMARK                            x       y       z     vdW  Elec       q    Type
REMARK                         _______ _______ _______ _____ _____    ______ ____
ROOT
ATOM      1  C   LIG    1       23.989 -26.928  13.263  0.00  0.00    +0.088 C 
ATOM      2  C   LIG    1       25.254 -27.589  12.868  0.00  0.00    +0.135 A 
ATOM      3  N   LIG    1       25.387 -28.635  11.969  0.00  0.00    -0.281 N 
ATOM      4  C   LIG    1       24.400 -29.484  11.403  0.00  0.00    +0.059 A 
ATOM      5  C   LIG    1       24.571 -30.053  10.125  0.00  0.00    +0.026 A 
ATOM      6  C   LIG    1       25.681 -29.670   9.193  0.00  0.00    +0.077 C 
ATOM      7  N   LIG    1       26.925 -29.570   9.516  0.00  0.00    -0.275 NA
ATOM      8  C   LIG    1       27.342 -29.784  10.896  0.00  0.00    +0.218 C 
ATOM      9  C   LIG    1       23.610 -30.955   9.635  0.00  0.00    +0.032 A 
ATOM     10  C   LIG    1       22.487 -31.266  10.397  0.00  0.00    +0.042 A 
ATOM     11 CL   LIG    1       21.316 -32.366   9.783  0.00  0.00    -0.084 Cl
ATOM     12  C   LIG    1       22.306 -30.695  11.651  0.00  0.00    +0.022 A 
ATOM     13  C   LIG    1       23.261 -29.808  12.157  0.00  0.00    +0.028 A 
ATOM     14  C   LIG    1       26.747 -28.759  11.780  0.00  0.00    +0.160 A 
ATOM     15  N   LIG    1       27.386 -27.914  12.562  0.00  0.00    -0.132 NA
ATOM     16  N   LIG    1       26.451 -27.184  13.242  0.00  0.00    -0.134 NA
ENDROOT
BRANCH   6  17
ATOM     17  C   LIG    1       25.346 -29.405   7.761  0.00  0.00    +0.019 A 
ATOM     18  C   LIG    1       25.489 -30.365   6.751  0.00  0.00    +0.050 A 
ATOM     19 CL   LIG    1       26.002 -31.986   7.058  0.00  0.00    -0.083 Cl
ATOM     20  C   LIG    1       25.168 -30.032   5.430  0.00  0.00    +0.021 A 
ATOM     21  C   LIG    1       24.695 -28.755   5.120  0.00  0.00    +0.002 A 
ATOM     22  C   LIG    1       24.529 -27.808   6.128  0.00  0.00    +0.001 A 
ATOM     23  C   LIG    1       24.848 -28.131   7.447  0.00  0.00    +0.011 A 
ENDBRANCH   6  17
TORSDOF 1
ENDMDL
MODEL 3
REMARK VINA RESULT:      -6.2      8.174      9.486
REMARK  Name = *****
REMARK                            x       y       z     vdW  Elec       q    Type
REMARK                         _______ _______ _______ _____ _____    ______ ____
ROOT
ATOM      1  C   LIG    1       27.863 -24.372  14.738  0.00  0.00    +0.088 C 
ATOM      2  C   LIG    1       28.078 -25.814  15.002  0.00  0.00    +0.135 A 
ATOM      3  N   LIG    1       27.215 -26.847  14.668  0.00  0.00    -0.281 N 
ATOM      4  C   LIG    1       25.863 -26.804  14.241  0.00  0.00    +0.059 A 
ATOM      5  C   LIG    1       25.331 -27.799  13.396  0.00  0.00    +0.026 A 
ATOM      6  C   LIG    1       26.169 -28.849  12.731  0.00  0.00    +0.077 C 
ATOM      7  N   LIG    1       27.067 -29.567  13.315  0.00  0.00    -0.275 NA
ATOM      8  C   LIG    1       27.377 -29.349  14.723  0.00  0.00    +0.218 C 
ATOM      9  C   LIG    1       23.965 -27.767  13.064  0.00  0.00    +0.032 A 
ATOM     10  C   LIG    1       23.148 -26.749  13.548  0.00  0.00    +0.042 A 
ATOM     11 CL   LIG    1       21.481 -26.719  13.128  0.00  0.00    -0.084 Cl
ATOM     12  C   LIG    1       23.672 -25.756  14.368  0.00  0.00    +0.022 A 
ATOM     13  C   LIG    1       25.024 -25.784  14.719  0.00  0.00    +0.028 A 
ATOM     14  C   LIG    1       27.935 -27.994  14.925  0.00  0.00    +0.160 A 
ATOM     15  N   LIG    1       29.102 -27.684  15.447  0.00  0.00    -0.132 NA
ATOM     16  N   LIG    1       29.190 -26.321  15.495  0.00  0.00    -0.134 NA
ENDROOT
BRANCH   6  17
ATOM     17  C   LIG    1       25.941 -29.126  11.281  0.00  0.00    +0.019 A 
ATOM     18  C   LIG    1       25.058 -30.111  10.818  0.00  0.00    +0.050 A 
ATOM     19 CL   LIG    1       24.080 -31.069  11.871  0.00  0.00    -0.083 Cl
ATOM     20  C   LIG    1       24.914 -30.318   9.442  0.00  0.00    +0.021 A 
ATOM     21  C   LIG    1       25.633 -29.541   8.532  0.00  0.00    +0.002 A 
ATOM     22  C   LIG    1       26.493 -28.544   8.991  0.00  0.00    +0.001 A 
ATOM     23  C   LIG    1       26.644 -28.332  10.362  0.00  0.00    +0.011 A 
ENDBRANCH   6  17
TORSDOF 1
ENDMDL
MODEL 4
REMARK VINA RESULT:      -6.2      2.682      5.360
REMARK  Name = *****
REMARK                            x       y       z     vdW  Elec       q    Type
REMARK                         _______ _______ _______ _____ _____    ______ ____
ROOT
ATOM      1  C   LIG    1       23.478 -21.400   2.847  0.00  0.00    +0.088 C 
ATOM      2  C   LIG    1       23.247 -20.901   4.223  0.00  0.00    +0.135 A 
ATOM      3  N   LIG    1       23.865 -21.360   5.376  0.00  0.00    -0.281 N 
ATOM      4  C   LIG    1       24.645 -22.526   5.591  0.00  0.00    +0.059 A 
ATOM      5  C   LIG    1       25.660 -22.556   6.569  0.00  0.00    +0.026 A 
ATOM      6  C   LIG    1       26.127 -21.339   7.310  0.00  0.00    +0.077 C 
ATOM      7  N   LIG    1       25.360 -20.466   7.870  0.00  0.00    -0.275 NA
ATOM      8  C   LIG    1       23.911 -20.589   7.762  0.00  0.00    +0.218 C 
ATOM      9  C   LIG    1       26.354 -23.755   6.810  0.00  0.00    +0.032 A 
ATOM     10  C   LIG    1       26.057 -24.898   6.073  0.00  0.00    +0.042 A 
ATOM     11 CL   LIG    1       26.917 -26.356   6.373  0.00  0.00    -0.084 Cl
ATOM     12  C   LIG    1       25.068 -24.869   5.096  0.00  0.00    +0.022 A 
ATOM     13  C   LIG    1       24.360 -23.688   4.856  0.00  0.00    +0.028 A 
ATOM     14  C   LIG    1       23.486 -20.463   6.351  0.00  0.00    +0.160 A 
ATOM     15  N   LIG    1       22.645 -19.584   5.849  0.00  0.00    -0.132 NA
ATOM     16  N   LIG    1       22.496 -19.859   4.518  0.00  0.00    -0.134 NA
ENDROOT
BRANCH   6  17
ATOM     17  C   LIG    1       27.597 -21.114   7.450  0.00  0.00    +0.019 A 
ATOM     18  C   LIG    1       28.344 -20.346   6.547  0.00  0.00    +0.050 A 
ATOM     19 CL   LIG    1       27.637 -19.514   5.209  0.00  0.00    -0.083 Cl
ATOM     20  C   LIG    1       29.722 -20.197   6.741  0.00  0.00    +0.021 A 
ATOM     21  C   LIG    1       30.350 -20.798   7.834  0.00  0.00    +0.002 A 
ATOM     22  C   LIG    1       29.603 -21.542   8.746  0.00  0.00    +0.001 A 
ATOM     23  C   LIG    1       28.229 -21.696   8.560  0.00  0.00    +0.011 A 
ENDBRANCH   6  17
TORSDOF 1
ENDMDL
MODEL 5
REMARK VINA RESULT:      -6.2      8.480      9.608
REMARK  Name = *****
REMARK                            x       y       z     vdW  Elec       q    Type
REMARK                         _______ _______ _______ _____ _____    ______ ____
ROOT
ATOM      1  C   LIG    1       27.361 -25.129  14.108  0.00  0.00    +0.088 C 
ATOM      2  C   LIG    1       27.410 -26.569  14.454  0.00  0.00    +0.135 A 
ATOM      3  N   LIG    1       26.418 -27.505  14.208  0.00  0.00    -0.281 N 
ATOM      4  C   LIG    1       25.066 -27.322  13.818  0.00  0.00    +0.059 A 
ATOM      5  C   LIG    1       24.389 -28.291  13.050  0.00  0.00    +0.026 A 
ATOM      6  C   LIG    1       25.069 -29.472  12.428  0.00  0.00    +0.077 C 
ATOM      7  N   LIG    1       25.895 -30.260  13.028  0.00  0.00    -0.275 NA
ATOM      8  C   LIG    1       26.278 -30.001  14.410  0.00  0.00    +0.218 C 
ATOM      9  C   LIG    1       23.025 -28.111  12.757  0.00  0.00    +0.032 A 
ATOM     10  C   LIG    1       22.355 -26.975  13.200  0.00  0.00    +0.042 A 
ATOM     11 CL   LIG    1       20.690 -26.765  12.827  0.00  0.00    -0.084 Cl
ATOM     12  C   LIG    1       23.023 -26.009  13.943  0.00  0.00    +0.022 A 
ATOM     13  C   LIG    1       24.374 -26.181  14.256  0.00  0.00    +0.028 A 
ATOM     14  C   LIG    1       27.002 -28.716  14.514  0.00  0.00    +0.160 A 
ATOM     15  N   LIG    1       28.216 -28.521  14.983  0.00  0.00    -0.132 NA
ATOM     16  N   LIG    1       28.470 -27.179  14.945  0.00  0.00    -0.134 NA
ENDROOT
BRANCH   6  17
ATOM     17  C   LIG    1       24.758 -29.801  11.004  0.00  0.00    +0.019 A 
ATOM     18  C   LIG    1       25.496 -29.301   9.923  0.00  0.00    +0.050 A 
ATOM     19 CL   LIG    1       26.893 -28.304  10.118  0.00  0.00    -0.083 Cl
ATOM     20  C   LIG    1       25.129 -29.645   8.617  0.00  0.00    +0.021 A 
ATOM     21  C   LIG    1       24.043 -30.492   8.390  0.00  0.00    +0.002 A 
ATOM     22  C   LIG    1       23.323 -31.010   9.465  0.00  0.00    +0.001 A 
ATOM     23  C   LIG    1       23.682 -30.671  10.770  0.00  0.00    +0.011 A 
ENDBRANCH   6  17
TORSDOF 1
ENDMDL
MODEL 6
REMARK VINA RESULT:      -6.1      7.377      9.980
REMARK  Name = *****
REMARK                            x       y       z     vdW  Elec       q    Type
REMARK                         _______ _______ _______ _____ _____    ______ ____
ROOT
ATOM      1  C   LIG    1       27.542 -29.828  10.768  0.00  0.00    +0.088 C 
ATOM      2  C   LIG    1       26.305 -30.633  10.639  0.00  0.00    +0.135 A 
ATOM      3  N   LIG    1       25.499 -30.723   9.515  0.00  0.00    -0.281 N 
ATOM      4  C   LIG    1       25.483 -29.932   8.337  0.00  0.00    +0.059 A 
ATOM      5  C   LIG    1       25.077 -30.470   7.100  0.00  0.00    +0.026 A 
ATOM      6  C   LIG    1       24.822 -31.931   6.880  0.00  0.00    +0.077 C 
ATOM      7  N   LIG    1       24.118 -32.690   7.649  0.00  0.00    -0.275 NA
ATOM      8  C   LIG    1       23.541 -32.154   8.876  0.00  0.00    +0.218 C 
ATOM      9  C   LIG    1       24.993 -29.631   5.974  0.00  0.00    +0.032 A 
ATOM     10  C   LIG    1       25.332 -28.285   6.075  0.00  0.00    +0.042 A 
ATOM     11 CL   LIG    1       25.233 -27.273   4.689  0.00  0.00    -0.084 Cl
ATOM     12  C   LIG    1       25.750 -27.753   7.289  0.00  0.00    +0.022 A 
ATOM     13  C   LIG    1       25.822 -28.571   8.420  0.00  0.00    +0.028 A 
ATOM     14  C   LIG    1       24.609 -31.733   9.809  0.00  0.00    +0.160 A 
ATOM     15  N   LIG    1       24.806 -32.161  11.038  0.00  0.00    -0.132 NA
ATOM     16  N   LIG    1       25.866 -31.472  11.556  0.00  0.00    -0.134 NA
ENDROOT
BRANCH   6  17
ATOM     17  C   LIG    1       25.397 -32.576   5.661  0.00  0.00    +0.019 A 
ATOM     18  C   LIG    1       26.745 -32.941   5.551  0.00  0.00    +0.050 A 
ATOM     19 CL   LIG    1       27.881 -32.751   6.838  0.00  0.00    -0.083 Cl
ATOM     20  C   LIG    1       27.208 -33.526   4.367  0.00  0.00    +0.021 A 
ATOM     21  C   LIG    1       26.331 -33.759   3.305  0.00  0.00    +0.002 A 
ATOM     22  C   LIG    1       24.985 -33.420   3.424  0.00  0.00    +0.001 A 
ATOM     23  C   LIG    1       24.515 -32.834   4.600  0.00  0.00    +0.011 A 
ENDBRANCH   6  17
TORSDOF 1
ENDMDL
MODEL 7
REMARK VINA RESULT:      -5.9      7.934     10.570
REMARK  Name = *****
REMARK                            x       y       z     vdW  Elec       q    Type
REMARK                         _______ _______ _______ _____ _____    ______ ____
ROOT
ATOM      1  C   LIG    1       24.626 -27.933   6.736  0.00  0.00    +0.088 C 
ATOM      2  C   LIG    1       24.370 -29.368   6.998  0.00  0.00    +0.135 A 
ATOM      3  N   LIG    1       24.532 -30.023   8.209  0.00  0.00    -0.281 N 
ATOM      4  C   LIG    1       25.187 -29.600   9.395  0.00  0.00    +0.059 A 
ATOM      5  C   LIG    1       24.773 -30.059  10.662  0.00  0.00    +0.026 A 
ATOM      6  C   LIG    1       23.522 -30.854  10.882  0.00  0.00    +0.077 C 
ATOM      7  N   LIG    1       23.156 -31.878  10.189  0.00  0.00    -0.275 NA
ATOM      8  C   LIG    1       23.956 -32.314   9.051  0.00  0.00    +0.218 C 
ATOM      9  C   LIG    1       25.501 -29.683  11.805  0.00  0.00    +0.032 A 
ATOM     10  C   LIG    1       26.607 -28.845  11.690  0.00  0.00    +0.042 A 
ATOM     11 CL   LIG    1       27.482 -28.388  13.097  0.00  0.00    -0.084 Cl
ATOM     12  C   LIG    1       27.008 -28.376  10.444  0.00  0.00    +0.022 A 
ATOM     13  C   LIG    1       26.304 -28.754   9.298  0.00  0.00    +0.028 A 
ATOM     14  C   LIG    1       23.979 -31.269   8.005  0.00  0.00    +0.160 A 
ATOM     15  N   LIG    1       23.590 -31.387   6.753  0.00  0.00    -0.132 NA
ATOM     16  N   LIG    1       23.835 -30.198   6.125  0.00  0.00    -0.134 NA
ENDROOT
BRANCH   6  17
ATOM     17  C   LIG    1       22.624 -30.464  12.011  0.00  0.00    +0.019 A 
ATOM     18  C   LIG    1       22.542 -31.187  13.209  0.00  0.00    +0.050 A 
ATOM     19 CL   LIG    1       23.522 -32.569  13.545  0.00  0.00    -0.083 Cl
ATOM     20  C   LIG    1       21.663 -30.764  14.212  0.00  0.00    +0.021 A 
ATOM     21  C   LIG    1       20.880 -29.622  14.030  0.00  0.00    +0.002 A 
ATOM     22  C   LIG    1       20.980 -28.889  12.849  0.00  0.00    +0.001 A 
ATOM     23  C   LIG    1       21.853 -29.304  11.843  0.00  0.00    +0.011 A 
ENDBRANCH   6  17
TORSDOF 1
ENDMDL
MODEL 8
REMARK VINA RESULT:      -5.8      8.289     10.790
REMARK  Name = *****
REMARK                            x       y       z     vdW  Elec       q    Type
REMARK                         _______ _______ _______ _____ _____    ______ ____
ROOT
ATOM      1  C   LIG    1       24.778 -32.747  12.204  0.00  0.00    +0.088 C 
ATOM      2  C   LIG    1       25.456 -31.851  11.239  0.00  0.00    +0.135 A 
ATOM      3  N   LIG    1       25.402 -30.466  11.229  0.00  0.00    -0.281 N 
ATOM      4  C   LIG    1       24.541 -29.581  11.927  0.00  0.00    +0.059 A 
ATOM      5  C   LIG    1       24.962 -28.285  12.290  0.00  0.00    +0.026 A 
ATOM      6  C   LIG    1       26.376 -27.810  12.152  0.00  0.00    +0.077 C 
ATOM      7  N   LIG    1       27.114 -27.954  11.104  0.00  0.00    -0.275 NA
ATOM      8  C   LIG    1       26.604 -28.677   9.946  0.00  0.00    +0.218 C 
ATOM      9  C   LIG    1       24.050 -27.409  12.906  0.00  0.00    +0.032 A 
ATOM     10  C   LIG    1       22.750 -27.824  13.176  0.00  0.00    +0.042 A 
ATOM     11 CL   LIG    1       21.648 -26.745  13.936  0.00  0.00    -0.084 Cl
ATOM     12  C   LIG    1       22.335 -29.107  12.835  0.00  0.00    +0.022 A 
ATOM     13  C   LIG    1       23.225 -29.983  12.209  0.00  0.00    +0.028 A 
ATOM     14  C   LIG    1       26.342 -30.091  10.293  0.00  0.00    +0.160 A 
ATOM     15  N   LIG    1       26.861 -31.159   9.727  0.00  0.00    -0.132 NA
ATOM     16  N   LIG    1       26.306 -32.259  10.318  0.00  0.00    -0.134 NA
ENDROOT
BRANCH   6  17
ATOM     17  C   LIG    1       26.994 -27.079  13.300  0.00  0.00    +0.019 A 
ATOM     18  C   LIG    1       27.444 -27.720  14.463  0.00  0.00    +0.050 A 
ATOM     19 CL   LIG    1       27.399 -29.434  14.671  0.00  0.00    -0.083 Cl
ATOM     20  C   LIG    1       27.997 -26.960  15.500  0.00  0.00    +0.021 A 
ATOM     21  C   LIG    1       28.114 -25.575  15.375  0.00  0.00    +0.002 A 
ATOM     22  C   LIG    1       27.690 -24.940  14.209  0.00  0.00    +0.001 A 
ATOM     23  C   LIG    1       27.136 -25.689  13.170  0.00  0.00    +0.011 A 
ENDBRANCH   6  17
TORSDOF 1
ENDMDL
MODEL 9
REMARK VINA RESULT:      -5.8      8.718     10.738
REMARK  Name = *****
REMARK                            x       y       z     vdW  Elec       q    Type
REMARK                         _______ _______ _______ _____ _____    ______ ____
ROOT
ATOM      1  C   LIG    1       28.547 -28.485  15.479  0.00  0.00    +0.088 C 
ATOM      2  C   LIG    1       27.942 -29.804  15.179  0.00  0.00    +0.135 A 
ATOM      3  N   LIG    1       26.755 -30.026  14.500  0.00  0.00    -0.281 N 
ATOM      4  C   LIG    1       25.722 -29.119  14.146  0.00  0.00    +0.059 A 
ATOM      5  C   LIG    1       24.928 -29.326  13.000  0.00  0.00    +0.026 A 
ATOM      6  C   LIG    1       25.221 -30.379  11.974  0.00  0.00    +0.077 C 
ATOM      7  N   LIG    1       25.499 -31.613  12.229  0.00  0.00    -0.275 NA
ATOM      8  C   LIG    1       25.604 -32.069  13.609  0.00  0.00    +0.218 C 
ATOM      9  C   LIG    1       23.860 -28.452  12.731  0.00  0.00    +0.032 A 
ATOM     10  C   LIG    1       23.603 -27.376  13.577  0.00  0.00    +0.042 A 
ATOM     11 CL   LIG    1       22.299 -26.311  13.232  0.00  0.00    -0.084 Cl
ATOM     12  C   LIG    1       24.394 -27.159  14.699  0.00  0.00    +0.022 A 
ATOM     13  C   LIG    1       25.449 -28.029  14.988  0.00  0.00    +0.028 A 
ATOM     14  C   LIG    1       26.725 -31.389  14.293  0.00  0.00    +0.160 A 
ATOM     15  N   LIG    1       27.764 -31.952  14.871  0.00  0.00    -0.132 NA
ATOM     16  N   LIG    1       28.525 -30.960  15.425  0.00  0.00    -0.134 NA
ENDROOT
BRANCH   6  17
ATOM     17  C   LIG    1       25.162 -29.999  10.530  0.00  0.00    +0.019 A 
ATOM     18  C   LIG    1       26.066 -29.108   9.935  0.00  0.00    +0.050 A 
ATOM     19 CL   LIG    1       27.394 -28.405  10.787  0.00  0.00    -0.083 Cl
ATOM     20  C   LIG    1       25.932 -28.792   8.579  0.00  0.00    +0.021 A 
ATOM     21  C   LIG    1       24.914 -29.368   7.817  0.00  0.00    +0.002 A 
ATOM     22  C   LIG    1       24.030 -30.272   8.402  0.00  0.00    +0.001 A 
ATOM     23  C   LIG    1       24.155 -30.593   9.754  0.00  0.00    +0.011 A 
ENDBRANCH   6  17
TORSDOF 1
ENDMDL
