MODEL 1
REMARK VINA RESULT:       1.8      0.000      0.000
REMARK  Name = *****
REMARK                            x       y       z     vdW  Elec       q    Type
REMARK                         _______ _______ _______ _____ _____    ______ ____
ROOT
ATOM      1  C   LIG    1       25.770 -20.541   4.431  0.00  0.00    +0.028 C 
ENDROOT
BRANCH   1   2
ATOM      2  C   LIG    1       26.626 -19.972   5.603  0.00  0.00    +0.017 C 
BRANCH   2   3
ATOM      3  C   LIG    1       28.195 -20.018   5.593  0.00  0.00    +0.084 C 
BRANCH   3   4
ATOM      4  N   LIG    1       28.851 -18.707   5.294  0.00  0.00    -0.305 NA
ATOM      5  C   LIG    1       29.448 -18.068   6.472  0.00  0.00    +0.105 C 
BRANCH   4   6
ATOM      6  C   LIG    1       27.992 -17.705   4.555  0.00  0.00    +0.089 C 
BRANCH   6   7
ATOM      7  C   LIG    1       28.270 -16.237   5.042  0.00  0.00    +0.050 C 
BRANCH   7  11
ATOM      8  C   LIG    1       26.199 -12.875   3.058  0.00  0.00    +0.162 A 
ATOM      9  C   LIG    1       26.281 -12.943   4.472  0.00  0.00    +0.162 A 
ATOM     10  C   LIG    1       26.951 -14.017   5.121  0.00  0.00    +0.053 A 
ATOM     11  C   LIG    1       27.658 -14.986   4.417  0.00  0.00    -0.043 A 
ATOM     12  C   LIG    1       27.669 -14.856   3.015  0.00  0.00    +0.007 A 
ATOM     13  C   LIG    1       26.949 -13.836   2.350  0.00  0.00    +0.050 A 
BRANCH   8  15
ATOM     14  C   LIG    1       24.254 -11.539   2.233  0.00  0.00    +0.277 C 
ATOM     15  O   LIG    1       25.658 -11.873   2.269  0.00  0.00    -0.491 OA
ENDBRANCH   8  15
BRANCH   9  16
ATOM     16  O   LIG    1       25.838 -12.033   5.419  0.00  0.00    -0.491 OA
ATOM     17  C   LIG    1       24.460 -11.856   5.352  0.00  0.00    +0.277 C 
ENDBRANCH   9  16
ENDBRANCH   7  11
ENDBRANCH   6   7
ENDBRANCH   4   6
ENDBRANCH   3   4
ENDBRANCH   2   3
ENDBRANCH   1   2
BRANCH   1  18
ATOM     18  C   LIG    1       24.188 -20.311   4.329  0.00  0.00    +0.085 C 
BRANCH  18  19
ATOM     19  C   LIG    1       23.895 -18.768   4.190  0.00  0.00    -0.024 A 
ATOM     20  C   LIG    1       22.746 -18.137   4.702  0.00  0.00    +0.054 A 
ATOM     21  C   LIG    1       22.593 -16.720   4.726  0.00  0.00    +0.162 A 
ATOM     22  C   LIG    1       23.546 -15.886   4.103  0.00  0.00    +0.162 A 
ATOM     23  C   LIG    1       24.670 -16.492   3.550  0.00  0.00    +0.050 A 
ATOM     24  C   LIG    1       24.844 -17.895   3.606  0.00  0.00    +0.009 A 
BRANCH  21  25
ATOM     25  O   LIG    1       21.547 -16.083   5.364  0.00  0.00    -0.491 OA
ATOM     26  C   LIG    1       21.840 -15.433   6.598  0.00  0.00    +0.277 C 
ENDBRANCH  21  25
BRANCH  22  27
ATOM     27  O   LIG    1       23.343 -14.526   4.117  0.00  0.00    -0.491 OA
ATOM     28  C   LIG    1       23.074 -13.847   2.885  0.00  0.00    +0.277 C 
ENDBRANCH  22  27
ENDBRANCH  18  19
BRANCH  18  29
ATOM     29  C   LIG    1       23.448 -21.095   5.528  0.00  0.00    +0.007 C 
ATOM     30  C   LIG    1       21.946 -21.386   5.246  0.00  0.00    +0.009 C 
ATOM     31  C   LIG    1       23.584 -20.462   6.937  0.00  0.00    +0.009 C 
ENDBRANCH  18  29
BRANCH  18  32
ATOM     32  C   LIG    1       23.756 -21.008   3.090  0.00  0.00    +0.074 C 
ATOM     33  N   LIG    1       23.406 -21.572   2.072  0.00  0.00    -0.196 NA
ENDBRANCH  18  32
ENDBRANCH   1  18
TORSDOF 14
ENDMDL
