MODEL 1
REMARK VINA RESULT:      -7.6      0.000      0.000
REMARK  Name = *****
REMARK                            x       y       z     vdW  Elec       q    Type
REMARK                         _______ _______ _______ _____ _____    ______ ____
ROOT
ATOM      1  C   LIG    1       22.079 -28.501  12.953  0.00  0.00    +0.065 C 
ATOM      2  C   LIG    1       22.947 -29.310  11.986  0.00  0.00    +0.096 C 
ATOM      3  C   LIG    1       22.129 -30.225  11.056  0.00  0.00    +0.065 C 
ATOM      4  C   LIG    1       20.809 -30.420  11.259  0.00  0.00    +0.016 C 
ATOM      5  C   LIG    1       19.909 -31.258  10.386  0.00  0.00    +0.061 C 
ATOM      6  N   LIG    1       20.185 -29.782  12.322  0.00  0.00    -0.321 N 
ATOM      7  H   LIG    1       19.180 -29.915  12.415  0.00  0.00    +0.152 HD
ATOM      8  C   LIG    1       20.761 -28.783  13.093  0.00  0.00    +0.016 C 
ATOM      9  C   LIG    1       19.814 -28.058  14.015  0.00  0.00    +0.061 C 
ENDROOT
BRANCH   2  10
ATOM     10  C   LIG    1       24.060 -30.050  12.759  0.00  0.00    -0.029 A 
ATOM     11  C   LIG    1       25.412 -29.682  12.657  0.00  0.00    +0.088 A 
ATOM     12  C   LIG    1       26.377 -30.412  13.368  0.00  0.00    +0.273 A 
ATOM     13  C   LIG    1       26.043 -31.493  14.186  0.00  0.00    +0.084 A 
ATOM     14  C   LIG    1       24.707 -31.864  14.286  0.00  0.00    +0.007 A 
ATOM     15  C   LIG    1       23.730 -31.156  13.575  0.00  0.00    +0.005 A 
BRANCH  12  16
ATOM     16  N   LIG    1       27.778 -30.056  13.252  0.00  0.00    +0.080 N 
ATOM     17  O   LIG    1       28.547 -30.503  14.112  0.00  0.00    -0.576 OA
ATOM     18  O   LIG    1       28.095 -29.310  12.315  0.00  0.00    +0.041 OA
ENDBRANCH  12  16
ENDBRANCH   2  10
BRANCH   1  19
ATOM     19  C   LIG    1       22.738 -27.370  13.669  0.00  0.00    +0.337 C 
ATOM     20  O   LIG    1       23.004 -26.280  13.183  0.00  0.00    -0.245 OA
BRANCH  19  22
ATOM     21  C   LIG    1       24.375 -27.451  15.409  0.00  0.00    +0.280 C 
ATOM     22  O   LIG    1       23.076 -27.787  14.915  0.00  0.00    -0.465 OA
ENDBRANCH  19  22
ENDBRANCH   1  19
BRANCH   3  23
ATOM     23  C   LIG    1       22.931 -30.813   9.942  0.00  0.00    +0.338 C 
ATOM     24  O   LIG    1       23.187 -31.992   9.904  0.00  0.00    -0.245 OA
BRANCH  23  25
ATOM     25  O   LIG    1       23.273 -29.923   8.979  0.00  0.00    -0.457 OA
BRANCH  25  26
ATOM     26  C   LIG    1       24.406 -30.307   8.170  0.00  0.00    +0.191 C 
ATOM     27  C   LIG    1       24.534 -29.362   6.953  0.00  0.00    +0.129 C 
ATOM     28  N   LIG    1       24.989 -28.000   7.290  0.00  0.00    -0.295 NA
ATOM     29  C   LIG    1       26.252 -28.018   8.054  0.00  0.00    +0.085 C 
ATOM     30  C   LIG    1       26.154 -28.898   9.306  0.00  0.00    +0.019 C 
ATOM     31  C   LIG    1       25.709 -30.313   8.961  0.00  0.00    +0.047 C 
BRANCH  28  32
ATOM     32  C   LIG    1       25.089 -27.109   6.114  0.00  0.00    +0.119 C 
BRANCH  32  33
ATOM     33  C   LIG    1       24.891 -25.626   6.403  0.00  0.00    -0.033 A 
ATOM     34  C   LIG    1       23.615 -25.032   6.411  0.00  0.00    +0.005 A 
ATOM     35  C   LIG    1       23.461 -23.665   6.671  0.00  0.00    +0.000 A 
ATOM     36  C   LIG    1       24.576 -22.875   6.943  0.00  0.00    +0.000 A 
ATOM     37  C   LIG    1       25.842 -23.456   6.969  0.00  0.00    +0.000 A 
ATOM     38  C   LIG    1       25.998 -24.820   6.702  0.00  0.00    +0.005 A 
ENDBRANCH  32  33
ENDBRANCH  28  32
ENDBRANCH  25  26
ENDBRANCH  23  25
ENDBRANCH   3  23
TORSDOF 9
ENDMDL
MODEL 2
REMARK VINA RESULT:      -7.1      2.234      3.506
REMARK  Name = *****
REMARK                            x       y       z     vdW  Elec       q    Type
REMARK                         _______ _______ _______ _____ _____    ______ ____
ROOT
ATOM      1  C   LIG    1       23.744 -30.220  12.146  0.00  0.00    +0.065 C 
ATOM      2  C   LIG    1       24.924 -29.557  11.430  0.00  0.00    +0.096 C 
ATOM      3  C   LIG    1       25.720 -30.532  10.541  0.00  0.00    +0.065 C 
ATOM      4  C   LIG    1       25.493 -31.861  10.593  0.00  0.00    +0.016 C 
ATOM      5  C   LIG    1       26.183 -32.895   9.738  0.00  0.00    +0.061 C 
ATOM      6  N   LIG    1       24.526 -32.352  11.459  0.00  0.00    -0.321 N 
ATOM      7  H   LIG    1       24.351 -33.354  11.436  0.00  0.00    +0.152 HD
ATOM      8  C   LIG    1       23.612 -31.569  12.148  0.00  0.00    +0.016 C 
ATOM      9  C   LIG    1       22.496 -32.326  12.821  0.00  0.00    +0.061 C 
ENDROOT
BRANCH   2  10
ATOM     10  C   LIG    1       25.800 -28.789  12.443  0.00  0.00    -0.029 A 
ATOM     11  C   LIG    1       25.865 -27.386  12.460  0.00  0.00    +0.088 A 
ATOM     12  C   LIG    1       26.700 -26.750  13.392  0.00  0.00    +0.273 A 
ATOM     13  C   LIG    1       27.468 -27.462  14.316  0.00  0.00    +0.084 A 
ATOM     14  C   LIG    1       27.410 -28.851  14.299  0.00  0.00    +0.007 A 
ATOM     15  C   LIG    1       26.594 -29.505  13.368  0.00  0.00    +0.005 A 
BRANCH  12  16
ATOM     16  N   LIG    1       26.793 -25.302  13.405  0.00  0.00    +0.080 N 
ATOM     17  O   LIG    1       25.745 -24.667  13.230  0.00  0.00    -0.576 OA
ATOM     18  O   LIG    1       27.919 -24.811  13.565  0.00  0.00    +0.041 OA
ENDBRANCH  12  16
ENDBRANCH   2  10
BRANCH   1  19
ATOM     19  C   LIG    1       22.738 -29.314  12.772  0.00  0.00    +0.337 C 
ATOM     20  O   LIG    1       21.845 -28.726  12.179  0.00  0.00    -0.245 OA
BRANCH  19  22
ATOM     21  C   LIG    1       22.848 -27.898  14.695  0.00  0.00    +0.280 C 
ATOM     22  O   LIG    1       23.039 -29.178  14.088  0.00  0.00    -0.465 OA
ENDBRANCH  19  22
ENDBRANCH   1  19
BRANCH   3  23
ATOM     23  C   LIG    1       26.699 -29.853   9.640  0.00  0.00    +0.338 C 
ATOM     24  O   LIG    1       27.751 -29.431  10.057  0.00  0.00    -0.245 OA
BRANCH  23  25
ATOM     25  O   LIG    1       26.321 -29.820   8.340  0.00  0.00    -0.457 OA
BRANCH  25  26
ATOM     26  C   LIG    1       25.070 -29.146   8.086  0.00  0.00    +0.191 C 
ATOM     27  C   LIG    1       25.325 -27.806   7.359  0.00  0.00    +0.129 C 
ATOM     28  N   LIG    1       25.756 -27.951   5.956  0.00  0.00    -0.295 NA
ATOM     29  C   LIG    1       24.815 -28.779   5.177  0.00  0.00    +0.085 C 
ATOM     30  C   LIG    1       24.574 -30.145   5.830  0.00  0.00    +0.019 C 
ATOM     31  C   LIG    1       24.105 -30.001   7.272  0.00  0.00    +0.047 C 
BRANCH  28  32
ATOM     32  C   LIG    1       26.011 -26.657   5.285  0.00  0.00    +0.119 C 
BRANCH  32  33
ATOM     33  C   LIG    1       25.369 -25.444   5.948  0.00  0.00    -0.033 A 
ATOM     34  C   LIG    1       26.137 -24.428   6.545  0.00  0.00    +0.005 A 
ATOM     35  C   LIG    1       25.521 -23.328   7.155  0.00  0.00    +0.000 A 
ATOM     36  C   LIG    1       24.133 -23.219   7.163  0.00  0.00    +0.000 A 
ATOM     37  C   LIG    1       23.361 -24.203   6.549  0.00  0.00    +0.000 A 
ATOM     38  C   LIG    1       23.973 -25.306   5.945  0.00  0.00    +0.005 A 
ENDBRANCH  32  33
ENDBRANCH  28  32
ENDBRANCH  25  26
ENDBRANCH  23  25
ENDBRANCH   3  23
TORSDOF 9
ENDMDL
MODEL 3
REMARK VINA RESULT:      -6.8      5.373     10.190
REMARK  Name = *****
REMARK                            x       y       z     vdW  Elec       q    Type
REMARK                         _______ _______ _______ _____ _____    ______ ____
ROOT
ATOM      1  C   LIG    1       24.478 -20.557   4.641  0.00  0.00    +0.065 C 
ATOM      2  C   LIG    1       25.350 -21.589   5.364  0.00  0.00    +0.096 C 
ATOM      3  C   LIG    1       24.532 -22.664   6.103  0.00  0.00    +0.065 C 
ATOM      4  C   LIG    1       23.196 -22.542   6.249  0.00  0.00    +0.016 C 
ATOM      5  C   LIG    1       22.297 -23.554   6.915  0.00  0.00    +0.061 C 
ATOM      6  N   LIG    1       22.554 -21.429   5.722  0.00  0.00    -0.321 N 
ATOM      7  H   LIG    1       21.541 -21.396   5.811  0.00  0.00    +0.152 HD
ATOM      8  C   LIG    1       23.142 -20.509   4.867  0.00  0.00    +0.016 C 
ATOM      9  C   LIG    1       22.191 -19.538   4.217  0.00  0.00    +0.061 C 
ENDROOT
BRANCH   2  10
ATOM     10  C   LIG    1       26.387 -20.877   6.259  0.00  0.00    -0.029 A 
ATOM     11  C   LIG    1       27.585 -20.355   5.742  0.00  0.00    +0.088 A 
ATOM     12  C   LIG    1       28.497 -19.741   6.615  0.00  0.00    +0.273 A 
ATOM     13  C   LIG    1       28.254 -19.619   7.985  0.00  0.00    +0.084 A 
ATOM     14  C   LIG    1       27.073 -20.139   8.500  0.00  0.00    +0.007 A 
ATOM     15  C   LIG    1       26.156 -20.768   7.649  0.00  0.00    +0.005 A 
BRANCH  12  16
ATOM     16  N   LIG    1       29.747 -19.218   6.098  0.00  0.00    +0.080 N 
ATOM     17  O   LIG    1       30.791 -19.735   6.515  0.00  0.00    -0.576 OA
ATOM     18  O   LIG    1       29.676 -18.276   5.297  0.00  0.00    +0.041 OA
ENDBRANCH  12  16
ENDBRANCH   2  10
BRANCH   1  19
ATOM     19  C   LIG    1       25.157 -19.672   3.652  0.00  0.00    +0.337 C 
ATOM     20  O   LIG    1       25.673 -20.039   2.606  0.00  0.00    -0.245 OA
BRANCH  19  22
ATOM     21  C   LIG    1       25.867 -17.403   3.398  0.00  0.00    +0.280 C 
ATOM     22  O   LIG    1       25.190 -18.411   4.153  0.00  0.00    -0.465 OA
ENDBRANCH  19  22
ENDBRANCH   1  19
BRANCH   3  23
ATOM     23  C   LIG    1       25.355 -23.814   6.583  0.00  0.00    +0.338 C 
ATOM     24  O   LIG    1       26.262 -23.657   7.364  0.00  0.00    -0.245 OA
BRANCH  23  25
ATOM     25  O   LIG    1       24.949 -25.018   6.112  0.00  0.00    -0.457 OA
BRANCH  25  26
ATOM     26  C   LIG    1       26.015 -25.914   5.730  0.00  0.00    +0.191 C 
ATOM     27  C   LIG    1       26.434 -26.786   6.936  0.00  0.00    +0.129 C 
ATOM     28  N   LIG    1       25.444 -27.812   7.315  0.00  0.00    -0.295 NA
ATOM     29  C   LIG    1       25.080 -28.670   6.171  0.00  0.00    +0.085 C 
ATOM     30  C   LIG    1       24.601 -27.851   4.967  0.00  0.00    +0.019 C 
ATOM     31  C   LIG    1       25.630 -26.806   4.555  0.00  0.00    +0.047 C 
BRANCH  28  32
ATOM     32  C   LIG    1       25.859 -28.622   8.481  0.00  0.00    +0.119 C 
BRANCH  32  33
ATOM     33  C   LIG    1       25.196 -29.990   8.590  0.00  0.00    -0.033 A 
ATOM     34  C   LIG    1       25.871 -31.175   8.241  0.00  0.00    +0.005 A 
ATOM     35  C   LIG    1       25.235 -32.419   8.341  0.00  0.00    +0.000 A 
ATOM     36  C   LIG    1       23.925 -32.499   8.808  0.00  0.00    +0.000 A 
ATOM     37  C   LIG    1       23.255 -31.337   9.185  0.00  0.00    +0.000 A 
ATOM     38  C   LIG    1       23.886 -30.093   9.078  0.00  0.00    +0.005 A 
ENDBRANCH  32  33
ENDBRANCH  28  32
ENDBRANCH  25  26
ENDBRANCH  23  25
ENDBRANCH   3  23
TORSDOF 9
ENDMDL
MODEL 4
REMARK VINA RESULT:      -6.7      1.838      4.588
REMARK  Name = *****
REMARK                            x       y       z     vdW  Elec       q    Type
REMARK                         _______ _______ _______ _____ _____    ______ ____
ROOT
ATOM      1  C   LIG    1       25.900 -29.966  12.884  0.00  0.00    +0.065 C 
ATOM      2  C   LIG    1       24.848 -30.325  11.830  0.00  0.00    +0.096 C 
ATOM      3  C   LIG    1       25.167 -29.754  10.435  0.00  0.00    +0.065 C 
ATOM      4  C   LIG    1       26.162 -28.859  10.262  0.00  0.00    +0.016 C 
ATOM      5  C   LIG    1       26.584 -28.272   8.938  0.00  0.00    +0.061 C 
ATOM      6  N   LIG    1       26.908 -28.452  11.360  0.00  0.00    -0.321 N 
ATOM      7  H   LIG    1       27.679 -27.813  11.183  0.00  0.00    +0.152 HD
ATOM      8  C   LIG    1       26.855 -29.043  12.614  0.00  0.00    +0.016 C 
ATOM      9  C   LIG    1       27.934 -28.610  13.573  0.00  0.00    +0.061 C 
ENDROOT
BRANCH   2  10
ATOM     10  C   LIG    1       23.437 -29.961  12.339  0.00  0.00    -0.029 A 
ATOM     11  C   LIG    1       23.009 -28.629  12.463  0.00  0.00    +0.088 A 
ATOM     12  C   LIG    1       21.722 -28.366  12.956  0.00  0.00    +0.273 A 
ATOM     13  C   LIG    1       20.839 -29.384  13.323  0.00  0.00    +0.084 A 
ATOM     14  C   LIG    1       21.261 -30.703  13.207  0.00  0.00    +0.007 A 
ATOM     15  C   LIG    1       22.546 -30.987  12.730  0.00  0.00    +0.005 A 
BRANCH  12  16
ATOM     16  N   LIG    1       21.276 -26.994  13.110  0.00  0.00    +0.080 N 
ATOM     17  O   LIG    1       22.150 -26.124  13.216  0.00  0.00    -0.576 OA
ATOM     18  O   LIG    1       20.053 -26.799  13.149  0.00  0.00    +0.041 OA
ENDBRANCH  12  16
ENDBRANCH   2  10
BRANCH   1  19
ATOM     19  C   LIG    1       25.852 -30.719  14.170  0.00  0.00    +0.337 C 
ATOM     20  O   LIG    1       25.369 -30.308  15.216  0.00  0.00    -0.245 OA
BRANCH  19  22
ATOM     21  C   LIG    1       25.806 -33.107  14.258  0.00  0.00    +0.280 C 
ATOM     22  O   LIG    1       26.516 -31.891  14.010  0.00  0.00    -0.465 OA
ENDBRANCH  19  22
ENDBRANCH   1  19
BRANCH   3  23
ATOM     23  C   LIG    1       24.303 -30.310   9.352  0.00  0.00    +0.338 C 
ATOM     24  O   LIG    1       23.137 -30.011   9.260  0.00  0.00    -0.245 OA
BRANCH  23  25
ATOM     25  O   LIG    1       24.961 -31.108   8.476  0.00  0.00    -0.457 OA
BRANCH  25  26
ATOM     26  C   LIG    1       24.186 -31.526   7.332  0.00  0.00    +0.191 C 
ATOM     27  C   LIG    1       23.973 -30.333   6.371  0.00  0.00    +0.129 C 
ATOM     28  N   LIG    1       25.187 -29.919   5.643  0.00  0.00    -0.295 NA
ATOM     29  C   LIG    1       25.806 -31.047   4.922  0.00  0.00    +0.085 C 
ATOM     30  C   LIG    1       26.091 -32.235   5.848  0.00  0.00    +0.019 C 
ATOM     31  C   LIG    1       24.835 -32.685   6.584  0.00  0.00    +0.047 C 
BRANCH  28  32
ATOM     32  C   LIG    1       24.964 -28.766   4.742  0.00  0.00    +0.119 C 
BRANCH  32  33
ATOM     33  C   LIG    1       25.126 -27.396   5.389  0.00  0.00    -0.033 A 
ATOM     34  C   LIG    1       26.392 -26.842   5.657  0.00  0.00    +0.005 A 
ATOM     35  C   LIG    1       26.512 -25.584   6.260  0.00  0.00    +0.000 A 
ATOM     36  C   LIG    1       25.371 -24.855   6.588  0.00  0.00    +0.000 A 
ATOM     37  C   LIG    1       24.113 -25.377   6.301  0.00  0.00    +0.000 A 
ATOM     38  C   LIG    1       23.990 -26.636   5.705  0.00  0.00    +0.005 A 
ENDBRANCH  32  33
ENDBRANCH  28  32
ENDBRANCH  25  26
ENDBRANCH  23  25
ENDBRANCH   3  23
TORSDOF 9
ENDMDL
MODEL 5
REMARK VINA RESULT:      -6.6      2.382      4.673
REMARK  Name = *****
REMARK                            x       y       z     vdW  Elec       q    Type
REMARK                         _______ _______ _______ _____ _____    ______ ____
ROOT
ATOM      1  C   LIG    1       25.177 -31.177  13.414  0.00  0.00    +0.065 C 
ATOM      2  C   LIG    1       25.428 -31.411  11.921  0.00  0.00    +0.096 C 
ATOM      3  C   LIG    1       26.136 -30.229  11.232  0.00  0.00    +0.065 C 
ATOM      4  C   LIG    1       26.299 -29.051  11.869  0.00  0.00    +0.016 C 
ATOM      5  C   LIG    1       27.012 -27.848  11.304  0.00  0.00    +0.061 C 
ATOM      6  N   LIG    1       25.822 -28.908  13.165  0.00  0.00    -0.321 N 
ATOM      7  H   LIG    1       26.005 -28.021  13.629  0.00  0.00    +0.152 HD
ATOM      8  C   LIG    1       25.361 -29.949  13.957  0.00  0.00    +0.016 C 
ATOM      9  C   LIG    1       25.141 -29.604  15.407  0.00  0.00    +0.061 C 
ENDROOT
BRANCH   2  10
ATOM     10  C   LIG    1       24.122 -31.843  11.222  0.00  0.00    -0.029 A 
ATOM     11  C   LIG    1       22.952 -31.067  11.281  0.00  0.00    +0.088 A 
ATOM     12  C   LIG    1       21.790 -31.528  10.644  0.00  0.00    +0.273 A 
ATOM     13  C   LIG    1       21.753 -32.734   9.940  0.00  0.00    +0.084 A 
ATOM     14  C   LIG    1       22.906 -33.507   9.883  0.00  0.00    +0.007 A 
ATOM     15  C   LIG    1       24.072 -33.071  10.524  0.00  0.00    +0.005 A 
BRANCH  12  16
ATOM     16  N   LIG    1       20.570 -30.747  10.717  0.00  0.00    +0.080 N 
ATOM     17  O   LIG    1       20.528 -29.843  11.561  0.00  0.00    -0.576 OA
ATOM     18  O   LIG    1       19.653 -31.060   9.945  0.00  0.00    +0.041 OA
ENDBRANCH  12  16
ENDBRANCH   2  10
BRANCH   1  19
ATOM     19  C   LIG    1       24.790 -32.365  14.228  0.00  0.00    +0.337 C 
ATOM     20  O   LIG    1       25.521 -33.303  14.510  0.00  0.00    -0.245 OA
BRANCH  19  22
ATOM     21  C   LIG    1       22.637 -33.405  14.245  0.00  0.00    +0.280 C 
ATOM     22  O   LIG    1       23.468 -32.275  14.522  0.00  0.00    -0.465 OA
ENDBRANCH  19  22
ENDBRANCH   1  19
BRANCH   3  23
ATOM     23  C   LIG    1       26.621 -30.545   9.856  0.00  0.00    +0.338 C 
ATOM     24  O   LIG    1       27.313 -31.511   9.638  0.00  0.00    -0.245 OA
BRANCH  23  25
ATOM     25  O   LIG    1       26.166 -29.698   8.902  0.00  0.00    -0.457 OA
BRANCH  25  26
ATOM     26  C   LIG    1       24.909 -30.075   8.300  0.00  0.00    +0.191 C 
ATOM     27  C   LIG    1       24.394 -28.939   7.387  0.00  0.00    +0.129 C 
ATOM     28  N   LIG    1       25.163 -28.771   6.140  0.00  0.00    -0.295 NA
ATOM     29  C   LIG    1       25.255 -30.031   5.378  0.00  0.00    +0.085 C 
ATOM     30  C   LIG    1       25.817 -31.177   6.228  0.00  0.00    +0.019 C 
ATOM     31  C   LIG    1       25.012 -31.373   7.506  0.00  0.00    +0.047 C 
BRANCH  28  32
ATOM     32  C   LIG    1       24.663 -27.668   5.289  0.00  0.00    +0.119 C 
BRANCH  32  33
ATOM     33  C   LIG    1       24.798 -26.273   5.888  0.00  0.00    -0.033 A 
ATOM     34  C   LIG    1       26.049 -25.730   6.237  0.00  0.00    +0.005 A 
ATOM     35  C   LIG    1       26.144 -24.448   6.795  0.00  0.00    +0.000 A 
ATOM     36  C   LIG    1       24.996 -23.686   6.994  0.00  0.00    +0.000 A 
ATOM     37  C   LIG    1       23.754 -24.199   6.625  0.00  0.00    +0.000 A 
ATOM     38  C   LIG    1       23.656 -25.482   6.075  0.00  0.00    +0.005 A 
ENDBRANCH  32  33
ENDBRANCH  28  32
ENDBRANCH  25  26
ENDBRANCH  23  25
ENDBRANCH   3  23
TORSDOF 9
ENDMDL
MODEL 6
REMARK VINA RESULT:      -6.4      7.024     11.403
REMARK  Name = *****
REMARK                            x       y       z     vdW  Elec       q    Type
REMARK                         _______ _______ _______ _____ _____    ______ ____
ROOT
ATOM      1  C   LIG    1       24.241 -20.203   5.015  0.00  0.00    +0.065 C 
ATOM      2  C   LIG    1       24.865 -20.832   6.264  0.00  0.00    +0.096 C 
ATOM      3  C   LIG    1       26.372 -20.544   6.400  0.00  0.00    +0.065 C 
ATOM      4  C   LIG    1       27.065 -19.979   5.389  0.00  0.00    +0.016 C 
ATOM      5  C   LIG    1       28.529 -19.617   5.433  0.00  0.00    +0.061 C 
ATOM      6  N   LIG    1       26.404 -19.653   4.213  0.00  0.00    -0.321 N 
ATOM      7  H   LIG    1       26.950 -19.185   3.491  0.00  0.00    +0.152 HD
ATOM      8  C   LIG    1       25.027 -19.670   4.049  0.00  0.00    +0.016 C 
ATOM      9  C   LIG    1       24.524 -19.030   2.781  0.00  0.00    +0.061 C 
ENDROOT
BRANCH   2  10
ATOM     10  C   LIG    1       24.513 -22.333   6.338  0.00  0.00    -0.029 A 
ATOM     11  C   LIG    1       25.396 -23.330   5.889  0.00  0.00    +0.088 A 
ATOM     12  C   LIG    1       25.004 -24.675   5.962  0.00  0.00    +0.273 A 
ATOM     13  C   LIG    1       23.766 -25.067   6.475  0.00  0.00    +0.084 A 
ATOM     14  C   LIG    1       22.887 -24.083   6.915  0.00  0.00    +0.007 A 
ATOM     15  C   LIG    1       23.254 -22.734   6.839  0.00  0.00    +0.005 A 
BRANCH  12  16
ATOM     16  N   LIG    1       25.898 -25.712   5.481  0.00  0.00    +0.080 N 
ATOM     17  O   LIG    1       25.748 -26.088   4.311  0.00  0.00    -0.576 OA
ATOM     18  O   LIG    1       26.726 -26.161   6.285  0.00  0.00    +0.041 OA
ENDBRANCH  12  16
ENDBRANCH   2  10
BRANCH   1  19
ATOM     19  C   LIG    1       22.751 -20.156   4.955  0.00  0.00    +0.337 C 
ATOM     20  O   LIG    1       22.028 -21.055   4.552  0.00  0.00    -0.245 OA
BRANCH  19  22
ATOM     21  C   LIG    1       21.764 -18.068   4.337  0.00  0.00    +0.280 C 
ATOM     22  O   LIG    1       22.343 -18.918   5.331  0.00  0.00    -0.465 OA
ENDBRANCH  19  22
ENDBRANCH   1  19
BRANCH   3  23
ATOM     23  C   LIG    1       26.933 -20.920   7.732  0.00  0.00    +0.338 C 
ATOM     24  O   LIG    1       26.424 -21.779   8.410  0.00  0.00    -0.245 OA
BRANCH  23  25
ATOM     25  O   LIG    1       28.072 -20.261   8.057  0.00  0.00    -0.457 OA
BRANCH  25  26
ATOM     26  C   LIG    1       29.261 -20.731   7.387  0.00  0.00    +0.191 C 
ATOM     27  C   LIG    1       30.324 -19.610   7.341  0.00  0.00    +0.129 C 
ATOM     28  N   LIG    1       30.942 -19.308   8.646  0.00  0.00    -0.295 NA
ATOM     29  C   LIG    1       31.507 -20.517   9.277  0.00  0.00    +0.085 C 
ATOM     30  C   LIG    1       30.471 -21.640   9.398  0.00  0.00    +0.019 C 
ATOM     31  C   LIG    1       29.846 -21.974   8.049  0.00  0.00    +0.047 C 
BRANCH  28  32
ATOM     32  C   LIG    1       31.944 -18.222   8.582  0.00  0.00    +0.119 C 
BRANCH  32  33
ATOM     33  C   LIG    1       32.067 -17.375   9.843  0.00  0.00    -0.033 A 
ATOM     34  C   LIG    1       32.924 -16.261   9.913  0.00  0.00    +0.005 A 
ATOM     35  C   LIG    1       33.025 -15.506  11.088  0.00  0.00    +0.000 A 
ATOM     36  C   LIG    1       32.260 -15.842  12.203  0.00  0.00    +0.000 A 
ATOM     37  C   LIG    1       31.385 -16.924  12.138  0.00  0.00    +0.000 A 
ATOM     38  C   LIG    1       31.288 -17.684  10.968  0.00  0.00    +0.005 A 
ENDBRANCH  32  33
ENDBRANCH  28  32
ENDBRANCH  25  26
ENDBRANCH  23  25
ENDBRANCH   3  23
TORSDOF 9
ENDMDL
MODEL 7
REMARK VINA RESULT:      -6.3      2.143      2.970
REMARK  Name = *****
REMARK                            x       y       z     vdW  Elec       q    Type
REMARK                         _______ _______ _______ _____ _____    ______ ____
ROOT
ATOM      1  C   LIG    1       23.043 -30.241  11.523  0.00  0.00    +0.065 C 
ATOM      2  C   LIG    1       24.357 -29.689  10.963  0.00  0.00    +0.096 C 
ATOM      3  C   LIG    1       24.916 -30.521   9.793  0.00  0.00    +0.065 C 
ATOM      4  C   LIG    1       24.382 -31.719   9.477  0.00  0.00    +0.016 C 
ATOM      5  C   LIG    1       24.823 -32.592   8.328  0.00  0.00    +0.061 C 
ATOM      6  N   LIG    1       23.313 -32.204  10.219  0.00  0.00    -0.321 N 
ATOM      7  H   LIG    1       22.908 -33.088   9.921  0.00  0.00    +0.152 HD
ATOM      8  C   LIG    1       22.598 -31.465  11.149  0.00  0.00    +0.016 C 
ATOM      9  C   LIG    1       21.325 -32.107  11.638  0.00  0.00    +0.061 C 
ENDROOT
BRANCH   2  10
ATOM     10  C   LIG    1       25.373 -29.469  12.105  0.00  0.00    -0.029 A 
ATOM     11  C   LIG    1       25.822 -28.187  12.467  0.00  0.00    +0.088 A 
ATOM     12  C   LIG    1       26.765 -28.058  13.499  0.00  0.00    +0.273 A 
ATOM     13  C   LIG    1       27.272 -29.161  14.190  0.00  0.00    +0.084 A 
ATOM     14  C   LIG    1       26.834 -30.430  13.831  0.00  0.00    +0.007 A 
ATOM     15  C   LIG    1       25.904 -30.581  12.796  0.00  0.00    +0.005 A 
BRANCH  12  16
ATOM     16  N   LIG    1       27.254 -26.743  13.867  0.00  0.00    +0.080 N 
ATOM     17  O   LIG    1       27.938 -26.662  14.895  0.00  0.00    -0.576 OA
ATOM     18  O   LIG    1       26.928 -25.796  13.138  0.00  0.00    +0.041 OA
ENDBRANCH  12  16
ENDBRANCH   2  10
BRANCH   1  19
ATOM     19  C   LIG    1       22.269 -29.348  12.434  0.00  0.00    +0.337 C 
ATOM     20  O   LIG    1       21.492 -28.473  12.079  0.00  0.00    -0.245 OA
BRANCH  19  22
ATOM     21  C   LIG    1       21.622 -29.919  14.664  0.00  0.00    +0.280 C 
ATOM     22  O   LIG    1       22.643 -29.606  13.712  0.00  0.00    -0.465 OA
ENDBRANCH  19  22
ENDBRANCH   1  19
BRANCH   3  23
ATOM     23  C   LIG    1       26.040 -29.855   9.072  0.00  0.00    +0.338 C 
ATOM     24  O   LIG    1       27.170 -30.274   9.143  0.00  0.00    -0.245 OA
BRANCH  23  25
ATOM     25  O   LIG    1       25.659 -28.805   8.305  0.00  0.00    -0.457 OA
BRANCH  25  26
ATOM     26  C   LIG    1       24.745 -29.131   7.236  0.00  0.00    +0.191 C 
ATOM     27  C   LIG    1       23.928 -27.881   6.835  0.00  0.00    +0.129 C 
ATOM     28  N   LIG    1       24.707 -26.854   6.118  0.00  0.00    -0.295 NA
ATOM     29  C   LIG    1       25.393 -27.411   4.937  0.00  0.00    +0.085 C 
ATOM     30  C   LIG    1       26.265 -28.621   5.295  0.00  0.00    +0.019 C 
ATOM     31  C   LIG    1       25.460 -29.697   6.014  0.00  0.00    +0.047 C 
BRANCH  28  32
ATOM     32  C   LIG    1       23.910 -25.660   5.759  0.00  0.00    +0.119 C 
BRANCH  32  33
ATOM     33  C   LIG    1       24.299 -24.377   6.484  0.00  0.00    -0.033 A 
ATOM     34  C   LIG    1       23.365 -23.358   6.748  0.00  0.00    +0.005 A 
ATOM     35  C   LIG    1       23.751 -22.184   7.408  0.00  0.00    +0.000 A 
ATOM     36  C   LIG    1       25.069 -22.020   7.828  0.00  0.00    +0.000 A 
ATOM     37  C   LIG    1       25.997 -23.033   7.600  0.00  0.00    +0.000 A 
ATOM     38  C   LIG    1       25.615 -24.203   6.934  0.00  0.00    +0.005 A 
ENDBRANCH  32  33
ENDBRANCH  28  32
ENDBRANCH  25  26
ENDBRANCH  23  25
ENDBRANCH   3  23
TORSDOF 9
ENDMDL
MODEL 8
REMARK VINA RESULT:      -6.3      2.261      4.077
REMARK  Name = *****
REMARK                            x       y       z     vdW  Elec       q    Type
REMARK                         _______ _______ _______ _____ _____    ______ ____
ROOT
ATOM      1  C   LIG    1       22.838 -31.278   9.810  0.00  0.00    +0.065 C 
ATOM      2  C   LIG    1       23.986 -30.268   9.896  0.00  0.00    +0.096 C 
ATOM      3  C   LIG    1       25.065 -30.482   8.818  0.00  0.00    +0.065 C 
ATOM      4  C   LIG    1       25.062 -31.586   8.043  0.00  0.00    +0.016 C 
ATOM      5  C   LIG    1       26.043 -31.872   6.933  0.00  0.00    +0.061 C 
ATOM      6  N   LIG    1       24.069 -32.539   8.223  0.00  0.00    -0.321 N 
ATOM      7  H   LIG    1       24.072 -33.335   7.588  0.00  0.00    +0.152 HD
ATOM      8  C   LIG    1       22.938 -32.364   9.007  0.00  0.00    +0.016 C 
ATOM      9  C   LIG    1       21.877 -33.422   8.847  0.00  0.00    +0.061 C 
ENDROOT
BRANCH   2  10
ATOM     10  C   LIG    1       24.549 -30.221  11.333  0.00  0.00    -0.029 A 
ATOM     11  C   LIG    1       24.462 -29.068  12.131  0.00  0.00    +0.088 A 
ATOM     12  C   LIG    1       25.016 -29.084  13.421  0.00  0.00    +0.273 A 
ATOM     13  C   LIG    1       25.647 -30.212  13.949  0.00  0.00    +0.084 A 
ATOM     14  C   LIG    1       25.739 -31.353  13.161  0.00  0.00    +0.007 A 
ATOM     15  C   LIG    1       25.205 -31.354  11.867  0.00  0.00    +0.005 A 
BRANCH  12  16
ATOM     16  N   LIG    1       24.954 -27.893  14.246  0.00  0.00    +0.080 N 
ATOM     17  O   LIG    1       23.895 -27.679  14.850  0.00  0.00    -0.576 OA
ATOM     18  O   LIG    1       25.957 -27.166  14.264  0.00  0.00    +0.041 OA
ENDBRANCH  12  16
ENDBRANCH   2  10
BRANCH   1  19
ATOM     19  C   LIG    1       21.607 -30.971  10.596  0.00  0.00    +0.337 C 
ATOM     20  O   LIG    1       20.609 -30.413  10.163  0.00  0.00    -0.245 OA
BRANCH  19  22
ATOM     21  C   LIG    1       21.326 -32.595  12.327  0.00  0.00    +0.280 C 
ATOM     22  O   LIG    1       21.819 -31.328  11.887  0.00  0.00    -0.465 OA
ENDBRANCH  19  22
ENDBRANCH   1  19
BRANCH   3  23
ATOM     23  C   LIG    1       26.043 -29.357   8.722  0.00  0.00    +0.338 C 
ATOM     24  O   LIG    1       27.204 -29.506   9.017  0.00  0.00    -0.245 OA
BRANCH  23  25
ATOM     25  O   LIG    1       25.518 -28.211   8.226  0.00  0.00    -0.457 OA
BRANCH  25  26
ATOM     26  C   LIG    1       25.034 -28.299   6.868  0.00  0.00    +0.191 C 
ATOM     27  C   LIG    1       24.041 -27.150   6.582  0.00  0.00    +0.129 C 
ATOM     28  N   LIG    1       24.669 -25.820   6.477  0.00  0.00    -0.295 NA
ATOM     29  C   LIG    1       25.761 -25.806   5.485  0.00  0.00    +0.085 C 
ATOM     30  C   LIG    1       26.805 -26.894   5.762  0.00  0.00    +0.019 C 
ATOM     31  C   LIG    1       26.165 -28.274   5.846  0.00  0.00    +0.047 C 
BRANCH  28  32
ATOM     32  C   LIG    1       23.699 -24.733   6.220  0.00  0.00    +0.119 C 
BRANCH  32  33
ATOM     33  C   LIG    1       24.097 -23.365   6.760  0.00  0.00    -0.033 A 
ATOM     34  C   LIG    1       25.341 -23.140   7.377  0.00  0.00    +0.005 A 
ATOM     35  C   LIG    1       25.678 -21.875   7.873  0.00  0.00    +0.000 A 
ATOM     36  C   LIG    1       24.786 -20.813   7.745  0.00  0.00    +0.000 A 
ATOM     37  C   LIG    1       23.563 -21.014   7.109  0.00  0.00    +0.000 A 
ATOM     38  C   LIG    1       23.221 -22.279   6.619  0.00  0.00    +0.005 A 
ENDBRANCH  32  33
ENDBRANCH  28  32
ENDBRANCH  25  26
ENDBRANCH  23  25
ENDBRANCH   3  23
TORSDOF 9
ENDMDL
MODEL 9
REMARK VINA RESULT:      -5.7      2.234      3.484
REMARK  Name = *****
REMARK                            x       y       z     vdW  Elec       q    Type
REMARK                         _______ _______ _______ _____ _____    ______ ____
ROOT
ATOM      1  C   LIG    1       23.435 -31.447  11.250  0.00  0.00    +0.065 C 
ATOM      2  C   LIG    1       24.636 -30.578  10.864  0.00  0.00    +0.096 C 
ATOM      3  C   LIG    1       25.628 -31.295   9.929  0.00  0.00    +0.065 C 
ATOM      4  C   LIG    1       25.517 -32.616   9.681  0.00  0.00    +0.016 C 
ATOM      5  C   LIG    1       26.405 -33.405   8.750  0.00  0.00    +0.061 C 
ATOM      6  N   LIG    1       24.491 -33.336  10.279  0.00  0.00    -0.321 N 
ATOM      7  H   LIG    1       24.412 -34.320  10.031  0.00  0.00    +0.152 HD
ATOM      8  C   LIG    1       23.426 -32.771  10.965  0.00  0.00    +0.016 C 
ATOM      9  C   LIG    1       22.304 -33.720  11.300  0.00  0.00    +0.061 C 
ENDROOT
BRANCH   2  10
ATOM     10  C   LIG    1       25.296 -29.988  12.129  0.00  0.00    -0.029 A 
ATOM     11  C   LIG    1       26.061 -30.774  13.007  0.00  0.00    +0.088 A 
ATOM     12  C   LIG    1       26.614 -30.180  14.153  0.00  0.00    +0.273 A 
ATOM     13  C   LIG    1       26.439 -28.827  14.452  0.00  0.00    +0.084 A 
ATOM     14  C   LIG    1       25.678 -28.048  13.589  0.00  0.00    +0.007 A 
ATOM     15  C   LIG    1       25.107 -28.624  12.447  0.00  0.00    +0.005 A 
BRANCH  12  16
ATOM     16  N   LIG    1       27.386 -30.986  15.079  0.00  0.00    +0.080 N 
ATOM     17  O   LIG    1       26.860 -32.024  15.500  0.00  0.00    -0.576 OA
ATOM     18  O   LIG    1       28.505 -30.560  15.399  0.00  0.00    +0.041 OA
ENDBRANCH  12  16
ENDBRANCH   2  10
BRANCH   1  19
ATOM     19  C   LIG    1       22.278 -30.755  11.887  0.00  0.00    +0.337 C 
ATOM     20  O   LIG    1       21.312 -30.294  11.295  0.00  0.00    -0.245 OA
BRANCH  19  22
ATOM     21  C   LIG    1       22.011 -31.653  14.087  0.00  0.00    +0.280 C 
ATOM     22  O   LIG    1       22.522 -30.639  13.217  0.00  0.00    -0.465 OA
ENDBRANCH  19  22
ENDBRANCH   1  19
BRANCH   3  23
ATOM     23  C   LIG    1       26.653 -30.385   9.336  0.00  0.00    +0.338 C 
ATOM     24  O   LIG    1       27.693 -30.153   9.904  0.00  0.00    -0.245 OA
BRANCH  23  25
ATOM     25  O   LIG    1       26.329 -29.914   8.108  0.00  0.00    -0.457 OA
BRANCH  25  26
ATOM     26  C   LIG    1       25.159 -29.068   8.068  0.00  0.00    +0.191 C 
ATOM     27  C   LIG    1       25.529 -27.676   7.508  0.00  0.00    +0.129 C 
ATOM     28  N   LIG    1       25.825 -27.664   6.063  0.00  0.00    -0.295 NA
ATOM     29  C   LIG    1       24.727 -28.254   5.274  0.00  0.00    +0.085 C 
ATOM     30  C   LIG    1       24.363 -29.663   5.756  0.00  0.00    +0.019 C 
ATOM     31  C   LIG    1       24.031 -29.677   7.243  0.00  0.00    +0.047 C 
BRANCH  28  32
ATOM     32  C   LIG    1       26.192 -26.325   5.552  0.00  0.00    +0.119 C 
BRANCH  32  33
ATOM     33  C   LIG    1       25.387 -25.167   6.127  0.00  0.00    -0.033 A 
ATOM     34  C   LIG    1       23.982 -25.123   6.047  0.00  0.00    +0.005 A 
ATOM     35  C   LIG    1       23.267 -24.042   6.576  0.00  0.00    +0.000 A 
ATOM     36  C   LIG    1       23.941 -22.998   7.207  0.00  0.00    +0.000 A 
ATOM     37  C   LIG    1       25.329 -23.043   7.319  0.00  0.00    +0.000 A 
ATOM     38  C   LIG    1       26.046 -24.119   6.785  0.00  0.00    +0.005 A 
ENDBRANCH  32  33
ENDBRANCH  28  32
ENDBRANCH  25  26
ENDBRANCH  23  25
ENDBRANCH   3  23
TORSDOF 9
ENDMDL
