MODEL 1
REMARK VINA RESULT:      -1.0      0.000      0.000
REMARK  Name = *****
REMARK                            x       y       z     vdW  Elec       q    Type
REMARK                         _______ _______ _______ _____ _____    ______ ____
ROOT
ATOM      1  C   LIG    1       25.510 -16.713   3.861  0.00  0.00    +0.009 C 
ATOM      2  C   LIG    1       26.181 -17.873   3.934  0.00  0.00    +0.004 C 
ENDROOT
BRANCH   1   8
ATOM      3  C   LIG    1       27.556 -13.021   3.181  0.00  0.00    +0.123 A 
ATOM      4  C   LIG    1       26.182 -13.107   2.886  0.00  0.00    -0.005 A 
ATOM      5  C   LIG    1       25.500 -11.948   2.198  0.00  0.00    +0.048 C 
ATOM      6  C   LIG    1       25.462 -14.278   3.233  0.00  0.00    -0.037 A 
ATOM      7  C   LIG    1       23.962 -14.319   3.065  0.00  0.00    +0.045 C 
ATOM      8  C   LIG    1       26.174 -15.412   3.693  0.00  0.00    -0.019 A 
ATOM      9  C   LIG    1       27.561 -15.334   3.934  0.00  0.00    -0.040 A 
ATOM     10  C   LIG    1       28.369 -16.516   4.410  0.00  0.00    +0.044 C 
ATOM     11  C   LIG    1       28.223 -14.122   3.718  0.00  0.00    +0.049 A 
BRANCH   3  13
ATOM     12  C   LIG    1       29.258 -11.499   3.816  0.00  0.00    +0.277 C 
ATOM     13  O   LIG    1       28.163 -11.811   2.960  0.00  0.00    -0.495 OA
ENDBRANCH   3  13
ENDBRANCH   1   8
BRANCH   2  14
ATOM     14  C   LIG    1       25.591 -19.215   3.986  0.00  0.00    -0.050 C 
ATOM     15  C   LIG    1       24.631 -19.611   3.125  0.00  0.00    +0.003 C 
ATOM     16  C   LIG    1       26.201 -20.080   5.064  0.00  0.00    +0.044 C 
BRANCH  15  17
ATOM     17  C   LIG    1       23.971 -20.897   3.065  0.00  0.00    +0.001 C 
ATOM     18  C   LIG    1       23.063 -21.367   3.937  0.00  0.00    +0.003 C 
BRANCH  18  19
ATOM     19  C   LIG    1       22.528 -20.733   5.132  0.00  0.00    -0.044 C 
ATOM     20  C   LIG    1       21.896 -19.547   5.236  0.00  0.00    +0.094 C 
ATOM     21  C   LIG    1       22.707 -21.571   6.378  0.00  0.00    +0.044 C 
BRANCH  20  22
ATOM     22  C   LIG    1       21.537 -18.492   4.264  0.00  0.00    +0.330 C 
ATOM     23  O   LIG    1       20.613 -18.645   3.487  0.00  0.00    -0.246 OA
BRANCH  22  24
ATOM     24  O   LIG    1       22.335 -17.413   4.242  0.00  0.00    -0.477 OA
ATOM     25  H   LIG    1       23.091 -17.475   4.850  0.00  0.00    +0.295 HD
ENDBRANCH  22  24
ENDBRANCH  20  22
ENDBRANCH  18  19
ENDBRANCH  15  17
ENDBRANCH   2  14
TORSDOF 7
ENDMDL
MODEL 2
REMARK VINA RESULT:      -0.7      1.746      3.309
REMARK  Name = *****
REMARK                            x       y       z     vdW  Elec       q    Type
REMARK                         _______ _______ _______ _____ _____    ______ ____
ROOT
ATOM      1  C   LIG    1       24.457 -15.408   3.441  0.00  0.00    +0.009 C 
ATOM      2  C   LIG    1       23.692 -15.496   4.540  0.00  0.00    +0.004 C 
ENDROOT
BRANCH   1   8
ATOM      3  C   LIG    1       27.606 -12.523   3.263  0.00  0.00    +0.123 A 
ATOM      4  C   LIG    1       27.912 -13.848   3.629  0.00  0.00    -0.005 A 
ATOM      5  C   LIG    1       29.308 -14.183   4.095  0.00  0.00    +0.048 C 
ATOM      6  C   LIG    1       26.905 -14.844   3.560  0.00  0.00    -0.037 A 
ATOM      7  C   LIG    1       27.259 -16.293   3.798  0.00  0.00    +0.045 C 
ATOM      8  C   LIG    1       25.567 -14.454   3.310  0.00  0.00    -0.019 A 
ATOM      9  C   LIG    1       25.261 -13.113   2.999  0.00  0.00    -0.040 A 
ATOM     10  C   LIG    1       23.851 -12.642   2.740  0.00  0.00    +0.044 C 
ATOM     11  C   LIG    1       26.297 -12.175   2.933  0.00  0.00    +0.049 A 
BRANCH   3  13
ATOM     12  C   LIG    1       29.376 -11.450   4.419  0.00  0.00    +0.277 C 
ATOM     13  O   LIG    1       28.654 -11.639   3.206  0.00  0.00    -0.495 OA
ENDBRANCH   3  13
ENDBRANCH   1   8
BRANCH   2  14
ATOM     14  C   LIG    1       22.646 -16.493   4.792  0.00  0.00    -0.050 C 
ATOM     15  C   LIG    1       22.709 -17.744   4.291  0.00  0.00    +0.003 C 
ATOM     16  C   LIG    1       21.545 -15.970   5.686  0.00  0.00    +0.044 C 
BRANCH  15  17
ATOM     17  C   LIG    1       21.755 -18.816   4.463  0.00  0.00    +0.001 C 
ATOM     18  C   LIG    1       21.990 -20.006   5.042  0.00  0.00    +0.003 C 
BRANCH  18  19
ATOM     19  C   LIG    1       23.224 -20.513   5.621  0.00  0.00    -0.044 C 
ATOM     20  C   LIG    1       24.439 -20.607   5.045  0.00  0.00    +0.094 C 
ATOM     21  C   LIG    1       23.068 -20.947   7.062  0.00  0.00    +0.044 C 
BRANCH  20  22
ATOM     22  C   LIG    1       24.961 -20.278   3.701  0.00  0.00    +0.330 C 
ATOM     23  O   LIG    1       24.421 -20.708   2.698  0.00  0.00    -0.246 OA
BRANCH  22  24
ATOM     24  O   LIG    1       26.093 -19.560   3.668  0.00  0.00    -0.477 OA
ATOM     25  H   LIG    1       26.062 -18.756   4.214  0.00  0.00    +0.295 HD
ENDBRANCH  22  24
ENDBRANCH  20  22
ENDBRANCH  18  19
ENDBRANCH  15  17
ENDBRANCH   2  14
TORSDOF 7
ENDMDL
MODEL 3
REMARK VINA RESULT:       0.9      1.902      2.300
REMARK  Name = *****
REMARK                            x       y       z     vdW  Elec       q    Type
REMARK                         _______ _______ _______ _____ _____    ______ ____
ROOT
ATOM      1  C   LIG    1       25.360 -16.782   3.766  0.00  0.00    +0.009 C 
ATOM      2  C   LIG    1       25.861 -17.931   3.288  0.00  0.00    +0.004 C 
ENDROOT
BRANCH   1   8
ATOM      3  C   LIG    1       27.640 -13.173   3.530  0.00  0.00    +0.123 A 
ATOM      4  C   LIG    1       26.262 -13.132   3.243  0.00  0.00    -0.005 A 
ATOM      5  C   LIG    1       25.655 -11.855   2.715  0.00  0.00    +0.048 C 
ATOM      6  C   LIG    1       25.469 -14.289   3.449  0.00  0.00    -0.037 A 
ATOM      7  C   LIG    1       23.968 -14.212   3.295  0.00  0.00    +0.045 C 
ATOM      8  C   LIG    1       26.107 -15.516   3.755  0.00  0.00    -0.019 A 
ATOM      9  C   LIG    1       27.497 -15.558   3.987  0.00  0.00    -0.040 A 
ATOM     10  C   LIG    1       28.228 -16.840   4.300  0.00  0.00    +0.044 C 
ATOM     11  C   LIG    1       28.236 -14.373   3.917  0.00  0.00    +0.049 A 
BRANCH   3  13
ATOM     12  C   LIG    1       29.232 -11.724   4.521  0.00  0.00    +0.277 C 
ATOM     13  O   LIG    1       28.324 -11.986   3.455  0.00  0.00    -0.495 OA
ENDBRANCH   3  13
ENDBRANCH   1   8
BRANCH   2  14
ATOM     14  C   LIG    1       25.143 -19.204   3.159  0.00  0.00    -0.050 C 
ATOM     15  C   LIG    1       23.929 -19.403   3.712  0.00  0.00    +0.003 C 
ATOM     16  C   LIG    1       25.893 -20.215   2.323  0.00  0.00    +0.044 C 
BRANCH  15  17
ATOM     17  C   LIG    1       23.117 -20.598   3.659  0.00  0.00    +0.001 C 
ATOM     18  C   LIG    1       22.835 -21.415   4.687  0.00  0.00    +0.003 C 
BRANCH  18  19
ATOM     19  C   LIG    1       23.262 -21.321   6.074  0.00  0.00    -0.044 C 
ATOM     20  C   LIG    1       24.488 -21.022   6.551  0.00  0.00    +0.094 C 
ATOM     21  C   LIG    1       22.142 -21.572   7.059  0.00  0.00    +0.044 C 
BRANCH  20  22
ATOM     22  C   LIG    1       25.785 -20.712   5.913  0.00  0.00    +0.330 C 
ATOM     23  O   LIG    1       26.391 -19.693   6.190  0.00  0.00    -0.246 OA
BRANCH  22  24
ATOM     24  O   LIG    1       26.198 -21.571   4.969  0.00  0.00    -0.477 OA
ATOM     25  H   LIG    1       25.574 -21.669   4.231  0.00  0.00    +0.295 HD
ENDBRANCH  22  24
ENDBRANCH  20  22
ENDBRANCH  18  19
ENDBRANCH  15  17
ENDBRANCH   2  14
TORSDOF 7
ENDMDL
MODEL 4
REMARK VINA RESULT:       1.3      1.840      8.020
REMARK  Name = *****
REMARK                            x       y       z     vdW  Elec       q    Type
REMARK                         _______ _______ _______ _____ _____    ______ ____
ROOT
ATOM      1  C   LIG    1       24.336 -16.484   3.945  0.00  0.00    +0.009 C 
ATOM      2  C   LIG    1       23.765 -15.335   4.339  0.00  0.00    +0.004 C 
ENDROOT
BRANCH   1   8
ATOM      3  C   LIG    1       22.450 -20.286   4.454  0.00  0.00    +0.123 A 
ATOM      4  C   LIG    1       23.787 -20.239   4.015  0.00  0.00    -0.005 A 
ATOM      5  C   LIG    1       24.471 -21.516   3.591  0.00  0.00    +0.048 C 
ATOM      6  C   LIG    1       24.467 -18.995   3.973  0.00  0.00    -0.037 A 
ATOM      7  C   LIG    1       25.943 -18.953   3.655  0.00  0.00    +0.045 C 
ATOM      8  C   LIG    1       23.735 -17.802   4.188  0.00  0.00    -0.019 A 
ATOM      9  C   LIG    1       22.379 -17.858   4.574  0.00  0.00    -0.040 A 
ATOM     10  C   LIG    1       21.550 -16.618   4.800  0.00  0.00    +0.044 C 
ATOM     11  C   LIG    1       21.770 -19.105   4.748  0.00  0.00    +0.049 A 
BRANCH   3  13
ATOM     12  C   LIG    1       20.477 -21.567   4.747  0.00  0.00    +0.277 C 
ATOM     13  O   LIG    1       21.895 -21.531   4.617  0.00  0.00    -0.495 OA
ENDBRANCH   3  13
ENDBRANCH   1   8
BRANCH   2  14
ATOM     14  C   LIG    1       24.242 -13.981   4.036  0.00  0.00    -0.050 C 
ATOM     15  C   LIG    1       25.137 -13.342   4.817  0.00  0.00    +0.003 C 
ATOM     16  C   LIG    1       23.651 -13.427   2.760  0.00  0.00    +0.044 C 
BRANCH  15  17
ATOM     17  C   LIG    1       25.687 -12.018   4.633  0.00  0.00    +0.001 C 
ATOM     18  C   LIG    1       26.986 -11.710   4.484  0.00  0.00    +0.003 C 
BRANCH  18  19
ATOM     19  C   LIG    1       28.142 -12.594   4.476  0.00  0.00    -0.044 C 
ATOM     20  C   LIG    1       28.286 -13.772   3.837  0.00  0.00    +0.094 C 
ATOM     21  C   LIG    1       29.305 -12.055   5.278  0.00  0.00    +0.044 C 
BRANCH  20  22
ATOM     22  C   LIG    1       27.399 -14.583   2.976  0.00  0.00    +0.330 C 
ATOM     23  O   LIG    1       27.155 -15.744   3.246  0.00  0.00    -0.246 OA
BRANCH  22  24
ATOM     24  O   LIG    1       26.960 -13.988   1.856  0.00  0.00    -0.477 OA
ATOM     25  H   LIG    1       27.203 -13.050   1.791  0.00  0.00    +0.295 HD
ENDBRANCH  22  24
ENDBRANCH  20  22
ENDBRANCH  18  19
ENDBRANCH  15  17
ENDBRANCH   2  14
TORSDOF 7
ENDMDL
MODEL 5
REMARK VINA RESULT:       1.4      1.945      8.020
REMARK  Name = *****
REMARK                            x       y       z     vdW  Elec       q    Type
REMARK                         _______ _______ _______ _____ _____    ______ ____
ROOT
ATOM      1  C   LIG    1       24.490 -16.539   3.821  0.00  0.00    +0.009 C 
ATOM      2  C   LIG    1       23.855 -15.376   4.036  0.00  0.00    +0.004 C 
ENDROOT
BRANCH   1   8
ATOM      3  C   LIG    1       22.564 -20.308   4.416  0.00  0.00    +0.123 A 
ATOM      4  C   LIG    1       23.868 -20.282   3.886  0.00  0.00    -0.005 A 
ATOM      5  C   LIG    1       24.495 -21.567   3.402  0.00  0.00    +0.048 C 
ATOM      6  C   LIG    1       24.570 -19.052   3.812  0.00  0.00    -0.037 A 
ATOM      7  C   LIG    1       26.021 -19.036   3.394  0.00  0.00    +0.045 C 
ATOM      8  C   LIG    1       23.879 -17.848   4.090  0.00  0.00    -0.019 A 
ATOM      9  C   LIG    1       22.553 -17.880   4.568  0.00  0.00    -0.040 A 
ATOM     10  C   LIG    1       21.767 -16.627   4.865  0.00  0.00    +0.044 C 
ATOM     11  C   LIG    1       21.931 -19.117   4.769  0.00  0.00    +0.049 A 
BRANCH   3  13
ATOM     12  C   LIG    1       20.586 -21.554   4.809  0.00  0.00    +0.277 C 
ATOM     13  O   LIG    1       21.995 -21.543   4.602  0.00  0.00    -0.495 OA
ENDBRANCH   3  13
ENDBRANCH   1   8
BRANCH   2  14
ATOM     14  C   LIG    1       24.350 -14.040   3.688  0.00  0.00    -0.050 C 
ATOM     15  C   LIG    1       25.387 -13.854   2.846  0.00  0.00    +0.003 C 
ATOM     16  C   LIG    1       23.553 -12.934   4.341  0.00  0.00    +0.044 C 
BRANCH  15  17
ATOM     17  C   LIG    1       25.968 -12.600   2.420  0.00  0.00    +0.001 C 
ATOM     18  C   LIG    1       27.145 -12.092   2.821  0.00  0.00    +0.003 C 
BRANCH  18  19
ATOM     19  C   LIG    1       28.108 -12.644   3.761  0.00  0.00    -0.044 C 
ATOM     20  C   LIG    1       27.910 -12.991   5.049  0.00  0.00    +0.094 C 
ATOM     21  C   LIG    1       29.475 -12.861   3.152  0.00  0.00    +0.044 C 
BRANCH  20  22
ATOM     22  C   LIG    1       26.743 -12.939   5.955  0.00  0.00    +0.330 C 
ATOM     23  O   LIG    1       26.524 -13.838   6.745  0.00  0.00    -0.246 OA
BRANCH  22  24
ATOM     24  O   LIG    1       25.915 -11.897   5.790  0.00  0.00    -0.477 OA
ATOM     25  H   LIG    1       25.096 -11.962   6.310  0.00  0.00    +0.295 HD
ENDBRANCH  22  24
ENDBRANCH  20  22
ENDBRANCH  18  19
ENDBRANCH  15  17
ENDBRANCH   2  14
TORSDOF 7
ENDMDL
MODEL 6
REMARK VINA RESULT:       1.5      1.610      2.619
REMARK  Name = *****
REMARK                            x       y       z     vdW  Elec       q    Type
REMARK                         _______ _______ _______ _____ _____    ______ ____
ROOT
ATOM      1  C   LIG    1       24.125 -16.014   3.652  0.00  0.00    +0.009 C 
ATOM      2  C   LIG    1       23.208 -15.936   4.628  0.00  0.00    +0.004 C 
ENDROOT
BRANCH   1   8
ATOM      3  C   LIG    1       27.135 -13.111   2.767  0.00  0.00    +0.123 A 
ATOM      4  C   LIG    1       25.782 -12.776   2.570  0.00  0.00    -0.005 A 
ATOM      5  C   LIG    1       25.434 -11.462   1.911  0.00  0.00    +0.048 C 
ATOM      6  C   LIG    1       24.769 -13.676   2.987  0.00  0.00    -0.037 A 
ATOM      7  C   LIG    1       23.318 -13.261   2.924  0.00  0.00    +0.045 C 
ATOM      8  C   LIG    1       25.136 -14.975   3.416  0.00  0.00    -0.019 A 
ATOM      9  C   LIG    1       26.496 -15.321   3.558  0.00  0.00    -0.040 A 
ATOM     10  C   LIG    1       26.941 -16.694   3.997  0.00  0.00    +0.044 C 
ATOM     11  C   LIG    1       27.476 -14.364   3.276  0.00  0.00    +0.049 A 
BRANCH   3  13
ATOM     12  C   LIG    1       29.386 -12.390   2.944  0.00  0.00    +0.277 C 
ATOM     13  O   LIG    1       28.062 -12.140   2.483  0.00  0.00    -0.495 OA
ENDBRANCH   3  13
ENDBRANCH   1   8
BRANCH   2  14
ATOM     14  C   LIG    1       22.244 -16.978   4.999  0.00  0.00    -0.050 C 
ATOM     15  C   LIG    1       22.159 -18.148   4.334  0.00  0.00    +0.003 C 
ATOM     16  C   LIG    1       21.413 -16.601   6.204  0.00  0.00    +0.044 C 
BRANCH  15  17
ATOM     17  C   LIG    1       21.262 -19.252   4.595  0.00  0.00    +0.001 C 
ATOM     18  C   LIG    1       21.596 -20.438   5.132  0.00  0.00    +0.003 C 
BRANCH  18  19
ATOM     19  C   LIG    1       22.900 -20.911   5.568  0.00  0.00    -0.044 C 
ATOM     20  C   LIG    1       24.083 -20.804   4.930  0.00  0.00    +0.094 C 
ATOM     21  C   LIG    1       22.867 -21.570   6.929  0.00  0.00    +0.044 C 
BRANCH  20  22
ATOM     22  C   LIG    1       24.495 -20.228   3.632  0.00  0.00    +0.330 C 
ATOM     23  O   LIG    1       25.294 -19.312   3.579  0.00  0.00    -0.246 OA
BRANCH  22  24
ATOM     24  O   LIG    1       23.878 -20.719   2.546  0.00  0.00    -0.477 OA
ATOM     25  H   LIG    1       22.967 -20.399   2.437  0.00  0.00    +0.295 HD
ENDBRANCH  22  24
ENDBRANCH  20  22
ENDBRANCH  18  19
ENDBRANCH  15  17
ENDBRANCH   2  14
TORSDOF 7
ENDMDL
