MODEL 1
REMARK VINA RESULT:      -8.3      0.000      0.000
REMARK  Name = *****
REMARK                            x       y       z     vdW  Elec       q    Type
REMARK                         _______ _______ _______ _____ _____    ______ ____
ROOT
ATOM      1  C   LIG    1       25.841 -20.435   6.048  0.00  0.00    +0.185 C 
ATOM      2  C   LIG    1       24.456 -21.118   5.952  0.00  0.00    +0.063 C 
ATOM      3  C   LIG    1       23.543 -20.256   5.076  0.00  0.00    -0.044 C 
ATOM      4  C   LIG    1       22.147 -20.627   5.092  0.00  0.00    -0.000 C 
ATOM      5  C   LIG    1       21.771 -21.866   5.441  0.00  0.00    -0.023 C 
ATOM      6  C   LIG    1       22.744 -22.971   5.812  0.00  0.00    +0.012 C 
ATOM      7  C   LIG    1       22.520 -23.321   7.292  0.00  0.00    +0.012 C 
ATOM      8  C   LIG    1       23.999 -19.266   4.286  0.00  0.00    -0.020 C 
ATOM      9  C   LIG    1       25.467 -18.942   4.107  0.00  0.00    +0.012 C 
ATOM     10  C   LIG    1       25.789 -18.635   2.645  0.00  0.00    +0.012 C 
ATOM     11  C   LIG    1       24.240 -22.593   5.461  0.00  0.00    +0.007 C 
ATOM     12  C   LIG    1       26.373 -20.060   4.665  0.00  0.00    +0.052 C 
ENDROOT
BRANCH   1  13
ATOM     13  O   LIG    1       26.746 -21.197   6.846  0.00  0.00    -0.460 OA
BRANCH  13  14
ATOM     14  C   LIG    1       27.282 -20.549   7.924  0.00  0.00    +0.313 C 
ATOM     15  O   LIG    1       26.688 -20.334   8.980  0.00  0.00    -0.250 OA
BRANCH  14  16
ATOM     16  C   LIG    1       28.781 -20.284   7.708  0.00  0.00    +0.062 C 
ATOM     17  C   LIG    1       29.220 -19.057   8.531  0.00  0.00    +0.022 C 
ATOM     18  C   LIG    1       29.600 -21.490   8.198  0.00  0.00    +0.022 C 
BRANCH  16  20
ATOM     19  C   LIG    1       29.549 -18.603   5.876  0.00  0.00    +0.005 C 
ATOM     20  C   LIG    1       29.034 -20.004   6.202  0.00  0.00    +0.014 C 
ENDBRANCH  16  20
ENDBRANCH  14  16
ENDBRANCH  13  14
ENDBRANCH   1  13
BRANCH  11  21
ATOM     21  C   LIG    1       25.240 -23.684   5.920  0.00  0.00    +0.008 C 
BRANCH  21  22
ATOM     22  C   LIG    1       24.546 -25.040   6.225  0.00  0.00    +0.045 C 
BRANCH  22  23
ATOM     23  C   LIG    1       25.464 -26.265   6.044  0.00  0.00    +0.179 C 
ATOM     24  O   LIG    1       25.943 -26.670   7.344  0.00  0.00    -0.461 OA
ATOM     25  C   LIG    1       25.938 -27.935   7.814  0.00  0.00    +0.310 C 
ATOM     26  O   LIG    1       26.641 -28.246   8.772  0.00  0.00    -0.251 OA
ATOM     27  C   LIG    1       25.065 -28.946   7.135  0.00  0.00    +0.152 C 
ATOM     28  C   LIG    1       24.052 -28.326   6.200  0.00  0.00    +0.129 C 
ATOM     29  C   LIG    1       24.770 -27.378   5.262  0.00  0.00    +0.076 C 
BRANCH  28  30
ATOM     30  O   LIG    1       23.435 -29.366   5.444  0.00  0.00    -0.391 OA
ATOM     31  H   LIG    1       23.567 -29.180   4.499  0.00  0.00    +0.210 HD
ENDBRANCH  28  30
ENDBRANCH  22  23
ENDBRANCH  21  22
ENDBRANCH  11  21
TORSDOF 8
ENDMDL
MODEL 2
REMARK VINA RESULT:      -8.1      1.045      1.531
REMARK  Name = *****
REMARK                            x       y       z     vdW  Elec       q    Type
REMARK                         _______ _______ _______ _____ _____    ______ ____
ROOT
ATOM      1  C   LIG    1       25.857 -20.238   5.886  0.00  0.00    +0.185 C 
ATOM      2  C   LIG    1       24.416 -20.797   5.819  0.00  0.00    +0.063 C 
ATOM      3  C   LIG    1       23.567 -19.861   4.954  0.00  0.00    -0.044 C 
ATOM      4  C   LIG    1       22.143 -20.107   4.998  0.00  0.00    -0.000 C 
ATOM      5  C   LIG    1       21.666 -21.308   5.359  0.00  0.00    -0.023 C 
ATOM      6  C   LIG    1       22.545 -22.492   5.719  0.00  0.00    +0.012 C 
ATOM      7  C   LIG    1       22.318 -22.817   7.204  0.00  0.00    +0.012 C 
ATOM      8  C   LIG    1       24.093 -18.918   4.151  0.00  0.00    -0.020 C 
ATOM      9  C   LIG    1       25.580 -18.724   3.945  0.00  0.00    +0.012 C 
ATOM     10  C   LIG    1       25.901 -18.452   2.476  0.00  0.00    +0.012 C 
ATOM     11  C   LIG    1       24.062 -22.249   5.339  0.00  0.00    +0.007 C 
ATOM     12  C   LIG    1       26.395 -19.916   4.492  0.00  0.00    +0.052 C 
ENDROOT
BRANCH   1  13
ATOM     13  O   LIG    1       26.706 -21.074   6.672  0.00  0.00    -0.460 OA
BRANCH  13  14
ATOM     14  C   LIG    1       27.228 -20.503   7.800  0.00  0.00    +0.313 C 
ATOM     15  O   LIG    1       26.604 -20.313   8.843  0.00  0.00    -0.250 OA
BRANCH  14  16
ATOM     16  C   LIG    1       28.743 -20.294   7.651  0.00  0.00    +0.062 C 
ATOM     17  C   LIG    1       29.195 -19.096   8.509  0.00  0.00    +0.022 C 
ATOM     18  C   LIG    1       29.494 -21.538   8.158  0.00  0.00    +0.022 C 
BRANCH  16  20
ATOM     19  C   LIG    1       29.529 -18.580   5.857  0.00  0.00    +0.005 C 
ATOM     20  C   LIG    1       29.072 -20.005   6.161  0.00  0.00    +0.014 C 
ENDBRANCH  16  20
ENDBRANCH  14  16
ENDBRANCH  13  14
ENDBRANCH   1  13
BRANCH  11  21
ATOM     21  C   LIG    1       24.971 -23.422   5.786  0.00  0.00    +0.008 C 
BRANCH  21  22
ATOM     22  C   LIG    1       24.329 -24.811   5.516  0.00  0.00    +0.045 C 
BRANCH  22  23
ATOM     23  C   LIG    1       24.932 -25.951   6.360  0.00  0.00    +0.179 C 
ATOM     24  O   LIG    1       24.069 -27.103   6.251  0.00  0.00    -0.461 OA
ATOM     25  C   LIG    1       24.482 -28.361   5.987  0.00  0.00    +0.310 C 
ATOM     26  O   LIG    1       23.751 -29.319   6.226  0.00  0.00    -0.251 OA
ATOM     27  C   LIG    1       25.849 -28.557   5.407  0.00  0.00    +0.152 C 
ATOM     28  C   LIG    1       26.467 -27.276   4.892  0.00  0.00    +0.129 C 
ATOM     29  C   LIG    1       26.385 -26.224   5.979  0.00  0.00    +0.076 C 
BRANCH  28  30
ATOM     30  O   LIG    1       27.835 -27.527   4.574  0.00  0.00    -0.391 OA
ATOM     31  H   LIG    1       27.873 -27.984   3.717  0.00  0.00    +0.210 HD
ENDBRANCH  28  30
ENDBRANCH  22  23
ENDBRANCH  21  22
ENDBRANCH  11  21
TORSDOF 8
ENDMDL
MODEL 3
REMARK VINA RESULT:      -7.9      4.942      9.881
REMARK  Name = *****
REMARK                            x       y       z     vdW  Elec       q    Type
REMARK                         _______ _______ _______ _____ _____    ______ ____
ROOT
ATOM      1  C   LIG    1       24.169 -31.280  10.181  0.00  0.00    +0.185 C 
ATOM      2  C   LIG    1       23.927 -32.087   8.883  0.00  0.00    +0.063 C 
ATOM      3  C   LIG    1       22.595 -32.832   9.011  0.00  0.00    -0.044 C 
ATOM      4  C   LIG    1       22.346 -33.824   7.989  0.00  0.00    -0.000 C 
ATOM      5  C   LIG    1       22.970 -33.759   6.804  0.00  0.00    -0.023 C 
ATOM      6  C   LIG    1       23.945 -32.660   6.422  0.00  0.00    +0.012 C 
ATOM      7  C   LIG    1       25.333 -33.298   6.246  0.00  0.00    +0.012 C 
ATOM      8  C   LIG    1       21.679 -32.550   9.955  0.00  0.00    -0.020 C 
ATOM      9  C   LIG    1       21.817 -31.415  10.948  0.00  0.00    +0.012 C 
ATOM     10  C   LIG    1       20.488 -30.687  11.140  0.00  0.00    +0.012 C 
ATOM     11  C   LIG    1       23.918 -31.454   7.447  0.00  0.00    +0.007 C 
ATOM     12  C   LIG    1       22.946 -30.440  10.550  0.00  0.00    +0.052 C 
ENDROOT
BRANCH   1  13
ATOM     13  O   LIG    1       25.394 -30.551  10.122  0.00  0.00    -0.460 OA
BRANCH  13  14
ATOM     14  C   LIG    1       26.068 -30.420  11.305  0.00  0.00    +0.313 C 
ATOM     15  O   LIG    1       26.165 -31.301  12.159  0.00  0.00    -0.250 OA
BRANCH  14  16
ATOM     16  C   LIG    1       26.838 -29.090  11.346  0.00  0.00    +0.062 C 
ATOM     17  C   LIG    1       28.344 -29.362  11.536  0.00  0.00    +0.022 C 
ATOM     18  C   LIG    1       26.665 -28.345  10.011  0.00  0.00    +0.022 C 
BRANCH  16  20
ATOM     19  C   LIG    1       24.800 -28.164  12.674  0.00  0.00    +0.005 C 
ATOM     20  C   LIG    1       26.320 -28.241  12.538  0.00  0.00    +0.014 C 
ENDBRANCH  16  20
ENDBRANCH  14  16
ENDBRANCH  13  14
ENDBRANCH   1  13
BRANCH  11  21
ATOM     21  C   LIG    1       24.975 -30.374   7.105  0.00  0.00    +0.008 C 
BRANCH  21  22
ATOM     22  C   LIG    1       24.455 -28.931   7.352  0.00  0.00    +0.045 C 
BRANCH  22  23
ATOM     23  C   LIG    1       24.264 -28.108   6.063  0.00  0.00    +0.179 C 
ATOM     24  O   LIG    1       23.896 -26.761   6.434  0.00  0.00    -0.461 OA
ATOM     25  C   LIG    1       24.455 -25.638   5.936  0.00  0.00    +0.310 C 
ATOM     26  O   LIG    1       23.885 -24.556   6.050  0.00  0.00    -0.251 OA
ATOM     27  C   LIG    1       25.776 -25.747   5.237  0.00  0.00    +0.152 C 
ATOM     28  C   LIG    1       26.465 -27.073   5.468  0.00  0.00    +0.129 C 
ATOM     29  C   LIG    1       25.490 -28.190   5.157  0.00  0.00    +0.076 C 
BRANCH  28  30
ATOM     30  O   LIG    1       27.586 -27.162   4.591  0.00  0.00    -0.391 OA
ATOM     31  H   LIG    1       27.960 -26.271   4.478  0.00  0.00    +0.210 HD
ENDBRANCH  28  30
ENDBRANCH  22  23
ENDBRANCH  21  22
ENDBRANCH  11  21
TORSDOF 8
ENDMDL
MODEL 4
REMARK VINA RESULT:      -7.6      7.628      9.470
REMARK  Name = *****
REMARK                            x       y       z     vdW  Elec       q    Type
REMARK                         _______ _______ _______ _____ _____    ______ ____
ROOT
ATOM      1  C   LIG    1       23.688 -29.358  13.205  0.00  0.00    +0.185 C 
ATOM      2  C   LIG    1       23.040 -30.185  12.070  0.00  0.00    +0.063 C 
ATOM      3  C   LIG    1       21.545 -29.856  12.016  0.00  0.00    -0.044 C 
ATOM      4  C   LIG    1       20.754 -30.728  11.177  0.00  0.00    -0.000 C 
ATOM      5  C   LIG    1       21.325 -31.430  10.187  0.00  0.00    -0.023 C 
ATOM      6  C   LIG    1       22.802 -31.359   9.845  0.00  0.00    +0.012 C 
ATOM      7  C   LIG    1       23.422 -32.736  10.134  0.00  0.00    +0.012 C 
ATOM      8  C   LIG    1       20.999 -28.795  12.639  0.00  0.00    -0.020 C 
ATOM      9  C   LIG    1       21.804 -27.760  13.396  0.00  0.00    +0.012 C 
ATOM     10  C   LIG    1       21.287 -26.349  13.118  0.00  0.00    +0.012 C 
ATOM     11  C   LIG    1       23.529 -30.160  10.579  0.00  0.00    +0.007 C 
ATOM     12  C   LIG    1       23.315 -27.879  13.099  0.00  0.00    +0.052 C 
ENDROOT
BRANCH   1  13
ATOM     13  O   LIG    1       25.089 -29.611  13.302  0.00  0.00    -0.460 OA
BRANCH  13  14
ATOM     14  C   LIG    1       25.771 -28.851  14.212  0.00  0.00    +0.313 C 
ATOM     15  O   LIG    1       25.456 -28.721  15.394  0.00  0.00    -0.250 OA
BRANCH  14  16
ATOM     16  C   LIG    1       27.082 -28.326  13.606  0.00  0.00    +0.062 C 
ATOM     17  C   LIG    1       26.774 -27.382  12.427  0.00  0.00    +0.022 C 
ATOM     18  C   LIG    1       27.857 -27.516  14.659  0.00  0.00    +0.022 C 
BRANCH  16  20
ATOM     19  C   LIG    1       28.378 -29.429  11.636  0.00  0.00    +0.005 C 
ATOM     20  C   LIG    1       27.920 -29.528  13.090  0.00  0.00    +0.014 C 
ENDBRANCH  16  20
ENDBRANCH  14  16
ENDBRANCH  13  14
ENDBRANCH   1  13
BRANCH  11  21
ATOM     21  C   LIG    1       25.053 -30.142  10.297  0.00  0.00    +0.008 C 
BRANCH  21  22
ATOM     22  C   LIG    1       25.451 -29.080   9.235  0.00  0.00    +0.045 C 
BRANCH  22  23
ATOM     23  C   LIG    1       25.902 -29.682   7.890  0.00  0.00    +0.179 C 
ATOM     24  O   LIG    1       25.878 -31.122   8.006  0.00  0.00    -0.461 OA
ATOM     25  C   LIG    1       25.320 -31.963   7.111  0.00  0.00    +0.310 C 
ATOM     26  O   LIG    1       25.615 -33.156   7.110  0.00  0.00    -0.251 OA
ATOM     27  C   LIG    1       24.345 -31.407   6.118  0.00  0.00    +0.152 C 
ATOM     28  C   LIG    1       23.871 -30.014   6.466  0.00  0.00    +0.129 C 
ATOM     29  C   LIG    1       25.079 -29.138   6.726  0.00  0.00    +0.076 C 
BRANCH  28  30
ATOM     30  O   LIG    1       23.136 -29.495   5.359  0.00  0.00    -0.391 OA
ATOM     31  H   LIG    1       23.749 -29.006   4.784  0.00  0.00    +0.210 HD
ENDBRANCH  28  30
ENDBRANCH  22  23
ENDBRANCH  21  22
ENDBRANCH  11  21
TORSDOF 8
ENDMDL
MODEL 5
REMARK VINA RESULT:      -7.6      1.038      1.254
REMARK  Name = *****
REMARK                            x       y       z     vdW  Elec       q    Type
REMARK                         _______ _______ _______ _____ _____    ______ ____
ROOT
ATOM      1  C   LIG    1       25.870 -20.308   6.031  0.00  0.00    +0.185 C 
ATOM      2  C   LIG    1       24.482 -20.989   5.962  0.00  0.00    +0.063 C 
ATOM      3  C   LIG    1       23.569 -20.150   5.064  0.00  0.00    -0.044 C 
ATOM      4  C   LIG    1       22.170 -20.515   5.097  0.00  0.00    -0.000 C 
ATOM      5  C   LIG    1       21.791 -21.742   5.484  0.00  0.00    -0.023 C 
ATOM      6  C   LIG    1       22.762 -22.838   5.884  0.00  0.00    +0.012 C 
ATOM      7  C   LIG    1       22.543 -23.143   7.376  0.00  0.00    +0.012 C 
ATOM      8  C   LIG    1       24.024 -19.186   4.242  0.00  0.00    -0.020 C 
ATOM      9  C   LIG    1       25.493 -18.873   4.047  0.00  0.00    +0.012 C 
ATOM     10  C   LIG    1       25.809 -18.612   2.576  0.00  0.00    +0.012 C 
ATOM     11  C   LIG    1       24.257 -22.477   5.516  0.00  0.00    +0.007 C 
ATOM     12  C   LIG    1       26.397 -19.978   4.635  0.00  0.00    +0.052 C 
ENDROOT
BRANCH   1  13
ATOM     13  O   LIG    1       26.775 -21.050   6.848  0.00  0.00    -0.460 OA
BRANCH  13  14
ATOM     14  C   LIG    1       27.335 -20.366   7.891  0.00  0.00    +0.313 C 
ATOM     15  O   LIG    1       26.744 -20.057   8.925  0.00  0.00    -0.250 OA
BRANCH  14  16
ATOM     16  C   LIG    1       28.847 -20.190   7.676  0.00  0.00    +0.062 C 
ATOM     17  C   LIG    1       29.358 -18.989   8.496  0.00  0.00    +0.022 C 
ATOM     18  C   LIG    1       29.593 -21.442   8.171  0.00  0.00    +0.022 C 
BRANCH  16  20
ATOM     19  C   LIG    1       29.491 -18.493   5.812  0.00  0.00    +0.005 C 
ATOM     20  C   LIG    1       29.118 -19.930   6.169  0.00  0.00    +0.014 C 
ENDBRANCH  16  20
ENDBRANCH  14  16
ENDBRANCH  13  14
ENDBRANCH   1  13
BRANCH  11  21
ATOM     21  C   LIG    1       25.256 -23.558   6.003  0.00  0.00    +0.008 C 
BRANCH  21  22
ATOM     22  C   LIG    1       24.559 -24.905   6.343  0.00  0.00    +0.045 C 
BRANCH  22  23
ATOM     23  C   LIG    1       24.724 -25.983   5.255  0.00  0.00    +0.179 C 
ATOM     24  O   LIG    1       26.133 -26.133   4.973  0.00  0.00    -0.461 OA
ATOM     25  C   LIG    1       26.789 -27.310   4.898  0.00  0.00    +0.310 C 
ATOM     26  O   LIG    1       27.885 -27.377   4.348  0.00  0.00    -0.251 OA
ATOM     27  C   LIG    1       26.146 -28.526   5.492  0.00  0.00    +0.152 C 
ATOM     28  C   LIG    1       24.973 -28.201   6.389  0.00  0.00    +0.129 C 
ATOM     29  C   LIG    1       24.026 -27.285   5.642  0.00  0.00    +0.076 C 
BRANCH  28  30
ATOM     30  O   LIG    1       24.301 -29.416   6.716  0.00  0.00    -0.391 OA
ATOM     31  H   LIG    1       24.373 -30.021   5.958  0.00  0.00    +0.210 HD
ENDBRANCH  28  30
ENDBRANCH  22  23
ENDBRANCH  21  22
ENDBRANCH  11  21
TORSDOF 8
ENDMDL
MODEL 6
REMARK VINA RESULT:      -7.5      8.251     11.366
REMARK  Name = *****
REMARK                            x       y       z     vdW  Elec       q    Type
REMARK                         _______ _______ _______ _____ _____    ______ ____
ROOT
ATOM      1  C   LIG    1       24.974 -29.485  12.533  0.00  0.00    +0.185 C 
ATOM      2  C   LIG    1       24.871 -28.061  13.128  0.00  0.00    +0.063 C 
ATOM      3  C   LIG    1       26.019 -27.213  12.573  0.00  0.00    -0.044 C 
ATOM      4  C   LIG    1       26.210 -25.936  13.222  0.00  0.00    -0.000 C 
ATOM      5  C   LIG    1       25.206 -25.352  13.895  0.00  0.00    -0.023 C 
ATOM      6  C   LIG    1       23.813 -25.943  14.012  0.00  0.00    +0.012 C 
ATOM      7  C   LIG    1       23.569 -26.291  15.490  0.00  0.00    +0.012 C 
ATOM      8  C   LIG    1       26.763 -27.581  11.514  0.00  0.00    -0.020 C 
ATOM      9  C   LIG    1       26.503 -28.830  10.697  0.00  0.00    +0.012 C 
ATOM     10  C   LIG    1       26.669 -28.555   9.204  0.00  0.00    +0.012 C 
ATOM     11  C   LIG    1       23.592 -27.156  13.021  0.00  0.00    +0.007 C 
ATOM     12  C   LIG    1       25.121 -29.442  11.012  0.00  0.00    +0.052 C 
ENDROOT
BRANCH   1  13
ATOM     13  O   LIG    1       23.921 -30.326  13.004  0.00  0.00    -0.460 OA
BRANCH  13  14
ATOM     14  C   LIG    1       23.939 -31.616  12.550  0.00  0.00    +0.313 C 
ATOM     15  O   LIG    1       24.901 -32.378  12.640  0.00  0.00    -0.250 OA
BRANCH  14  16
ATOM     16  C   LIG    1       22.541 -32.043  12.075  0.00  0.00    +0.062 C 
ATOM     17  C   LIG    1       22.507 -33.568  11.851  0.00  0.00    +0.022 C 
ATOM     18  C   LIG    1       21.498 -31.708  13.154  0.00  0.00    +0.022 C 
BRANCH  16  20
ATOM     19  C   LIG    1       20.915 -30.529  10.719  0.00  0.00    +0.005 C 
ATOM     20  C   LIG    1       22.219 -31.325  10.736  0.00  0.00    +0.014 C 
ENDBRANCH  16  20
ENDBRANCH  14  16
ENDBRANCH  13  14
ENDBRANCH   1  13
BRANCH  11  21
ATOM     21  C   LIG    1       22.201 -27.813  13.204  0.00  0.00    +0.008 C 
BRANCH  21  22
ATOM     22  C   LIG    1       21.041 -26.781  13.144  0.00  0.00    +0.045 C 
BRANCH  22  23
ATOM     23  C   LIG    1       20.113 -26.814  14.374  0.00  0.00    +0.179 C 
ATOM     24  O   LIG    1       18.834 -26.261  13.994  0.00  0.00    -0.461 OA
ATOM     25  C   LIG    1       17.635 -26.820  14.261  0.00  0.00    +0.310 C 
ATOM     26  O   LIG    1       16.608 -26.150  14.197  0.00  0.00    -0.251 OA
ATOM     27  C   LIG    1       17.592 -28.268  14.645  0.00  0.00    +0.152 C 
ATOM     28  C   LIG    1       18.887 -28.997  14.366  0.00  0.00    +0.129 C 
ATOM     29  C   LIG    1       20.030 -28.213  14.979  0.00  0.00    +0.076 C 
BRANCH  28  30
ATOM     30  O   LIG    1       18.821 -30.288  14.967  0.00  0.00    -0.391 OA
ATOM     31  H   LIG    1       18.055 -30.761  14.597  0.00  0.00    +0.210 HD
ENDBRANCH  28  30
ENDBRANCH  22  23
ENDBRANCH  21  22
ENDBRANCH  11  21
TORSDOF 8
ENDMDL
MODEL 7
REMARK VINA RESULT:      -7.4      6.410      9.452
REMARK  Name = *****
REMARK                            x       y       z     vdW  Elec       q    Type
REMARK                         _______ _______ _______ _____ _____    ______ ____
ROOT
ATOM      1  C   LIG    1       24.224 -29.644  12.916  0.00  0.00    +0.185 C 
ATOM      2  C   LIG    1       23.295 -30.367  11.913  0.00  0.00    +0.063 C 
ATOM      3  C   LIG    1       21.867 -29.847  12.105  0.00  0.00    -0.044 C 
ATOM      4  C   LIG    1       20.841 -30.600  11.419  0.00  0.00    -0.000 C 
ATOM      5  C   LIG    1       21.144 -31.358  10.355  0.00  0.00    -0.023 C 
ATOM      6  C   LIG    1       22.540 -31.474   9.771  0.00  0.00    +0.012 C 
ATOM      7  C   LIG    1       23.016 -32.923   9.966  0.00  0.00    +0.012 C 
ATOM      8  C   LIG    1       21.575 -28.732  12.800  0.00  0.00    -0.020 C 
ATOM      9  C   LIG    1       22.622 -27.818  13.402  0.00  0.00    +0.012 C 
ATOM     10  C   LIG    1       22.252 -26.350  13.199  0.00  0.00    +0.012 C 
ATOM     11  C   LIG    1       23.528 -30.388  10.360  0.00  0.00    +0.007 C 
ATOM     12  C   LIG    1       24.033 -28.128  12.858  0.00  0.00    +0.052 C 
ENDROOT
BRANCH   1  13
ATOM     13  O   LIG    1       25.578 -30.077  12.780  0.00  0.00    -0.460 OA
BRANCH  13  14
ATOM     14  C   LIG    1       26.404 -29.791  13.831  0.00  0.00    +0.313 C 
ATOM     15  O   LIG    1       26.302 -30.279  14.957  0.00  0.00    -0.250 OA
BRANCH  14  16
ATOM     16  C   LIG    1       27.583 -28.919  13.373  0.00  0.00    +0.062 C 
ATOM     17  C   LIG    1       28.911 -29.539  13.850  0.00  0.00    +0.022 C 
ATOM     18  C   LIG    1       27.623 -28.861  11.836  0.00  0.00    +0.022 C 
BRANCH  16  20
ATOM     19  C   LIG    1       27.040 -26.400  13.005  0.00  0.00    +0.005 C 
ATOM     20  C   LIG    1       27.434 -27.501  13.988  0.00  0.00    +0.014 C 
ENDBRANCH  16  20
ENDBRANCH  14  16
ENDBRANCH  13  14
ENDBRANCH   1  13
BRANCH  11  21
ATOM     21  C   LIG    1       24.972 -30.563   9.829  0.00  0.00    +0.008 C 
BRANCH  21  22
ATOM     22  C   LIG    1       25.358 -29.484   8.780  0.00  0.00    +0.045 C 
BRANCH  22  23
ATOM     23  C   LIG    1       24.307 -29.292   7.668  0.00  0.00    +0.179 C 
ATOM     24  O   LIG    1       24.481 -27.975   7.101  0.00  0.00    -0.461 OA
ATOM     25  C   LIG    1       24.539 -27.700   5.781  0.00  0.00    +0.310 C 
ATOM     26  O   LIG    1       24.365 -26.553   5.377  0.00  0.00    -0.251 OA
ATOM     27  C   LIG    1       24.809 -28.824   4.828  0.00  0.00    +0.152 C 
ATOM     28  C   LIG    1       25.304 -30.078   5.511  0.00  0.00    +0.129 C 
ATOM     29  C   LIG    1       24.359 -30.422   6.644  0.00  0.00    +0.076 C 
BRANCH  28  30
ATOM     30  O   LIG    1       25.314 -31.141   4.560  0.00  0.00    -0.391 OA
ATOM     31  H   LIG    1       24.925 -31.930   4.975  0.00  0.00    +0.210 HD
ENDBRANCH  28  30
ENDBRANCH  22  23
ENDBRANCH  21  22
ENDBRANCH  11  21
TORSDOF 8
ENDMDL
MODEL 8
REMARK VINA RESULT:      -7.3      2.246      6.801
REMARK  Name = *****
REMARK                            x       y       z     vdW  Elec       q    Type
REMARK                         _______ _______ _______ _____ _____    ______ ____
ROOT
ATOM      1  C   LIG    1       24.118 -21.652   5.651  0.00  0.00    +0.185 C 
ATOM      2  C   LIG    1       25.373 -20.823   5.288  0.00  0.00    +0.063 C 
ATOM      3  C   LIG    1       25.003 -19.835   4.179  0.00  0.00    -0.044 C 
ATOM      4  C   LIG    1       26.122 -19.163   3.556  0.00  0.00    -0.000 C 
ATOM      5  C   LIG    1       27.295 -19.049   4.196  0.00  0.00    -0.023 C 
ATOM      6  C   LIG    1       27.545 -19.571   5.600  0.00  0.00    +0.012 C 
ATOM      7  C   LIG    1       28.588 -20.697   5.506  0.00  0.00    +0.012 C 
ATOM      8  C   LIG    1       23.733 -19.545   3.841  0.00  0.00    -0.020 C 
ATOM      9  C   LIG    1       22.524 -20.096   4.567  0.00  0.00    +0.012 C 
ATOM     10  C   LIG    1       21.456 -19.020   4.753  0.00  0.00    +0.012 C 
ATOM     11  C   LIG    1       26.206 -19.994   6.328  0.00  0.00    +0.007 C 
ATOM     12  C   LIG    1       22.912 -20.750   5.911  0.00  0.00    +0.052 C 
ENDROOT
BRANCH   1  13
ATOM     13  O   LIG    1       24.394 -22.589   6.692  0.00  0.00    -0.460 OA
BRANCH  13  14
ATOM     14  C   LIG    1       23.800 -23.814   6.565  0.00  0.00    +0.313 C 
ATOM     15  O   LIG    1       22.590 -24.021   6.659  0.00  0.00    -0.250 OA
BRANCH  14  16
ATOM     16  C   LIG    1       24.822 -24.868   6.112  0.00  0.00    +0.062 C 
ATOM     17  C   LIG    1       24.936 -24.862   4.574  0.00  0.00    +0.022 C 
ATOM     18  C   LIG    1       26.211 -24.527   6.681  0.00  0.00    +0.022 C 
BRANCH  16  20
ATOM     19  C   LIG    1       24.380 -27.362   5.514  0.00  0.00    +0.005 C 
ATOM     20  C   LIG    1       24.348 -26.270   6.582  0.00  0.00    +0.014 C 
ENDBRANCH  16  20
ENDBRANCH  14  16
ENDBRANCH  13  14
ENDBRANCH   1  13
BRANCH  11  21
ATOM     21  C   LIG    1       26.472 -20.608   7.726  0.00  0.00    +0.008 C 
BRANCH  21  22
ATOM     22  C   LIG    1       27.837 -21.346   7.805  0.00  0.00    +0.045 C 
BRANCH  22  23
ATOM     23  C   LIG    1       28.774 -20.807   8.903  0.00  0.00    +0.179 C 
ATOM     24  O   LIG    1       29.926 -21.674   8.984  0.00  0.00    -0.461 OA
ATOM     25  C   LIG    1       31.210 -21.260   9.014  0.00  0.00    +0.310 C 
ATOM     26  O   LIG    1       32.098 -22.014   9.401  0.00  0.00    -0.251 OA
ATOM     27  C   LIG    1       31.519 -19.862   8.573  0.00  0.00    +0.152 C 
ATOM     28  C   LIG    1       30.373 -19.200   7.842  0.00  0.00    +0.129 C 
ATOM     29  C   LIG    1       29.118 -19.337   8.679  0.00  0.00    +0.076 C 
BRANCH  28  30
ATOM     30  O   LIG    1       30.681 -17.818   7.669  0.00  0.00    -0.391 OA
ATOM     31  H   LIG    1       31.493 -17.748   7.138  0.00  0.00    +0.210 HD
ENDBRANCH  28  30
ENDBRANCH  22  23
ENDBRANCH  21  22
ENDBRANCH  11  21
TORSDOF 8
ENDMDL
MODEL 9
REMARK VINA RESULT:      -7.3      2.903      8.753
REMARK  Name = *****
REMARK                            x       y       z     vdW  Elec       q    Type
REMARK                         _______ _______ _______ _____ _____    ______ ____
ROOT
ATOM      1  C   LIG    1       25.776 -29.369   9.045  0.00  0.00    +0.185 C 
ATOM      2  C   LIG    1       25.714 -29.151   7.515  0.00  0.00    +0.063 C 
ATOM      3  C   LIG    1       24.976 -30.334   6.881  0.00  0.00    -0.044 C 
ATOM      4  C   LIG    1       25.052 -30.405   5.439  0.00  0.00    -0.000 C 
ATOM      5  C   LIG    1       25.317 -29.309   4.713  0.00  0.00    -0.023 C 
ATOM      6  C   LIG    1       25.527 -27.930   5.311  0.00  0.00    +0.012 C 
ATOM      7  C   LIG    1       26.984 -27.515   5.043  0.00  0.00    +0.012 C 
ATOM      8  C   LIG    1       24.245 -31.214   7.591  0.00  0.00    -0.020 C 
ATOM      9  C   LIG    1       23.999 -31.095   9.080  0.00  0.00    +0.012 C 
ATOM     10  C   LIG    1       22.551 -31.436   9.427  0.00  0.00    +0.012 C 
ATOM     11  C   LIG    1       25.113 -27.870   6.836  0.00  0.00    +0.007 C 
ATOM     12  C   LIG    1       24.398 -29.703   9.616  0.00  0.00    +0.052 C 
ENDROOT
BRANCH   1  13
ATOM     13  O   LIG    1       26.445 -28.291   9.700  0.00  0.00    -0.460 OA
BRANCH  13  14
ATOM     14  C   LIG    1       27.216 -28.633  10.776  0.00  0.00    +0.313 C 
ATOM     15  O   LIG    1       28.269 -29.267  10.712  0.00  0.00    -0.250 OA
BRANCH  14  16
ATOM     16  C   LIG    1       26.686 -27.968  12.056  0.00  0.00    +0.062 C 
ATOM     17  C   LIG    1       27.553 -28.384  13.261  0.00  0.00    +0.022 C 
ATOM     18  C   LIG    1       26.778 -26.437  11.925  0.00  0.00    +0.022 C 
BRANCH  16  20
ATOM     19  C   LIG    1       24.379 -27.492  13.163  0.00  0.00    +0.005 C 
ATOM     20  C   LIG    1       25.223 -28.427  12.299  0.00  0.00    +0.014 C 
ENDBRANCH  16  20
ENDBRANCH  14  16
ENDBRANCH  13  14
ENDBRANCH   1  13
BRANCH  11  21
ATOM     21  C   LIG    1       25.410 -26.486   7.468  0.00  0.00    +0.008 C 
BRANCH  21  22
ATOM     22  C   LIG    1       24.675 -25.327   6.739  0.00  0.00    +0.045 C 
BRANCH  22  23
ATOM     23  C   LIG    1       25.595 -24.151   6.354  0.00  0.00    +0.179 C 
ATOM     24  O   LIG    1       24.915 -23.347   5.366  0.00  0.00    -0.461 OA
ATOM     25  C   LIG    1       24.799 -22.003   5.403  0.00  0.00    +0.310 C 
ATOM     26  O   LIG    1       24.499 -21.376   4.391  0.00  0.00    -0.251 OA
ATOM     27  C   LIG    1       25.054 -21.301   6.702  0.00  0.00    +0.152 C 
ATOM     28  C   LIG    1       25.095 -22.238   7.888  0.00  0.00    +0.129 C 
ATOM     29  C   LIG    1       26.053 -23.370   7.582  0.00  0.00    +0.076 C 
BRANCH  28  30
ATOM     30  O   LIG    1       25.561 -21.512   9.024  0.00  0.00    -0.391 OA
ATOM     31  H   LIG    1       24.940 -21.656   9.758  0.00  0.00    +0.210 HD
ENDBRANCH  28  30
ENDBRANCH  22  23
ENDBRANCH  21  22
ENDBRANCH  11  21
TORSDOF 8
ENDMDL
