MODEL 1
REMARK VINA RESULT:      -3.5      0.000      0.000
REMARK  Name = *****
REMARK                            x       y       z     vdW  Elec       q    Type
REMARK                         _______ _______ _______ _____ _____    ______ ____
ROOT
ATOM      1  C   LIG    1       26.253 -16.086   3.449  0.00  0.00    +0.054 C 
ENDROOT
BRANCH   1   3
ATOM      2  C   LIG    1       24.107 -14.980   4.413  0.00  0.00    +0.135 A 
ATOM      3  C   LIG    1       24.805 -16.126   3.976  0.00  0.00    +0.003 A 
ATOM      4  C   LIG    1       24.107 -17.344   4.053  0.00  0.00    +0.013 A 
ATOM      5  C   LIG    1       22.751 -17.443   4.392  0.00  0.00    -0.022 A 
ATOM      6  C   LIG    1       22.075 -16.281   4.751  0.00  0.00    +0.009 A 
ATOM      7  C   LIG    1       22.756 -15.059   4.790  0.00  0.00    +0.047 A 
BRANCH   2   8
ATOM      8  O   LIG    1       24.755 -13.717   4.346  0.00  0.00    -0.425 OA
BRANCH   8   9
ATOM      9  C   LIG    1       24.055 -12.516   4.115  0.00  0.00    +0.315 C 
ATOM     10  O   LIG    1       23.554 -11.806   4.961  0.00  0.00    -0.250 OA
BRANCH   9  12
ATOM     11  C   LIG    1       25.282 -11.448   2.199  0.00  0.00    +0.019 C 
ATOM     12  C   LIG    1       24.039 -12.234   2.611  0.00  0.00    +0.092 C 
ATOM     13  C   LIG    1       23.964 -13.538   1.812  0.00  0.00    +0.019 C 
ENDBRANCH   9  12
ENDBRANCH   8   9
ENDBRANCH   2   8
BRANCH   5  14
ATOM     14  C   LIG    1       22.081 -18.795   4.359  0.00  0.00    +0.191 C 
BRANCH  14  15
ATOM     15  O   LIG    1       22.318 -19.554   5.539  0.00  0.00    -0.390 OA
ATOM     16  H   LIG    1       23.036 -19.135   6.039  0.00  0.00    +0.210 HD
ENDBRANCH  14  15
ENDBRANCH   5  14
ENDBRANCH   1   3
BRANCH   1  17
ATOM     17  C   LIG    1       27.023 -14.820   3.831  0.00  0.00    -0.040 A 
ATOM     18  C   LIG    1       27.036 -14.375   5.166  0.00  0.00    +0.004 A 
ATOM     19  C   LIG    1       27.788 -13.257   5.543  0.00  0.00    +0.000 A 
ATOM     20  C   LIG    1       28.513 -12.546   4.590  0.00  0.00    +0.000 A 
ATOM     21  C   LIG    1       28.467 -12.941   3.257  0.00  0.00    +0.000 A 
ATOM     22  C   LIG    1       27.733 -14.068   2.883  0.00  0.00    +0.004 A 
ENDBRANCH   1  17
BRANCH   1  23
ATOM     23  C   LIG    1       27.098 -17.417   3.625  0.00  0.00    +0.028 C 
BRANCH  23  24
ATOM     24  C   LIG    1       26.336 -18.700   4.060  0.00  0.00    +0.086 C 
BRANCH  24  25
ATOM     25  N   LIG    1       26.755 -19.444   5.292  0.00  0.00    -0.297 NA
BRANCH  25  26
ATOM     26  C   LIG    1       28.253 -19.543   5.336  0.00  0.00    +0.051 C 
ATOM     27  C   LIG    1       28.868 -20.555   6.324  0.00  0.00    +0.024 C 
ATOM     28  C   LIG    1       29.049 -18.239   5.473  0.00  0.00    +0.024 C 
ENDBRANCH  25  26
BRANCH  25  29
ATOM     29  C   LIG    1       25.934 -20.651   5.564  0.00  0.00    +0.051 C 
ATOM     30  C   LIG    1       24.895 -21.051   4.498  0.00  0.00    +0.024 C 
ATOM     31  C   LIG    1       25.197 -20.643   6.904  0.00  0.00    +0.024 C 
ENDBRANCH  25  29
ENDBRANCH  24  25
ENDBRANCH  23  24
ENDBRANCH   1  23
TORSDOF 12
ENDMDL
MODEL 2
REMARK VINA RESULT:      -2.9      0.982      2.249
REMARK  Name = *****
REMARK                            x       y       z     vdW  Elec       q    Type
REMARK                         _______ _______ _______ _____ _____    ______ ____
ROOT
ATOM      1  C   LIG    1       26.032 -16.590   3.292  0.00  0.00    +0.054 C 
ENDROOT
BRANCH   1   3
ATOM      2  C   LIG    1       23.994 -15.326   4.297  0.00  0.00    +0.135 A 
ATOM      3  C   LIG    1       24.601 -16.523   3.862  0.00  0.00    +0.003 A 
ATOM      4  C   LIG    1       23.826 -17.691   3.981  0.00  0.00    +0.013 A 
ATOM      5  C   LIG    1       22.478 -17.693   4.361  0.00  0.00    -0.022 A 
ATOM      6  C   LIG    1       21.892 -16.483   4.717  0.00  0.00    +0.009 A 
ATOM      7  C   LIG    1       22.653 -15.309   4.714  0.00  0.00    +0.047 A 
BRANCH   2   8
ATOM      8  O   LIG    1       24.722 -14.111   4.188  0.00  0.00    -0.425 OA
BRANCH   8   9
ATOM      9  C   LIG    1       24.177 -12.949   3.603  0.00  0.00    +0.315 C 
ATOM     10  O   LIG    1       23.647 -12.877   2.516  0.00  0.00    -0.250 OA
BRANCH   9  12
ATOM     11  C   LIG    1       23.021 -11.455   5.261  0.00  0.00    +0.019 C 
ATOM     12  C   LIG    1       24.347 -11.780   4.576  0.00  0.00    +0.092 C 
ATOM     13  C   LIG    1       25.409 -12.098   5.632  0.00  0.00    +0.019 C 
ENDBRANCH   9  12
ENDBRANCH   8   9
ENDBRANCH   2   8
BRANCH   5  14
ATOM     14  C   LIG    1       21.719 -18.997   4.373  0.00  0.00    +0.191 C 
BRANCH  14  15
ATOM     15  O   LIG    1       22.309 -19.968   5.230  0.00  0.00    -0.390 OA
ATOM     16  H   LIG    1       23.258 -19.780   5.306  0.00  0.00    +0.210 HD
ENDBRANCH  14  15
ENDBRANCH   5  14
ENDBRANCH   1   3
BRANCH   1  17
ATOM     17  C   LIG    1       26.823 -15.288   3.438  0.00  0.00    -0.040 A 
ATOM     18  C   LIG    1       27.532 -15.019   4.624  0.00  0.00    +0.004 A 
ATOM     19  C   LIG    1       28.313 -13.865   4.749  0.00  0.00    +0.000 A 
ATOM     20  C   LIG    1       28.375 -12.946   3.705  0.00  0.00    +0.000 A 
ATOM     21  C   LIG    1       27.638 -13.169   2.547  0.00  0.00    +0.000 A 
ATOM     22  C   LIG    1       26.874 -14.331   2.414  0.00  0.00    +0.004 A 
ENDBRANCH   1  17
BRANCH   1  23
ATOM     23  C   LIG    1       26.871 -17.885   3.659  0.00  0.00    +0.028 C 
BRANCH  23  24
ATOM     24  C   LIG    1       26.615 -18.539   5.045  0.00  0.00    +0.086 C 
BRANCH  24  25
ATOM     25  N   LIG    1       27.240 -19.859   5.382  0.00  0.00    -0.297 NA
BRANCH  25  26
ATOM     26  C   LIG    1       26.164 -20.882   5.612  0.00  0.00    +0.051 C 
ATOM     27  C   LIG    1       25.125 -21.081   4.491  0.00  0.00    +0.024 C 
ATOM     28  C   LIG    1       25.392 -20.818   6.936  0.00  0.00    +0.024 C 
ENDBRANCH  25  26
BRANCH  25  29
ATOM     29  C   LIG    1       28.367 -19.753   6.343  0.00  0.00    +0.051 C 
ATOM     30  C   LIG    1       29.474 -18.732   6.020  0.00  0.00    +0.024 C 
ATOM     31  C   LIG    1       29.074 -21.073   6.658  0.00  0.00    +0.024 C 
ENDBRANCH  25  29
ENDBRANCH  24  25
ENDBRANCH  23  24
ENDBRANCH   1  23
TORSDOF 12
ENDMDL
MODEL 3
REMARK VINA RESULT:      -2.0      1.895      4.093
REMARK  Name = *****
REMARK                            x       y       z     vdW  Elec       q    Type
REMARK                         _______ _______ _______ _____ _____    ______ ____
ROOT
ATOM      1  C   LIG    1       26.090 -18.720   3.521  0.00  0.00    +0.054 C 
ENDROOT
BRANCH   1   3
ATOM      2  C   LIG    1       25.369 -16.228   3.677  0.00  0.00    +0.135 A 
ATOM      3  C   LIG    1       25.065 -17.601   3.789  0.00  0.00    +0.003 A 
ATOM      4  C   LIG    1       23.750 -17.916   4.177  0.00  0.00    +0.013 A 
ATOM      5  C   LIG    1       22.730 -16.965   4.307  0.00  0.00    -0.022 A 
ATOM      6  C   LIG    1       23.051 -15.624   4.120  0.00  0.00    +0.009 A 
ATOM      7  C   LIG    1       24.369 -15.253   3.836  0.00  0.00    +0.047 A 
BRANCH   2   8
ATOM      8  O   LIG    1       26.678 -15.847   3.275  0.00  0.00    -0.425 OA
BRANCH   8   9
ATOM      9  C   LIG    1       27.026 -14.510   2.995  0.00  0.00    +0.315 C 
ATOM     10  O   LIG    1       26.614 -13.841   2.071  0.00  0.00    -0.250 OA
BRANCH   9  12
ATOM     11  C   LIG    1       28.834 -12.849   3.535  0.00  0.00    +0.019 C 
ATOM     12  C   LIG    1       28.008 -14.021   4.062  0.00  0.00    +0.092 C 
ATOM     13  C   LIG    1       27.267 -13.599   5.333  0.00  0.00    +0.019 C 
ENDBRANCH   9  12
ENDBRANCH   8   9
ENDBRANCH   2   8
BRANCH   5  14
ATOM     14  C   LIG    1       21.333 -17.427   4.645  0.00  0.00    +0.191 C 
BRANCH  14  15
ATOM     15  O   LIG    1       20.763 -18.240   3.627  0.00  0.00    -0.390 OA
ATOM     16  H   LIG    1       20.206 -18.917   4.045  0.00  0.00    +0.210 HD
ENDBRANCH  14  15
ENDBRANCH   5  14
ENDBRANCH   1   3
BRANCH   1  17
ATOM     17  C   LIG    1       27.238 -18.770   4.532  0.00  0.00    -0.040 A 
ATOM     18  C   LIG    1       27.267 -19.770   5.522  0.00  0.00    +0.004 A 
ATOM     19  C   LIG    1       28.342 -19.869   6.412  0.00  0.00    +0.000 A 
ATOM     20  C   LIG    1       29.390 -18.955   6.349  0.00  0.00    +0.000 A 
ATOM     21  C   LIG    1       29.352 -17.928   5.411  0.00  0.00    +0.000 A 
ATOM     22  C   LIG    1       28.288 -17.840   4.509  0.00  0.00    +0.004 A 
ENDBRANCH   1  17
BRANCH   1  23
ATOM     23  C   LIG    1       25.493 -20.147   3.171  0.00  0.00    +0.028 C 
BRANCH  23  24
ATOM     24  C   LIG    1       25.381 -21.182   4.325  0.00  0.00    +0.086 C 
BRANCH  24  25
ATOM     25  N   LIG    1       24.041 -21.523   4.904  0.00  0.00    -0.297 NA
BRANCH  25  26
ATOM     26  C   LIG    1       22.964 -20.816   4.133  0.00  0.00    +0.051 C 
ATOM     27  C   LIG    1       21.502 -21.158   4.483  0.00  0.00    +0.024 C 
ATOM     28  C   LIG    1       23.071 -20.808   2.603  0.00  0.00    +0.024 C 
ENDBRANCH  25  26
BRANCH  25  29
ATOM     29  C   LIG    1       24.014 -21.501   6.389  0.00  0.00    +0.051 C 
ATOM     30  C   LIG    1       23.161 -20.409   7.062  0.00  0.00    +0.024 C 
ATOM     31  C   LIG    1       25.388 -21.453   7.060  0.00  0.00    +0.024 C 
ENDBRANCH  25  29
ENDBRANCH  24  25
ENDBRANCH  23  24
ENDBRANCH   1  23
TORSDOF 12
ENDMDL
MODEL 4
REMARK VINA RESULT:      -1.7      1.874      4.095
REMARK  Name = *****
REMARK                            x       y       z     vdW  Elec       q    Type
REMARK                         _______ _______ _______ _____ _____    ______ ____
ROOT
ATOM      1  C   LIG    1       26.028 -18.185   3.344  0.00  0.00    +0.054 C 
ENDROOT
BRANCH   1   3
ATOM      2  C   LIG    1       25.607 -15.623   3.468  0.00  0.00    +0.135 A 
ATOM      3  C   LIG    1       25.188 -16.947   3.717  0.00  0.00    +0.003 A 
ATOM      4  C   LIG    1       23.939 -17.095   4.346  0.00  0.00    +0.013 A 
ATOM      5  C   LIG    1       23.062 -16.031   4.593  0.00  0.00    -0.022 A 
ATOM      6  C   LIG    1       23.481 -14.744   4.270  0.00  0.00    +0.009 A 
ATOM      7  C   LIG    1       24.758 -14.536   3.739  0.00  0.00    +0.047 A 
BRANCH   2   8
ATOM      8  O   LIG    1       26.854 -15.409   2.822  0.00  0.00    -0.425 OA
BRANCH   8   9
ATOM      9  C   LIG    1       27.449 -14.135   2.722  0.00  0.00    +0.315 C 
ATOM     10  O   LIG    1       27.302 -13.346   1.813  0.00  0.00    -0.250 OA
BRANCH   9  12
ATOM     11  C   LIG    1       29.316 -12.772   3.710  0.00  0.00    +0.019 C 
ATOM     12  C   LIG    1       28.308 -13.891   3.965  0.00  0.00    +0.092 C 
ATOM     13  C   LIG    1       27.434 -13.532   5.171  0.00  0.00    +0.019 C 
ENDBRANCH   9  12
ENDBRANCH   8   9
ENDBRANCH   2   8
BRANCH   5  14
ATOM     14  C   LIG    1       21.709 -16.318   5.196  0.00  0.00    +0.191 C 
BRANCH  14  15
ATOM     15  O   LIG    1       21.524 -15.682   6.455  0.00  0.00    -0.390 OA
ATOM     16  H   LIG    1       20.763 -16.089   6.900  0.00  0.00    +0.210 HD
ENDBRANCH  14  15
ENDBRANCH   5  14
ENDBRANCH   1   3
BRANCH   1  17
ATOM     17  C   LIG    1       27.181 -18.471   4.308  0.00  0.00    -0.040 A 
ATOM     18  C   LIG    1       28.157 -17.488   4.556  0.00  0.00    +0.004 A 
ATOM     19  C   LIG    1       29.181 -17.710   5.483  0.00  0.00    +0.000 A 
ATOM     20  C   LIG    1       29.266 -18.926   6.156  0.00  0.00    +0.000 A 
ATOM     21  C   LIG    1       28.340 -19.928   5.884  0.00  0.00    +0.000 A 
ATOM     22  C   LIG    1       27.306 -19.701   4.972  0.00  0.00    +0.004 A 
ENDBRANCH   1  17
BRANCH   1  23
ATOM     23  C   LIG    1       25.215 -19.482   2.928  0.00  0.00    +0.028 C 
BRANCH  23  24
ATOM     24  C   LIG    1       24.746 -20.433   4.066  0.00  0.00    +0.086 C 
BRANCH  24  25
ATOM     25  N   LIG    1       23.573 -20.062   4.922  0.00  0.00    -0.297 NA
BRANCH  25  26
ATOM     26  C   LIG    1       23.855 -20.432   6.350  0.00  0.00    +0.051 C 
ATOM     27  C   LIG    1       25.326 -20.675   6.742  0.00  0.00    +0.024 C 
ATOM     28  C   LIG    1       23.031 -21.570   6.966  0.00  0.00    +0.024 C 
ENDBRANCH  25  26
BRANCH  25  29
ATOM     29  C   LIG    1       22.264 -20.415   4.318  0.00  0.00    +0.051 C 
ATOM     30  C   LIG    1       21.235 -19.280   4.152  0.00  0.00    +0.024 C 
ATOM     31  C   LIG    1       21.528 -21.570   5.000  0.00  0.00    +0.024 C 
ENDBRANCH  25  29
ENDBRANCH  24  25
ENDBRANCH  23  24
ENDBRANCH   1  23
TORSDOF 12
ENDMDL
MODEL 5
REMARK VINA RESULT:      -0.9      1.784      4.989
REMARK  Name = *****
REMARK                            x       y       z     vdW  Elec       q    Type
REMARK                         _______ _______ _______ _____ _____    ______ ____
ROOT
ATOM      1  C   LIG    1       26.782 -17.584   3.684  0.00  0.00    +0.054 C 
ENDROOT
BRANCH   1   3
ATOM      2  C   LIG    1       25.620 -15.259   3.674  0.00  0.00    +0.135 A 
ATOM      3  C   LIG    1       26.793 -16.043   3.662  0.00  0.00    +0.003 A 
ATOM      4  C   LIG    1       28.009 -15.339   3.619  0.00  0.00    +0.013 A 
ATOM      5  C   LIG    1       28.105 -13.945   3.732  0.00  0.00    -0.022 A 
ATOM      6  C   LIG    1       26.928 -13.208   3.812  0.00  0.00    +0.009 A 
ATOM      7  C   LIG    1       25.690 -13.858   3.753  0.00  0.00    +0.047 A 
BRANCH   2   8
ATOM      8  O   LIG    1       24.360 -15.913   3.731  0.00  0.00    -0.425 OA
BRANCH   8   9
ATOM      9  C   LIG    1       23.216 -15.309   4.291  0.00  0.00    +0.315 C 
ATOM     10  O   LIG    1       22.793 -14.202   4.033  0.00  0.00    -0.250 OA
BRANCH   9  12
ATOM     11  C   LIG    1       21.518 -15.578   6.126  0.00  0.00    +0.019 C 
ATOM     12  C   LIG    1       22.571 -16.287   5.275  0.00  0.00    +0.092 C 
ATOM     13  C   LIG    1       21.929 -17.464   4.535  0.00  0.00    +0.019 C 
ENDBRANCH   9  12
ENDBRANCH   8   9
ENDBRANCH   2   8
BRANCH   5  14
ATOM     14  C   LIG    1       29.470 -13.302   3.761  0.00  0.00    +0.191 C 
BRANCH  14  15
ATOM     15  O   LIG    1       29.455 -12.007   4.349  0.00  0.00    -0.390 OA
ATOM     16  H   LIG    1       30.107 -11.451   3.893  0.00  0.00    +0.210 HD
ENDBRANCH  14  15
ENDBRANCH   5  14
ENDBRANCH   1   3
BRANCH   1  17
ATOM     17  C   LIG    1       27.750 -18.201   4.697  0.00  0.00    -0.040 A 
ATOM     18  C   LIG    1       28.601 -17.377   5.456  0.00  0.00    +0.004 A 
ATOM     19  C   LIG    1       29.444 -17.920   6.432  0.00  0.00    +0.000 A 
ATOM     20  C   LIG    1       29.475 -19.295   6.644  0.00  0.00    +0.000 A 
ATOM     21  C   LIG    1       28.680 -20.129   5.865  0.00  0.00    +0.000 A 
ATOM     22  C   LIG    1       27.823 -19.586   4.904  0.00  0.00    +0.004 A 
ENDBRANCH   1  17
BRANCH   1  23
ATOM     23  C   LIG    1       25.354 -18.274   3.672  0.00  0.00    +0.028 C 
BRANCH  23  24
ATOM     24  C   LIG    1       25.238 -19.697   4.287  0.00  0.00    +0.086 C 
BRANCH  24  25
ATOM     25  N   LIG    1       23.969 -20.126   4.958  0.00  0.00    -0.297 NA
BRANCH  25  26
ATOM     26  C   LIG    1       24.245 -20.450   6.398  0.00  0.00    +0.051 C 
ATOM     27  C   LIG    1       25.709 -20.725   6.795  0.00  0.00    +0.024 C 
ATOM     28  C   LIG    1       23.388 -21.535   7.062  0.00  0.00    +0.024 C 
ENDBRANCH  25  26
BRANCH  25  29
ATOM     29  C   LIG    1       23.153 -21.060   4.141  0.00  0.00    +0.051 C 
ATOM     30  C   LIG    1       23.493 -21.167   2.643  0.00  0.00    +0.024 C 
ATOM     31  C   LIG    1       21.641 -20.843   4.228  0.00  0.00    +0.024 C 
ENDBRANCH  25  29
ENDBRANCH  24  25
ENDBRANCH  23  24
ENDBRANCH   1  23
TORSDOF 12
ENDMDL
MODEL 6
REMARK VINA RESULT:      -0.6      2.126      6.351
REMARK  Name = *****
REMARK                            x       y       z     vdW  Elec       q    Type
REMARK                         _______ _______ _______ _____ _____    ______ ____
ROOT
ATOM      1  C   LIG    1       25.979 -17.878   3.345  0.00  0.00    +0.054 C 
ENDROOT
BRANCH   1   3
ATOM      2  C   LIG    1       28.140 -17.105   4.567  0.00  0.00    +0.135 A 
ATOM      3  C   LIG    1       27.185 -18.103   4.278  0.00  0.00    +0.003 A 
ATOM      4  C   LIG    1       27.391 -19.354   4.887  0.00  0.00    +0.013 A 
ATOM      5  C   LIG    1       28.383 -19.597   5.848  0.00  0.00    -0.022 A 
ATOM      6  C   LIG    1       29.264 -18.566   6.159  0.00  0.00    +0.009 A 
ATOM      7  C   LIG    1       29.163 -17.336   5.502  0.00  0.00    +0.047 A 
BRANCH   2   8
ATOM      8  O   LIG    1       27.978 -15.816   3.991  0.00  0.00    -0.425 OA
BRANCH   8   9
ATOM      9  C   LIG    1       27.938 -14.639   4.766  0.00  0.00    +0.315 C 
ATOM     10  O   LIG    1       27.384 -14.505   5.836  0.00  0.00    -0.250 OA
BRANCH   9  12
ATOM     11  C   LIG    1       28.226 -13.376   2.612  0.00  0.00    +0.019 C 
ATOM     12  C   LIG    1       28.729 -13.545   4.044  0.00  0.00    +0.092 C 
ATOM     13  C   LIG    1       28.622 -12.212   4.789  0.00  0.00    +0.019 C 
ENDBRANCH   9  12
ENDBRANCH   8   9
ENDBRANCH   2   8
BRANCH   5  14
ATOM     14  C   LIG    1       28.458 -20.955   6.500  0.00  0.00    +0.191 C 
BRANCH  14  15
ATOM     15  O   LIG    1       27.205 -21.385   7.019  0.00  0.00    -0.390 OA
ATOM     16  H   LIG    1       27.362 -22.095   7.662  0.00  0.00    +0.210 HD
ENDBRANCH  14  15
ENDBRANCH   5  14
ENDBRANCH   1   3
BRANCH   1  17
ATOM     17  C   LIG    1       24.695 -18.572   3.806  0.00  0.00    -0.040 A 
ATOM     18  C   LIG    1       24.665 -19.969   3.968  0.00  0.00    +0.004 A 
ATOM     19  C   LIG    1       23.519 -20.612   4.450  0.00  0.00    +0.000 A 
ATOM     20  C   LIG    1       22.377 -19.876   4.749  0.00  0.00    +0.000 A 
ATOM     21  C   LIG    1       22.372 -18.500   4.544  0.00  0.00    +0.000 A 
ATOM     22  C   LIG    1       23.521 -17.855   4.080  0.00  0.00    +0.004 A 
ENDBRANCH   1  17
BRANCH   1  23
ATOM     23  C   LIG    1       25.750 -16.390   2.845  0.00  0.00    +0.028 C 
BRANCH  23  24
ATOM     24  C   LIG    1       24.777 -15.498   3.666  0.00  0.00    +0.086 C 
BRANCH  24  25
ATOM     25  N   LIG    1       24.961 -14.011   3.694  0.00  0.00    -0.297 NA
BRANCH  25  26
ATOM     26  C   LIG    1       24.231 -13.435   4.874  0.00  0.00    +0.051 C 
ATOM     27  C   LIG    1       23.032 -14.233   5.424  0.00  0.00    +0.024 C 
ATOM     28  C   LIG    1       23.797 -11.967   4.795  0.00  0.00    +0.024 C 
ENDBRANCH  25  26
BRANCH  25  29
ATOM     29  C   LIG    1       24.819 -13.371   2.362  0.00  0.00    +0.051 C 
ATOM     30  C   LIG    1       25.394 -11.951   2.199  0.00  0.00    +0.024 C 
ATOM     31  C   LIG    1       23.391 -13.326   1.815  0.00  0.00    +0.024 C 
ENDBRANCH  25  29
ENDBRANCH  24  25
ENDBRANCH  23  24
ENDBRANCH   1  23
TORSDOF 12
ENDMDL
