MODEL 1
REMARK VINA RESULT:       4.3      0.000      0.000
REMARK  Name = *****
REMARK                            x       y       z     vdW  Elec       q    Type
REMARK                         _______ _______ _______ _____ _____    ______ ____
ROOT
ATOM      1  C   LIG    1       26.616 -20.019   5.532  0.00  0.00    +0.021 C 
ATOM      2  C   LIG    1       27.417 -21.136   4.795  0.00  0.00    +0.016 C 
ATOM      3  C   LIG    1       28.936 -20.905   4.826  0.00  0.00    +0.001 C 
ATOM      4  C   LIG    1       29.452 -20.861   6.257  0.00  0.00    +0.000 C 
ATOM      5  C   LIG    1       28.763 -19.769   7.062  0.00  0.00    +0.001 C 
ATOM      6  C   LIG    1       27.247 -19.882   6.976  0.00  0.00    +0.016 C 
ENDROOT
BRANCH   1  10
ATOM      7  C   LIG    1       26.907 -16.113   3.378  0.00  0.00    +0.122 A 
ATOM      8  C   LIG    1       27.932 -16.592   4.180  0.00  0.00    +0.046 A 
ATOM      9  C   LIG    1       27.823 -17.810   4.879  0.00  0.00    +0.008 A 
ATOM     10  C   LIG    1       26.711 -18.654   4.746  0.00  0.00    -0.037 A 
ATOM     11  C   LIG    1       25.691 -18.173   3.895  0.00  0.00    +0.008 A 
ATOM     12  C   LIG    1       25.788 -16.930   3.228  0.00  0.00    +0.046 A 
BRANCH   7  13
ATOM     13  O   LIG    1       26.886 -14.915   2.708  0.00  0.00    -0.475 OA
BRANCH  13  14
ATOM     14  C   LIG    1       26.726 -13.644   3.367  0.00  0.00    +0.203 C 
ATOM     15  C   LIG    1       25.760 -13.761   4.565  0.00  0.00    +0.068 C 
BRANCH  14  17
ATOM     16  C   LIG    1       24.566 -13.115   1.973  0.00  0.00    +0.008 C 
ATOM     17  C   LIG    1       25.991 -12.717   2.341  0.00  0.00    +0.056 C 
ENDBRANCH  14  17
BRANCH  14  18
ATOM     18  C   LIG    1       28.074 -12.962   3.825  0.00  0.00    +0.349 C 
ATOM     19  O   LIG    1       28.233 -12.360   4.838  0.00  0.00    -0.246 OA
BRANCH  18  20
ATOM     20  O   LIG    1       29.100 -13.062   2.937  0.00  0.00    -0.478 OA
ATOM     21  H   LIG    1       28.989 -13.662   2.188  0.00  0.00    +0.295 HD
ENDBRANCH  18  20
ENDBRANCH  14  18
ENDBRANCH  13  14
ENDBRANCH   7  13
ENDBRANCH   1  10
BRANCH   1  22
ATOM     22  C   LIG    1       25.122 -20.493   5.709  0.00  0.00    -0.033 A 
ATOM     23  C   LIG    1       24.108 -20.068   4.827  0.00  0.00    +0.050 A 
ATOM     24  C   LIG    1       22.744 -20.296   5.049  0.00  0.00    +0.122 A 
ATOM     25  C   LIG    1       22.384 -21.012   6.203  0.00  0.00    +0.045 A 
ATOM     26  C   LIG    1       23.369 -21.555   7.035  0.00  0.00    +0.004 A 
ATOM     27  C   LIG    1       24.717 -21.331   6.762  0.00  0.00    +0.005 A 
BRANCH  24  28
ATOM     28  O   LIG    1       21.712 -19.821   4.270  0.00  0.00    -0.475 OA
BRANCH  28  29
ATOM     29  C   LIG    1       21.583 -18.436   3.854  0.00  0.00    +0.203 C 
ATOM     30  C   LIG    1       22.179 -18.255   2.439  0.00  0.00    +0.068 C 
BRANCH  29  31
ATOM     31  C   LIG    1       22.130 -17.341   4.790  0.00  0.00    +0.349 C 
ATOM     32  O   LIG    1       22.292 -17.501   6.015  0.00  0.00    -0.246 OA
BRANCH  31  33
ATOM     33  O   LIG    1       22.442 -16.176   4.190  0.00  0.00    -0.478 OA
ATOM     34  H   LIG    1       23.033 -16.289   3.412  0.00  0.00    +0.295 HD
ENDBRANCH  31  33
ENDBRANCH  29  31
BRANCH  29  35
ATOM     35  C   LIG    1       20.044 -18.155   3.752  0.00  0.00    +0.056 C 
ATOM     36  C   LIG    1       19.350 -18.711   2.501  0.00  0.00    +0.008 C 
ENDBRANCH  29  35
ENDBRANCH  28  29
ENDBRANCH  24  28
ENDBRANCH   1  22
TORSDOF 12
ENDMDL
MODEL 2
REMARK VINA RESULT:       4.4      0.852      1.511
REMARK  Name = *****
REMARK                            x       y       z     vdW  Elec       q    Type
REMARK                         _______ _______ _______ _____ _____    ______ ____
ROOT
ATOM      1  C   LIG    1       26.630 -19.891   5.571  0.00  0.00    +0.021 C 
ATOM      2  C   LIG    1       27.416 -21.039   4.865  0.00  0.00    +0.016 C 
ATOM      3  C   LIG    1       28.936 -20.814   4.866  0.00  0.00    +0.001 C 
ATOM      4  C   LIG    1       29.473 -20.720   6.287  0.00  0.00    +0.000 C 
ATOM      5  C   LIG    1       28.800 -19.595   7.060  0.00  0.00    +0.001 C 
ATOM      6  C   LIG    1       27.283 -19.704   7.000  0.00  0.00    +0.016 C 
ENDROOT
BRANCH   1  10
ATOM      7  C   LIG    1       26.900 -16.069   3.271  0.00  0.00    +0.122 A 
ATOM      8  C   LIG    1       27.903 -16.482   4.137  0.00  0.00    +0.046 A 
ATOM      9  C   LIG    1       27.798 -17.674   4.880  0.00  0.00    +0.008 A 
ATOM     10  C   LIG    1       26.720 -18.557   4.734  0.00  0.00    -0.037 A 
ATOM     11  C   LIG    1       25.725 -18.145   3.819  0.00  0.00    +0.008 A 
ATOM     12  C   LIG    1       25.815 -16.927   3.105  0.00  0.00    +0.046 A 
BRANCH   7  13
ATOM     13  O   LIG    1       26.874 -14.901   2.550  0.00  0.00    -0.475 OA
BRANCH  13  14
ATOM     14  C   LIG    1       26.785 -13.599   3.160  0.00  0.00    +0.203 C 
ATOM     15  C   LIG    1       26.435 -12.521   2.111  0.00  0.00    +0.068 C 
BRANCH  14  17
ATOM     16  C   LIG    1       28.345 -12.201   4.740  0.00  0.00    +0.008 C 
ATOM     17  C   LIG    1       28.234 -13.246   3.637  0.00  0.00    +0.056 C 
ENDBRANCH  14  17
BRANCH  14  18
ATOM     18  C   LIG    1       25.789 -13.507   4.381  0.00  0.00    +0.349 C 
ATOM     19  O   LIG    1       26.050 -13.786   5.507  0.00  0.00    -0.246 OA
BRANCH  18  20
ATOM     20  O   LIG    1       24.526 -13.111   4.065  0.00  0.00    -0.478 OA
ATOM     21  H   LIG    1       24.405 -12.602   3.252  0.00  0.00    +0.295 HD
ENDBRANCH  18  20
ENDBRANCH  14  18
ENDBRANCH  13  14
ENDBRANCH   7  13
ENDBRANCH   1  10
BRANCH   1  22
ATOM     22  C   LIG    1       25.137 -20.352   5.787  0.00  0.00    -0.033 A 
ATOM     23  C   LIG    1       24.078 -19.767   5.064  0.00  0.00    +0.050 A 
ATOM     24  C   LIG    1       22.726 -19.995   5.353  0.00  0.00    +0.122 A 
ATOM     25  C   LIG    1       22.425 -20.877   6.404  0.00  0.00    +0.045 A 
ATOM     26  C   LIG    1       23.448 -21.570   7.062  0.00  0.00    +0.004 A 
ATOM     27  C   LIG    1       24.781 -21.337   6.723  0.00  0.00    +0.005 A 
BRANCH  24  28
ATOM     28  O   LIG    1       21.658 -19.377   4.741  0.00  0.00    -0.475 OA
BRANCH  28  29
ATOM     29  C   LIG    1       21.770 -18.169   3.944  0.00  0.00    +0.203 C 
ATOM     30  C   LIG    1       22.653 -18.438   2.703  0.00  0.00    +0.068 C 
BRANCH  29  31
ATOM     31  C   LIG    1       22.239 -16.877   4.642  0.00  0.00    +0.349 C 
ATOM     32  O   LIG    1       21.819 -16.505   5.753  0.00  0.00    -0.246 OA
BRANCH  31  33
ATOM     33  O   LIG    1       23.161 -16.163   3.968  0.00  0.00    -0.478 OA
ATOM     34  H   LIG    1       24.020 -16.633   3.873  0.00  0.00    +0.295 HD
ENDBRANCH  31  33
ENDBRANCH  29  31
BRANCH  29  35
ATOM     35  C   LIG    1       20.324 -17.852   3.428  0.00  0.00    +0.056 C 
ATOM     36  C   LIG    1       19.425 -19.072   3.186  0.00  0.00    +0.008 C 
ENDBRANCH  29  35
ENDBRANCH  28  29
ENDBRANCH  24  28
ENDBRANCH   1  22
TORSDOF 12
ENDMDL
MODEL 3
REMARK VINA RESULT:       7.0      1.920      5.026
REMARK  Name = *****
REMARK                            x       y       z     vdW  Elec       q    Type
REMARK                         _______ _______ _______ _____ _____    ______ ____
ROOT
ATOM      1  C   LIG    1       22.803 -18.524   4.339  0.00  0.00    +0.021 C 
ATOM      2  C   LIG    1       21.456 -17.937   4.863  0.00  0.00    +0.016 C 
ATOM      3  C   LIG    1       20.667 -17.185   3.779  0.00  0.00    +0.001 C 
ATOM      4  C   LIG    1       20.327 -18.102   2.615  0.00  0.00    +0.000 C 
ATOM      5  C   LIG    1       21.581 -18.702   1.996  0.00  0.00    +0.001 C 
ATOM      6  C   LIG    1       22.460 -19.367   3.045  0.00  0.00    +0.016 C 
ENDROOT
BRANCH   1  10
ATOM      7  C   LIG    1       25.622 -15.200   3.348  0.00  0.00    +0.122 A 
ATOM      8  C   LIG    1       24.441 -14.984   4.044  0.00  0.00    +0.046 A 
ATOM      9  C   LIG    1       23.544 -16.032   4.328  0.00  0.00    +0.008 A 
ATOM     10  C   LIG    1       23.820 -17.366   4.001  0.00  0.00    -0.037 A 
ATOM     11  C   LIG    1       25.044 -17.579   3.328  0.00  0.00    +0.008 A 
ATOM     12  C   LIG    1       25.924 -16.518   3.009  0.00  0.00    +0.046 A 
BRANCH   7  13
ATOM     13  O   LIG    1       26.531 -14.245   2.966  0.00  0.00    -0.475 OA
BRANCH  13  14
ATOM     14  C   LIG    1       27.007 -13.210   3.848  0.00  0.00    +0.203 C 
ATOM     15  C   LIG    1       26.862 -13.635   5.326  0.00  0.00    +0.068 C 
BRANCH  14  17
ATOM     16  C   LIG    1       25.476 -11.781   2.267  0.00  0.00    +0.008 C 
ATOM     17  C   LIG    1       26.020 -12.007   3.673  0.00  0.00    +0.056 C 
ENDBRANCH  14  17
BRANCH  14  18
ATOM     18  C   LIG    1       28.483 -12.730   3.568  0.00  0.00    +0.349 C 
ATOM     19  O   LIG    1       29.471 -13.319   3.871  0.00  0.00    -0.246 OA
BRANCH  18  20
ATOM     20  O   LIG    1       28.589 -11.515   2.965  0.00  0.00    -0.478 OA
ATOM     21  H   LIG    1       27.837 -10.910   3.038  0.00  0.00    +0.295 HD
ENDBRANCH  18  20
ENDBRANCH  14  18
ENDBRANCH  13  14
ENDBRANCH   7  13
ENDBRANCH   1  10
BRANCH   1  22
ATOM     22  C   LIG    1       23.380 -19.520   5.417  0.00  0.00    -0.033 A 
ATOM     23  C   LIG    1       24.711 -19.418   5.871  0.00  0.00    +0.050 A 
ATOM     24  C   LIG    1       25.332 -20.385   6.672  0.00  0.00    +0.122 A 
ATOM     25  C   LIG    1       24.566 -21.498   7.058  0.00  0.00    +0.045 A 
ATOM     26  C   LIG    1       23.207 -21.571   6.730  0.00  0.00    +0.004 A 
ATOM     27  C   LIG    1       22.619 -20.571   5.956  0.00  0.00    +0.005 A 
BRANCH  24  28
ATOM     28  O   LIG    1       26.653 -20.380   7.062  0.00  0.00    -0.475 OA
BRANCH  28  29
ATOM     29  C   LIG    1       27.770 -20.378   6.135  0.00  0.00    +0.203 C 
ATOM     30  C   LIG    1       28.822 -21.419   6.578  0.00  0.00    +0.068 C 
BRANCH  29  31
ATOM     31  C   LIG    1       28.465 -19.035   5.834  0.00  0.00    +0.349 C 
ATOM     32  O   LIG    1       29.363 -18.551   6.547  0.00  0.00    -0.246 OA
BRANCH  31  33
ATOM     33  O   LIG    1       28.042 -18.407   4.720  0.00  0.00    -0.478 OA
ATOM     34  H   LIG    1       27.086 -18.178   4.745  0.00  0.00    +0.295 HD
ENDBRANCH  31  33
ENDBRANCH  29  31
BRANCH  29  35
ATOM     35  C   LIG    1       27.192 -20.855   4.757  0.00  0.00    +0.056 C 
ATOM     36  C   LIG    1       26.625 -19.749   3.857  0.00  0.00    +0.008 C 
ENDBRANCH  29  35
ENDBRANCH  28  29
ENDBRANCH  24  28
ENDBRANCH   1  22
TORSDOF 12
ENDMDL
