MODEL 1
REMARK VINA RESULT:      -8.0      0.000      0.000
REMARK  Name = *****
REMARK                            x       y       z     vdW  Elec       q    Type
REMARK                         _______ _______ _______ _____ _____    ______ ____
ROOT
ATOM      1  C   LIG    1       25.563 -25.697   6.620  0.00  0.00    +0.162 C 
ENDROOT
BRANCH   1   2
ATOM      2  C   LIG    1       25.140 -27.167   6.527  0.00  0.00    -0.007 A 
ATOM      3  C   LIG    1       25.522 -28.118   7.522  0.00  0.00    +0.009 A 
ATOM      4  C   LIG    1       25.005 -29.434   7.408  0.00  0.00    +0.071 A 
ATOM      5  C   LIG    1       25.359 -30.391   8.345  0.00  0.00    +0.032 A 
ATOM      6  C   LIG    1       26.219 -30.099   9.403  0.00  0.00    +0.048 A 
ATOM      7  C   LIG    1       26.721 -28.814   9.551  0.00  0.00    +0.121 A 
ATOM      8  N   LIG    1       24.180 -29.823   6.429  0.00  0.00    -0.255 NA
ATOM      9  C   LIG    1       23.854 -28.918   5.493  0.00  0.00    +0.112 A 
ATOM     10  C   LIG    1       26.384 -27.835   8.614  0.00  0.00    +0.056 A 
ATOM     11  C   LIG    1       24.319 -27.620   5.485  0.00  0.00    +0.026 A 
BRANCH   7  12
ATOM     12  O   LIG    1       27.562 -28.634  10.614  0.00  0.00    -0.495 OA
ATOM     13  C   LIG    1       27.050 -27.816  11.660  0.00  0.00    +0.277 C 
ENDBRANCH   7  12
ENDBRANCH   1   2
BRANCH   1  17
ATOM     14  C   LIG    1       23.352 -21.936   5.747  0.00  0.00    +0.028 C 
ATOM     15  C   LIG    1       24.778 -22.298   5.244  0.00  0.00    -0.000 C 
ATOM     16  C   LIG    1       24.816 -23.822   4.979  0.00  0.00    +0.026 C 
ATOM     17  C   LIG    1       24.490 -24.593   6.293  0.00  0.00    +0.090 C 
ATOM     18  N   LIG    1       24.213 -23.623   7.392  0.00  0.00    -0.296 NA
ATOM     19  C   LIG    1       25.375 -22.746   7.633  0.00  0.00    +0.085 C 
ATOM     20  C   LIG    1       25.821 -22.041   6.348  0.00  0.00    +0.019 C 
ATOM     21  C   LIG    1       23.054 -22.789   7.004  0.00  0.00    +0.092 C 
BRANCH  14  23
ATOM     22  C   LIG    1       22.638 -19.595   5.159  0.00  0.00    +0.004 C 
ATOM     23  C   LIG    1       23.149 -20.463   6.035  0.00  0.00    -0.029 C 
ENDBRANCH  14  23
ENDBRANCH   1  17
BRANCH   1  24
ATOM     24  O   LIG    1       26.675 -25.478   5.739  0.00  0.00    -0.386 OA
ATOM     25  H   LIG    1       27.482 -25.567   6.274  0.00  0.00    +0.210 HD
ENDBRANCH   1  24
TORSDOF 5
ENDMDL
MODEL 2
REMARK VINA RESULT:      -7.9      5.476      8.724
REMARK  Name = *****
REMARK                            x       y       z     vdW  Elec       q    Type
REMARK                         _______ _______ _______ _____ _____    ______ ____
ROOT
ATOM      1  C   LIG    1       28.334 -20.638   6.571  0.00  0.00    +0.162 C 
ENDROOT
BRANCH   1   2
ATOM      2  C   LIG    1       26.937 -21.018   7.073  0.00  0.00    -0.007 A 
ATOM      3  C   LIG    1       25.762 -20.686   6.333  0.00  0.00    +0.009 A 
ATOM      4  C   LIG    1       24.518 -21.162   6.822  0.00  0.00    +0.071 A 
ATOM      5  C   LIG    1       23.352 -20.852   6.141  0.00  0.00    +0.032 A 
ATOM      6  C   LIG    1       23.363 -20.077   4.983  0.00  0.00    +0.048 A 
ATOM      7  C   LIG    1       24.567 -19.616   4.470  0.00  0.00    +0.121 A 
ATOM      8  N   LIG    1       24.394 -21.906   7.927  0.00  0.00    -0.255 NA
ATOM      9  C   LIG    1       25.509 -22.187   8.619  0.00  0.00    +0.112 A 
ATOM     10  C   LIG    1       25.754 -19.909   5.144  0.00  0.00    +0.056 A 
ATOM     11  C   LIG    1       26.767 -21.752   8.255  0.00  0.00    +0.026 A 
BRANCH   7  12
ATOM     12  O   LIG    1       24.469 -18.857   3.337  0.00  0.00    -0.495 OA
ATOM     13  C   LIG    1       25.466 -17.852   3.192  0.00  0.00    +0.277 C 
ENDBRANCH   7  12
ENDBRANCH   1   2
BRANCH   1  17
ATOM     14  C   LIG    1       31.127 -17.761   8.498  0.00  0.00    +0.028 C 
ATOM     15  C   LIG    1       31.511 -18.855   7.462  0.00  0.00    -0.000 C 
ATOM     16  C   LIG    1       30.342 -18.988   6.456  0.00  0.00    +0.026 C 
ATOM     17  C   LIG    1       29.039 -19.386   7.213  0.00  0.00    +0.090 C 
ATOM     18  N   LIG    1       29.315 -19.486   8.675  0.00  0.00    -0.296 NA
ATOM     19  C   LIG    1       30.352 -20.499   8.953  0.00  0.00    +0.085 C 
ATOM     20  C   LIG    1       31.629 -20.229   8.148  0.00  0.00    +0.019 C 
ATOM     21  C   LIG    1       29.788 -18.170   9.158  0.00  0.00    +0.092 C 
BRANCH  14  23
ATOM     22  C   LIG    1       32.711 -16.296   9.795  0.00  0.00    +0.004 C 
ATOM     23  C   LIG    1       32.188 -17.498   9.547  0.00  0.00    -0.029 C 
ENDBRANCH  14  23
ENDBRANCH   1  17
BRANCH   1  24
ATOM     24  O   LIG    1       28.269 -20.405   5.155  0.00  0.00    -0.386 OA
ATOM     25  H   LIG    1       29.161 -20.142   4.870  0.00  0.00    +0.210 HD
ENDBRANCH   1  24
TORSDOF 5
ENDMDL
MODEL 3
REMARK VINA RESULT:      -7.8      2.924      7.130
REMARK  Name = *****
REMARK                            x       y       z     vdW  Elec       q    Type
REMARK                         _______ _______ _______ _____ _____    ______ ____
ROOT
ATOM      1  C   LIG    1       24.754 -23.199   6.608  0.00  0.00    +0.162 C 
ENDROOT
BRANCH   1   2
ATOM      2  C   LIG    1       25.242 -21.923   5.915  0.00  0.00    -0.007 A 
ATOM      3  C   LIG    1       26.492 -21.321   6.255  0.00  0.00    +0.009 A 
ATOM      4  C   LIG    1       26.910 -20.198   5.496  0.00  0.00    +0.071 A 
ATOM      5  C   LIG    1       28.110 -19.576   5.800  0.00  0.00    +0.032 A 
ATOM      6  C   LIG    1       28.923 -20.020   6.841  0.00  0.00    +0.048 A 
ATOM      7  C   LIG    1       28.549 -21.130   7.586  0.00  0.00    +0.121 A 
ATOM      8  N   LIG    1       26.203 -19.686   4.482  0.00  0.00    -0.255 NA
ATOM      9  C   LIG    1       25.022 -20.254   4.195  0.00  0.00    +0.112 A 
ATOM     10  C   LIG    1       27.339 -21.768   7.303  0.00  0.00    +0.056 A 
ATOM     11  C   LIG    1       24.501 -21.330   4.884  0.00  0.00    +0.026 A 
BRANCH   7  12
ATOM     12  O   LIG    1       29.409 -21.479   8.590  0.00  0.00    -0.495 OA
ATOM     13  C   LIG    1       30.708 -20.903   8.502  0.00  0.00    +0.277 C 
ENDBRANCH   7  12
ENDBRANCH   1   2
BRANCH   1  17
ATOM     14  C   LIG    1       24.719 -27.351   5.006  0.00  0.00    +0.028 C 
ATOM     15  C   LIG    1       24.385 -26.930   6.466  0.00  0.00    -0.000 C 
ATOM     16  C   LIG    1       23.671 -25.557   6.413  0.00  0.00    +0.026 C 
ATOM     17  C   LIG    1       24.603 -24.504   5.741  0.00  0.00    +0.090 C 
ATOM     18  N   LIG    1       25.882 -25.152   5.330  0.00  0.00    -0.296 NA
ATOM     19  C   LIG    1       26.583 -25.731   6.492  0.00  0.00    +0.085 C 
ATOM     20  C   LIG    1       25.679 -26.695   7.268  0.00  0.00    +0.019 C 
ATOM     21  C   LIG    1       25.577 -26.232   4.366  0.00  0.00    +0.092 C 
BRANCH  14  23
ATOM     22  C   LIG    1       25.000 -29.801   5.511  0.00  0.00    +0.004 C 
ATOM     23  C   LIG    1       25.410 -28.694   4.889  0.00  0.00    -0.029 C 
ENDBRANCH  14  23
ENDBRANCH   1  17
BRANCH   1  24
ATOM     24  O   LIG    1       23.473 -22.941   7.205  0.00  0.00    -0.386 OA
ATOM     25  H   LIG    1       23.572 -22.142   7.751  0.00  0.00    +0.210 HD
ENDBRANCH   1  24
TORSDOF 5
ENDMDL
MODEL 4
REMARK VINA RESULT:      -7.7      4.242      6.843
REMARK  Name = *****
REMARK                            x       y       z     vdW  Elec       q    Type
REMARK                         _______ _______ _______ _____ _____    ______ ____
ROOT
ATOM      1  C   LIG    1       27.803 -21.402   7.423  0.00  0.00    +0.162 C 
ENDROOT
BRANCH   1   2
ATOM      2  C   LIG    1       26.284 -21.539   7.272  0.00  0.00    -0.007 A 
ATOM      3  C   LIG    1       25.673 -22.800   6.995  0.00  0.00    +0.009 A 
ATOM      4  C   LIG    1       24.255 -22.853   6.968  0.00  0.00    +0.071 A 
ATOM      5  C   LIG    1       23.621 -24.053   6.692  0.00  0.00    +0.032 A 
ATOM      6  C   LIG    1       24.339 -25.219   6.432  0.00  0.00    +0.048 A 
ATOM      7  C   LIG    1       25.726 -25.201   6.473  0.00  0.00    +0.121 A 
ATOM      8  N   LIG    1       23.471 -21.792   7.195  0.00  0.00    -0.255 NA
ATOM      9  C   LIG    1       24.068 -20.614   7.431  0.00  0.00    +0.112 A 
ATOM     10  C   LIG    1       26.387 -24.000   6.741  0.00  0.00    +0.056 A 
ATOM     11  C   LIG    1       25.436 -20.438   7.451  0.00  0.00    +0.026 A 
BRANCH   7  12
ATOM     12  O   LIG    1       26.335 -26.392   6.194  0.00  0.00    -0.495 OA
ATOM     13  C   LIG    1       26.038 -26.941   4.915  0.00  0.00    +0.277 C 
ENDBRANCH   7  12
ENDBRANCH   1   2
BRANCH   1  17
ATOM     14  C   LIG    1       30.312 -17.853   8.373  0.00  0.00    +0.028 C 
ATOM     15  C   LIG    1       30.364 -18.686   7.061  0.00  0.00    -0.000 C 
ATOM     16  C   LIG    1       28.925 -19.157   6.740  0.00  0.00    +0.026 C 
ATOM     17  C   LIG    1       28.379 -20.022   7.914  0.00  0.00    +0.090 C 
ATOM     18  N   LIG    1       29.402 -20.105   8.998  0.00  0.00    -0.296 NA
ATOM     19  C   LIG    1       30.653 -20.711   8.504  0.00  0.00    +0.085 C 
ATOM     20  C   LIG    1       31.185 -19.971   7.271  0.00  0.00    +0.019 C 
ATOM     21  C   LIG    1       29.690 -18.737   9.481  0.00  0.00    +0.092 C 
BRANCH  14  23
ATOM     22  C   LIG    1       32.070 -17.278  10.080  0.00  0.00    +0.004 C 
ATOM     23  C   LIG    1       31.652 -17.301   8.813  0.00  0.00    -0.029 C 
ENDBRANCH  14  23
ENDBRANCH   1  17
BRANCH   1  24
ATOM     24  O   LIG    1       28.422 -21.691   6.160  0.00  0.00    -0.386 OA
ATOM     25  H   LIG    1       28.240 -22.626   5.963  0.00  0.00    +0.210 HD
ENDBRANCH   1  24
TORSDOF 5
ENDMDL
MODEL 5
REMARK VINA RESULT:      -7.0      3.555      7.248
REMARK  Name = *****
REMARK                            x       y       z     vdW  Elec       q    Type
REMARK                         _______ _______ _______ _____ _____    ______ ____
ROOT
ATOM      1  C   LIG    1       24.707 -21.228   7.703  0.00  0.00    +0.162 C 
ENDROOT
BRANCH   1   2
ATOM      2  C   LIG    1       25.467 -20.529   6.571  0.00  0.00    -0.007 A 
ATOM      3  C   LIG    1       26.875 -20.300   6.647  0.00  0.00    +0.009 A 
ATOM      4  C   LIG    1       27.513 -19.736   5.513  0.00  0.00    +0.071 A 
ATOM      5  C   LIG    1       28.875 -19.486   5.549  0.00  0.00    +0.032 A 
ATOM      6  C   LIG    1       29.643 -19.770   6.677  0.00  0.00    +0.048 A 
ATOM      7  C   LIG    1       29.049 -20.343   7.792  0.00  0.00    +0.121 A 
ATOM      8  N   LIG    1       26.869 -19.418   4.384  0.00  0.00    -0.255 NA
ATOM      9  C   LIG    1       25.543 -19.621   4.343  0.00  0.00    +0.112 A 
ATOM     10  C   LIG    1       27.676 -20.596   7.781  0.00  0.00    +0.056 A 
ATOM     11  C   LIG    1       24.813 -20.135   5.395  0.00  0.00    +0.026 A 
BRANCH   7  12
ATOM     12  O   LIG    1       29.886 -20.573   8.848  0.00  0.00    -0.495 OA
ATOM     13  C   LIG    1       31.065 -19.776   8.873  0.00  0.00    +0.277 C 
ENDBRANCH   7  12
ENDBRANCH   1   2
BRANCH   1  17
ATOM     14  C   LIG    1       24.531 -25.504   6.484  0.00  0.00    +0.028 C 
ATOM     15  C   LIG    1       25.674 -24.503   6.152  0.00  0.00    -0.000 C 
ATOM     16  C   LIG    1       25.835 -23.547   7.358  0.00  0.00    +0.026 C 
ATOM     17  C   LIG    1       24.499 -22.785   7.608  0.00  0.00    +0.090 C 
ATOM     18  N   LIG    1       23.470 -23.235   6.626  0.00  0.00    -0.296 NA
ATOM     19  C   LIG    1       23.909 -22.980   5.240  0.00  0.00    +0.085 C 
ATOM     20  C   LIG    1       25.279 -23.610   4.962  0.00  0.00    +0.019 C 
ATOM     21  C   LIG    1       23.254 -24.688   6.800  0.00  0.00    +0.092 C 
BRANCH  14  23
ATOM     22  C   LIG    1       24.377 -27.844   5.572  0.00  0.00    +0.004 C 
ATOM     23  C   LIG    1       24.264 -26.526   5.399  0.00  0.00    -0.029 C 
ENDBRANCH  14  23
ENDBRANCH   1  17
BRANCH   1  24
ATOM     24  O   LIG    1       23.404 -20.635   7.820  0.00  0.00    -0.386 OA
ATOM     25  H   LIG    1       23.513 -19.805   8.314  0.00  0.00    +0.210 HD
ENDBRANCH   1  24
TORSDOF 5
ENDMDL
MODEL 6
REMARK VINA RESULT:      -7.0      4.908      8.380
REMARK  Name = *****
REMARK                            x       y       z     vdW  Elec       q    Type
REMARK                         _______ _______ _______ _____ _____    ______ ____
ROOT
ATOM      1  C   LIG    1       28.083 -20.336   6.581  0.00  0.00    +0.162 C 
ENDROOT
BRANCH   1   2
ATOM      2  C   LIG    1       27.020 -19.966   5.542  0.00  0.00    -0.007 A 
ATOM      3  C   LIG    1       25.714 -20.543   5.571  0.00  0.00    +0.009 A 
ATOM      4  C   LIG    1       24.763 -20.070   4.631  0.00  0.00    +0.071 A 
ATOM      5  C   LIG    1       23.488 -20.611   4.616  0.00  0.00    +0.032 A 
ATOM      6  C   LIG    1       23.109 -21.618   5.502  0.00  0.00    +0.048 A 
ATOM      7  C   LIG    1       24.012 -22.084   6.447  0.00  0.00    +0.121 A 
ATOM      8  N   LIG    1       25.025 -19.113   3.732  0.00  0.00    -0.255 NA
ATOM      9  C   LIG    1       26.265 -18.602   3.708  0.00  0.00    +0.112 A 
ATOM     10  C   LIG    1       25.306 -21.559   6.474  0.00  0.00    +0.056 A 
ATOM     11  C   LIG    1       27.278 -19.006   4.554  0.00  0.00    +0.026 A 
BRANCH   7  12
ATOM     12  O   LIG    1       23.546 -23.078   7.261  0.00  0.00    -0.495 OA
ATOM     13  C   LIG    1       23.458 -24.365   6.658  0.00  0.00    +0.277 C 
ENDBRANCH   7  12
ENDBRANCH   1   2
BRANCH   1  17
ATOM     14  C   LIG    1       31.200 -17.817   8.514  0.00  0.00    +0.028 C 
ATOM     15  C   LIG    1       31.453 -18.967   7.497  0.00  0.00    -0.000 C 
ATOM     16  C   LIG    1       30.290 -18.962   6.476  0.00  0.00    +0.026 C 
ATOM     17  C   LIG    1       28.936 -19.177   7.218  0.00  0.00    +0.090 C 
ATOM     18  N   LIG    1       29.178 -19.292   8.685  0.00  0.00    -0.296 NA
ATOM     19  C   LIG    1       30.072 -20.425   8.991  0.00  0.00    +0.085 C 
ATOM     20  C   LIG    1       31.382 -20.334   8.202  0.00  0.00    +0.019 C 
ATOM     21  C   LIG    1       29.811 -18.041   9.159  0.00  0.00    +0.092 C 
BRANCH  14  23
ATOM     22  C   LIG    1       32.041 -17.249  10.817  0.00  0.00    +0.004 C 
ATOM     23  C   LIG    1       32.272 -17.679   9.575  0.00  0.00    -0.029 C 
ENDBRANCH  14  23
ENDBRANCH   1  17
BRANCH   1  24
ATOM     24  O   LIG    1       29.007 -21.263   5.989  0.00  0.00    -0.386 OA
ATOM     25  H   LIG    1       29.009 -21.088   5.032  0.00  0.00    +0.210 HD
ENDBRANCH   1  24
TORSDOF 5
ENDMDL
MODEL 7
REMARK VINA RESULT:      -6.5      5.436      8.611
REMARK  Name = *****
REMARK                            x       y       z     vdW  Elec       q    Type
REMARK                         _______ _______ _______ _____ _____    ______ ____
ROOT
ATOM      1  C   LIG    1       28.170 -21.197   6.794  0.00  0.00    +0.162 C 
ENDROOT
BRANCH   1   2
ATOM      2  C   LIG    1       26.684 -21.344   7.133  0.00  0.00    -0.007 A 
ATOM      3  C   LIG    1       25.667 -20.842   6.265  0.00  0.00    +0.009 A 
ATOM      4  C   LIG    1       24.316 -21.109   6.609  0.00  0.00    +0.071 A 
ATOM      5  C   LIG    1       23.298 -20.630   5.802  0.00  0.00    +0.032 A 
ATOM      6  C   LIG    1       23.561 -19.883   4.655  0.00  0.00    +0.048 A 
ATOM      7  C   LIG    1       24.873 -19.626   4.283  0.00  0.00    +0.121 A 
ATOM      8  N   LIG    1       23.953 -21.808   7.691  0.00  0.00    -0.255 NA
ATOM      9  C   LIG    1       24.925 -22.251   8.503  0.00  0.00    +0.112 A 
ATOM     10  C   LIG    1       25.916 -20.092   5.086  0.00  0.00    +0.056 A 
ATOM     11  C   LIG    1       26.268 -22.025   8.286  0.00  0.00    +0.026 A 
BRANCH   7  12
ATOM     12  O   LIG    1       25.024 -18.878   3.149  0.00  0.00    -0.495 OA
ATOM     13  C   LIG    1       25.886 -17.752   3.275  0.00  0.00    +0.277 C 
ENDBRANCH   7  12
ENDBRANCH   1   2
BRANCH   1  17
ATOM     14  C   LIG    1       30.940 -18.767   9.289  0.00  0.00    +0.028 C 
ATOM     15  C   LIG    1       29.736 -18.227   8.466  0.00  0.00    -0.000 C 
ATOM     16  C   LIG    1       28.614 -19.292   8.510  0.00  0.00    +0.026 C 
ATOM     17  C   LIG    1       29.133 -20.629   7.902  0.00  0.00    +0.090 C 
ATOM     18  N   LIG    1       30.560 -20.477   7.493  0.00  0.00    -0.296 NA
ATOM     19  C   LIG    1       30.716 -19.408   6.489  0.00  0.00    +0.085 C 
ATOM     20  C   LIG    1       30.119 -18.085   6.981  0.00  0.00    +0.019 C 
ATOM     21  C   LIG    1       31.359 -20.131   8.689  0.00  0.00    +0.092 C 
BRANCH  14  23
ATOM     22  C   LIG    1       32.023 -16.526   9.663  0.00  0.00    +0.004 C 
ATOM     23  C   LIG    1       32.121 -17.822   9.358  0.00  0.00    -0.029 C 
ENDBRANCH  14  23
ENDBRANCH   1  17
BRANCH   1  24
ATOM     24  O   LIG    1       28.300 -20.343   5.646  0.00  0.00    -0.386 OA
ATOM     25  H   LIG    1       27.455 -19.873   5.546  0.00  0.00    +0.210 HD
ENDBRANCH   1  24
TORSDOF 5
ENDMDL
MODEL 8
REMARK VINA RESULT:      -6.5      4.183      7.596
REMARK  Name = *****
REMARK                            x       y       z     vdW  Elec       q    Type
REMARK                         _______ _______ _______ _____ _____    ______ ____
ROOT
ATOM      1  C   LIG    1       25.707 -20.887   8.104  0.00  0.00    +0.162 C 
ENDROOT
BRANCH   1   2
ATOM      2  C   LIG    1       25.371 -21.954   7.058  0.00  0.00    -0.007 A 
ATOM      3  C   LIG    1       24.786 -21.609   5.801  0.00  0.00    +0.009 A 
ATOM      4  C   LIG    1       24.599 -22.648   4.854  0.00  0.00    +0.071 A 
ATOM      5  C   LIG    1       24.023 -22.359   3.627  0.00  0.00    +0.032 A 
ATOM      6  C   LIG    1       23.614 -21.069   3.295  0.00  0.00    +0.048 A 
ATOM      7  C   LIG    1       23.805 -20.030   4.194  0.00  0.00    +0.121 A 
ATOM      8  N   LIG    1       24.948 -23.921   5.074  0.00  0.00    -0.255 NA
ATOM      9  C   LIG    1       25.475 -24.226   6.269  0.00  0.00    +0.112 A 
ATOM     10  C   LIG    1       24.375 -20.299   5.439  0.00  0.00    +0.056 A 
ATOM     11  C   LIG    1       25.675 -23.305   7.277  0.00  0.00    +0.026 A 
BRANCH   7  12
ATOM     12  O   LIG    1       23.361 -18.806   3.776  0.00  0.00    -0.495 OA
ATOM     13  C   LIG    1       22.194 -18.327   4.436  0.00  0.00    +0.277 C 
ENDBRANCH   7  12
ENDBRANCH   1   2
BRANCH   1  17
ATOM     14  C   LIG    1       29.610 -19.064   6.990  0.00  0.00    +0.028 C 
ATOM     15  C   LIG    1       28.874 -20.195   6.217  0.00  0.00    -0.000 C 
ATOM     16  C   LIG    1       27.352 -19.934   6.328  0.00  0.00    +0.026 C 
ATOM     17  C   LIG    1       26.926 -19.931   7.827  0.00  0.00    +0.090 C 
ATOM     18  N   LIG    1       28.122 -20.151   8.692  0.00  0.00    -0.296 NA
ATOM     19  C   LIG    1       28.770 -21.441   8.386  0.00  0.00    +0.085 C 
ATOM     20  C   LIG    1       29.114 -21.556   6.897  0.00  0.00    +0.019 C 
ATOM     21  C   LIG    1       29.089 -19.059   8.448  0.00  0.00    +0.092 C 
BRANCH  14  23
ATOM     22  C   LIG    1       31.914 -18.826   7.974  0.00  0.00    +0.004 C 
ATOM     23  C   LIG    1       31.120 -19.170   6.957  0.00  0.00    -0.029 C 
ENDBRANCH  14  23
ENDBRANCH   1  17
BRANCH   1  24
ATOM     24  O   LIG    1       25.957 -21.535   9.361  0.00  0.00    -0.386 OA
ATOM     25  H   LIG    1       25.205 -21.326   9.942  0.00  0.00    +0.210 HD
ENDBRANCH   1  24
TORSDOF 5
ENDMDL
MODEL 9
REMARK VINA RESULT:      -6.4      4.928      8.073
REMARK  Name = *****
REMARK                            x       y       z     vdW  Elec       q    Type
REMARK                         _______ _______ _______ _____ _____    ______ ____
ROOT
ATOM      1  C   LIG    1       27.060 -21.903   7.734  0.00  0.00    +0.162 C 
ENDROOT
BRANCH   1   2
ATOM      2  C   LIG    1       28.494 -21.365   7.744  0.00  0.00    -0.007 A 
ATOM      3  C   LIG    1       28.886 -20.268   6.917  0.00  0.00    +0.009 A 
ATOM      4  C   LIG    1       30.207 -19.773   7.061  0.00  0.00    +0.071 A 
ATOM      5  C   LIG    1       30.632 -18.718   6.270  0.00  0.00    +0.032 A 
ATOM      6  C   LIG    1       29.796 -18.127   5.325  0.00  0.00    +0.048 A 
ATOM      7  C   LIG    1       28.492 -18.578   5.177  0.00  0.00    +0.121 A 
ATOM      8  N   LIG    1       31.093 -20.272   7.931  0.00  0.00    -0.255 NA
ATOM      9  C   LIG    1       30.710 -21.316   8.682  0.00  0.00    +0.112 A 
ATOM     10  C   LIG    1       28.044 -19.645   5.958  0.00  0.00    +0.056 A 
ATOM     11  C   LIG    1       29.462 -21.899   8.606  0.00  0.00    +0.026 A 
BRANCH   7  12
ATOM     12  O   LIG    1       27.757 -17.939   4.217  0.00  0.00    -0.495 OA
ATOM     13  C   LIG    1       27.793 -16.517   4.272  0.00  0.00    +0.277 C 
ENDBRANCH   7  12
ENDBRANCH   1   2
BRANCH   1  17
ATOM     14  C   LIG    1       23.346 -20.383   5.811  0.00  0.00    +0.028 C 
ATOM     15  C   LIG    1       23.435 -21.113   7.181  0.00  0.00    -0.000 C 
ATOM     16  C   LIG    1       24.760 -20.691   7.859  0.00  0.00    +0.026 C 
ATOM     17  C   LIG    1       25.965 -21.085   6.953  0.00  0.00    +0.090 C 
ATOM     18  N   LIG    1       25.466 -21.720   5.698  0.00  0.00    -0.296 NA
ATOM     19  C   LIG    1       24.677 -22.932   5.992  0.00  0.00    +0.085 C 
ATOM     20  C   LIG    1       23.539 -22.635   6.974  0.00  0.00    +0.019 C 
ATOM     21  C   LIG    1       24.605 -20.749   4.987  0.00  0.00    +0.092 C 
BRANCH  14  23
ATOM     22  C   LIG    1       21.478 -19.802   4.227  0.00  0.00    +0.004 C 
ATOM     23  C   LIG    1       22.085 -20.681   5.027  0.00  0.00    -0.029 C 
ENDBRANCH  14  23
ENDBRANCH   1  17
BRANCH   1  24
ATOM     24  O   LIG    1       26.603 -22.028   9.090  0.00  0.00    -0.386 OA
ATOM     25  H   LIG    1       26.233 -21.165   9.345  0.00  0.00    +0.210 HD
ENDBRANCH   1  24
TORSDOF 5
ENDMDL
