MODEL 1
REMARK VINA RESULT:      -6.6      0.000      0.000
REMARK  Name = *****
REMARK                            x       y       z     vdW  Elec       q    Type
REMARK                         _______ _______ _______ _____ _____    ______ ____
ROOT
ATOM      1  C   LIG    1       31.149 -20.260   8.890  0.00  0.00    +0.307 C 
ATOM      2  O   LIG    1       32.006 -21.018   9.324  0.00  0.00    -0.251 OA
ENDROOT
BRANCH   1   3
ATOM      3  O   LIG    1       29.815 -20.530   8.814  0.00  0.00    -0.465 OA
BRANCH   3   4
ATOM      4  C   LIG    1       29.401 -21.215   7.625  0.00  0.00    +0.232 C 
BRANCH   4   5
ATOM      5  C   LIG    1       27.910 -21.537   7.680  0.00  0.00    +0.041 C 
BRANCH   5   6
ATOM      6  C   LIG    1       27.061 -20.385   8.219  0.00  0.00    +0.003 C 
BRANCH   6   7
ATOM      7  C   LIG    1       25.565 -20.716   8.281  0.00  0.00    -0.000 C 
BRANCH   7   9
ATOM      8  C   LIG    1       23.394 -20.716   6.930  0.00  0.00    +0.004 C 
ATOM      9  C   LIG    1       24.910 -20.843   6.904  0.00  0.00    -0.003 C 
ENDBRANCH   7   9
ENDBRANCH   6   7
ENDBRANCH   5   6
ENDBRANCH   4   5
ENDBRANCH   3   4
ENDBRANCH   1   3
BRANCH   1  10
ATOM     10  C   LIG    1       31.413 -18.865   8.379  0.00  0.00    +0.128 C 
BRANCH  10  11
ATOM     11  C   LIG    1       30.366 -17.888   8.899  0.00  0.00    +0.086 C 
BRANCH  11  12
ATOM     12  C   LIG    1       30.929 -16.991   9.986  0.00  0.00    +0.147 C 
ATOM     13  O   LIG    1       30.210 -16.521  10.876  0.00  0.00    -0.296 OA
BRANCH  12  14
ATOM     14  C   LIG    1       32.434 -16.750   9.977  0.00  0.00    +0.152 C 
BRANCH  14  15
ATOM     15  N   LIG    1       32.743 -15.683   9.021  0.00  0.00    -0.324 NA
ATOM     16  H   LIG    1       32.324 -14.811   9.342  0.00  0.00    +0.119 HD
ATOM     17  H   LIG    1       33.755 -15.532   9.041  0.00  0.00    +0.119 HD
ENDBRANCH  14  15
ENDBRANCH  12  14
ENDBRANCH  11  12
ENDBRANCH  10  11
ENDBRANCH   1  10
TORSDOF 11
ENDMDL
MODEL 2
REMARK VINA RESULT:      -6.6      1.807      2.474
REMARK  Name = *****
REMARK                            x       y       z     vdW  Elec       q    Type
REMARK                         _______ _______ _______ _____ _____    ______ ____
ROOT
ATOM      1  C   LIG    1       29.429 -19.030   6.457  0.00  0.00    +0.307 C 
ATOM      2  O   LIG    1       30.159 -18.282   5.820  0.00  0.00    -0.251 OA
ENDROOT
BRANCH   1   3
ATOM      3  O   LIG    1       28.342 -19.687   5.963  0.00  0.00    -0.465 OA
BRANCH   3   4
ATOM      4  C   LIG    1       27.669 -20.537   6.900  0.00  0.00    +0.232 C 
BRANCH   4   5
ATOM      5  C   LIG    1       26.210 -20.737   6.496  0.00  0.00    +0.041 C 
BRANCH   5   6
ATOM      6  C   LIG    1       25.238 -20.657   7.674  0.00  0.00    +0.003 C 
BRANCH   6   7
ATOM      7  C   LIG    1       23.772 -20.824   7.259  0.00  0.00    -0.000 C 
BRANCH   7   9
ATOM      8  C   LIG    1       22.599 -19.628   5.329  0.00  0.00    +0.004 C 
ATOM      9  C   LIG    1       23.551 -20.738   5.748  0.00  0.00    -0.003 C 
ENDBRANCH   7   9
ENDBRANCH   6   7
ENDBRANCH   5   6
ENDBRANCH   4   5
ENDBRANCH   3   4
ENDBRANCH   1   3
BRANCH   1  10
ATOM     10  C   LIG    1       29.618 -19.383   7.911  0.00  0.00    +0.128 C 
BRANCH  10  11
ATOM     11  C   LIG    1       30.118 -18.181   8.703  0.00  0.00    +0.086 C 
BRANCH  11  12
ATOM     12  C   LIG    1       31.504 -18.423   9.272  0.00  0.00    +0.147 C 
ATOM     13  O   LIG    1       32.054 -19.527   9.191  0.00  0.00    -0.296 OA
BRANCH  12  14
ATOM     14  C   LIG    1       32.221 -17.226   9.885  0.00  0.00    +0.152 C 
BRANCH  14  15
ATOM     15  N   LIG    1       32.616 -16.305   8.816  0.00  0.00    -0.324 NA
ATOM     16  H   LIG    1       32.040 -15.466   8.865  0.00  0.00    +0.119 HD
ATOM     17  H   LIG    1       33.574 -15.999   9.009  0.00  0.00    +0.119 HD
ENDBRANCH  14  15
ENDBRANCH  12  14
ENDBRANCH  11  12
ENDBRANCH  10  11
ENDBRANCH   1  10
TORSDOF 11
ENDMDL
MODEL 3
REMARK VINA RESULT:      -6.5      2.660      4.482
REMARK  Name = *****
REMARK                            x       y       z     vdW  Elec       q    Type
REMARK                         _______ _______ _______ _____ _____    ______ ____
ROOT
ATOM      1  C   LIG    1       26.098 -21.036   8.386  0.00  0.00    +0.307 C 
ATOM      2  O   LIG    1       25.933 -20.473   9.460  0.00  0.00    -0.251 OA
ENDROOT
BRANCH   1   3
ATOM      3  O   LIG    1       25.539 -22.224   8.019  0.00  0.00    -0.465 OA
BRANCH   3   4
ATOM      4  C   LIG    1       24.686 -22.163   6.868  0.00  0.00    +0.232 C 
BRANCH   4   5
ATOM      5  C   LIG    1       23.371 -21.466   7.208  0.00  0.00    +0.041 C 
BRANCH   5   6
ATOM      6  C   LIG    1       22.905 -20.491   6.125  0.00  0.00    +0.003 C 
BRANCH   6   7
ATOM      7  C   LIG    1       23.920 -20.324   4.988  0.00  0.00    -0.000 C 
BRANCH   7   9
ATOM      8  C   LIG    1       22.292 -18.453   4.370  0.00  0.00    +0.004 C 
ATOM      9  C   LIG    1       23.538 -19.235   3.983  0.00  0.00    -0.003 C 
ENDBRANCH   7   9
ENDBRANCH   6   7
ENDBRANCH   5   6
ENDBRANCH   4   5
ENDBRANCH   3   4
ENDBRANCH   1   3
BRANCH   1  10
ATOM     10  C   LIG    1       26.936 -20.499   7.253  0.00  0.00    +0.128 C 
BRANCH  10  11
ATOM     11  C   LIG    1       28.390 -20.928   7.401  0.00  0.00    +0.086 C 
BRANCH  11  12
ATOM     12  C   LIG    1       29.295 -19.745   7.692  0.00  0.00    +0.147 C 
ATOM     13  O   LIG    1       29.212 -19.109   8.749  0.00  0.00    -0.296 OA
BRANCH  12  14
ATOM     14  C   LIG    1       30.364 -19.416   6.656  0.00  0.00    +0.152 C 
BRANCH  14  15
ATOM     15  N   LIG    1       31.684 -19.717   7.217  0.00  0.00    -0.324 NA
ATOM     16  H   LIG    1       32.338 -19.902   6.458  0.00  0.00    +0.119 HD
ATOM     17  H   LIG    1       32.024 -18.868   7.679  0.00  0.00    +0.119 HD
ENDBRANCH  14  15
ENDBRANCH  12  14
ENDBRANCH  11  12
ENDBRANCH  10  11
ENDBRANCH   1  10
TORSDOF 11
ENDMDL
MODEL 4
REMARK VINA RESULT:      -6.5      2.711      4.049
REMARK  Name = *****
REMARK                            x       y       z     vdW  Elec       q    Type
REMARK                         _______ _______ _______ _____ _____    ______ ____
ROOT
ATOM      1  C   LIG    1       27.752 -20.321   7.449  0.00  0.00    +0.307 C 
ATOM      2  O   LIG    1       27.336 -20.214   8.595  0.00  0.00    -0.251 OA
ENDROOT
BRANCH   1   3
ATOM      3  O   LIG    1       26.981 -20.433   6.331  0.00  0.00    -0.465 OA
BRANCH   3   4
ATOM      4  C   LIG    1       25.785 -21.206   6.494  0.00  0.00    +0.232 C 
BRANCH   4   5
ATOM      5  C   LIG    1       24.628 -20.580   5.718  0.00  0.00    +0.041 C 
BRANCH   5   6
ATOM      6  C   LIG    1       23.256 -20.900   6.315  0.00  0.00    +0.003 C 
BRANCH   6   7
ATOM      7  C   LIG    1       23.295 -22.043   7.337  0.00  0.00    -0.000 C 
BRANCH   7   9
ATOM      8  C   LIG    1       23.827 -24.409   6.529  0.00  0.00    +0.004 C 
ATOM      9  C   LIG    1       22.751 -23.366   6.795  0.00  0.00    -0.003 C 
ENDBRANCH   7   9
ENDBRANCH   6   7
ENDBRANCH   5   6
ENDBRANCH   4   5
ENDBRANCH   3   4
ENDBRANCH   1   3
BRANCH   1  10
ATOM     10  C   LIG    1       29.210 -20.320   7.061  0.00  0.00    +0.128 C 
BRANCH  10  11
ATOM     11  C   LIG    1       30.018 -19.417   7.984  0.00  0.00    +0.086 C 
BRANCH  11  12
ATOM     12  C   LIG    1       31.071 -20.198   8.749  0.00  0.00    +0.147 C 
ATOM     13  O   LIG    1       32.075 -19.647   9.217  0.00  0.00    -0.296 OA
BRANCH  12  14
ATOM     14  C   LIG    1       30.804 -21.680   8.980  0.00  0.00    +0.152 C 
BRANCH  14  15
ATOM     15  N   LIG    1       32.031 -22.435   8.716  0.00  0.00    -0.324 NA
ATOM     16  H   LIG    1       32.747 -22.160   9.387  0.00  0.00    +0.119 HD
ATOM     17  H   LIG    1       31.834 -23.422   8.905  0.00  0.00    +0.119 HD
ENDBRANCH  14  15
ENDBRANCH  12  14
ENDBRANCH  11  12
ENDBRANCH  10  11
ENDBRANCH   1  10
TORSDOF 11
ENDMDL
MODEL 5
REMARK VINA RESULT:      -6.4      2.489      4.181
REMARK  Name = *****
REMARK                            x       y       z     vdW  Elec       q    Type
REMARK                         _______ _______ _______ _____ _____    ______ ____
ROOT
ATOM      1  C   LIG    1       26.740 -21.403   7.972  0.00  0.00    +0.307 C 
ATOM      2  O   LIG    1       26.344 -21.551   9.121  0.00  0.00    -0.251 OA
ENDROOT
BRANCH   1   3
ATOM      3  O   LIG    1       26.388 -22.176   6.907  0.00  0.00    -0.465 OA
BRANCH   3   4
ATOM      4  C   LIG    1       25.520 -23.274   7.214  0.00  0.00    +0.232 C 
BRANCH   4   5
ATOM      5  C   LIG    1       24.152 -23.078   6.565  0.00  0.00    +0.041 C 
BRANCH   5   6
ATOM      6  C   LIG    1       23.274 -22.062   7.298  0.00  0.00    +0.003 C 
BRANCH   6   7
ATOM      7  C   LIG    1       23.318 -20.664   6.669  0.00  0.00    -0.000 C 
BRANCH   7   9
ATOM      8  C   LIG    1       22.416 -19.150   4.818  0.00  0.00    +0.004 C 
ATOM      9  C   LIG    1       22.582 -20.572   5.331  0.00  0.00    -0.003 C 
ENDBRANCH   7   9
ENDBRANCH   6   7
ENDBRANCH   5   6
ENDBRANCH   4   5
ENDBRANCH   3   4
ENDBRANCH   1   3
BRANCH   1  10
ATOM     10  C   LIG    1       27.676 -20.310   7.519  0.00  0.00    +0.128 C 
BRANCH  10  11
ATOM     11  C   LIG    1       28.996 -20.893   7.029  0.00  0.00    +0.086 C 
BRANCH  11  12
ATOM     12  C   LIG    1       30.069 -20.827   8.100  0.00  0.00    +0.147 C 
ATOM     13  O   LIG    1       30.127 -21.658   9.013  0.00  0.00    -0.296 OA
BRANCH  12  14
ATOM     14  C   LIG    1       31.119 -19.731   7.963  0.00  0.00    +0.152 C 
BRANCH  14  15
ATOM     15  N   LIG    1       31.928 -19.686   9.184  0.00  0.00    -0.324 NA
ATOM     16  H   LIG    1       32.914 -19.754   8.937  0.00  0.00    +0.119 HD
ATOM     17  H   LIG    1       31.807 -18.759   9.602  0.00  0.00    +0.119 HD
ENDBRANCH  14  15
ENDBRANCH  12  14
ENDBRANCH  11  12
ENDBRANCH  10  11
ENDBRANCH   1  10
TORSDOF 11
ENDMDL
MODEL 6
REMARK VINA RESULT:      -6.4      2.720      3.808
REMARK  Name = *****
REMARK                            x       y       z     vdW  Elec       q    Type
REMARK                         _______ _______ _______ _____ _____    ______ ____
ROOT
ATOM      1  C   LIG    1       28.294 -19.991   6.152  0.00  0.00    +0.307 C 
ATOM      2  O   LIG    1       28.577 -19.068   5.400  0.00  0.00    -0.251 OA
ENDROOT
BRANCH   1   3
ATOM      3  O   LIG    1       27.074 -20.592   6.245  0.00  0.00    -0.465 OA
BRANCH   3   4
ATOM      4  C   LIG    1       26.881 -21.396   7.416  0.00  0.00    +0.232 C 
BRANCH   4   5
ATOM      5  C   LIG    1       25.588 -21.007   8.129  0.00  0.00    +0.041 C 
BRANCH   5   6
ATOM      6  C   LIG    1       24.350 -21.703   7.561  0.00  0.00    +0.003 C 
BRANCH   6   7
ATOM      7  C   LIG    1       23.298 -20.723   7.029  0.00  0.00    -0.000 C 
BRANCH   7   9
ATOM      8  C   LIG    1       22.513 -19.339   5.028  0.00  0.00    +0.004 C 
ATOM      9  C   LIG    1       23.412 -20.461   5.526  0.00  0.00    -0.003 C 
ENDBRANCH   7   9
ENDBRANCH   6   7
ENDBRANCH   5   6
ENDBRANCH   4   5
ENDBRANCH   3   4
ENDBRANCH   1   3
BRANCH   1  10
ATOM     10  C   LIG    1       29.260 -20.655   7.101  0.00  0.00    +0.128 C 
BRANCH  10  11
ATOM     11  C   LIG    1       30.188 -19.629   7.738  0.00  0.00    +0.086 C 
BRANCH  11  12
ATOM     12  C   LIG    1       31.148 -20.277   8.720  0.00  0.00    +0.147 C 
ATOM     13  O   LIG    1       32.060 -19.635   9.255  0.00  0.00    -0.296 OA
BRANCH  12  14
ATOM     14  C   LIG    1       30.897 -21.738   9.074  0.00  0.00    +0.152 C 
BRANCH  14  15
ATOM     15  N   LIG    1       32.066 -22.533   8.685  0.00  0.00    -0.324 NA
ATOM     16  H   LIG    1       32.231 -22.421   7.686  0.00  0.00    +0.119 HD
ATOM     17  H   LIG    1       32.883 -22.129   9.151  0.00  0.00    +0.119 HD
ENDBRANCH  14  15
ENDBRANCH  12  14
ENDBRANCH  11  12
ENDBRANCH  10  11
ENDBRANCH   1  10
TORSDOF 11
ENDMDL
MODEL 7
REMARK VINA RESULT:      -6.3      1.647      1.924
REMARK  Name = *****
REMARK                            x       y       z     vdW  Elec       q    Type
REMARK                         _______ _______ _______ _____ _____    ______ ____
ROOT
ATOM      1  C   LIG    1       31.255 -19.136   9.009  0.00  0.00    +0.307 C 
ATOM      2  O   LIG    1       32.134 -19.953   9.249  0.00  0.00    -0.251 OA
ENDROOT
BRANCH   1   3
ATOM      3  O   LIG    1       29.936 -19.422   8.819  0.00  0.00    -0.465 OA
BRANCH   3   4
ATOM      4  C   LIG    1       29.674 -20.497   7.907  0.00  0.00    +0.232 C 
BRANCH   4   5
ATOM      5  C   LIG    1       28.820 -20.014   6.736  0.00  0.00    +0.041 C 
BRANCH   5   6
ATOM      6  C   LIG    1       27.395 -20.570   6.758  0.00  0.00    +0.003 C 
BRANCH   6   7
ATOM      7  C   LIG    1       26.710 -20.419   8.121  0.00  0.00    -0.000 C 
BRANCH   7   9
ATOM      8  C   LIG    1       24.695 -21.903   7.597  0.00  0.00    +0.004 C 
ATOM      9  C   LIG    1       25.873 -21.636   8.522  0.00  0.00    -0.003 C 
ENDBRANCH   7   9
ENDBRANCH   6   7
ENDBRANCH   5   6
ENDBRANCH   4   5
ENDBRANCH   3   4
ENDBRANCH   1   3
BRANCH   1  10
ATOM     10  C   LIG    1       31.470 -17.646   8.907  0.00  0.00    +0.128 C 
BRANCH  10  11
ATOM     11  C   LIG    1       32.300 -17.135  10.078  0.00  0.00    +0.086 C 
BRANCH  11  12
ATOM     12  C   LIG    1       31.422 -16.678  11.229  0.00  0.00    +0.147 C 
ATOM     13  O   LIG    1       30.224 -16.420  11.068  0.00  0.00    -0.296 OA
BRANCH  12  14
ATOM     14  C   LIG    1       32.064 -16.619  12.610  0.00  0.00    +0.152 C 
BRANCH  14  15
ATOM     15  N   LIG    1       31.679 -15.365  13.264  0.00  0.00    -0.324 NA
ATOM     16  H   LIG    1       31.022 -15.565  14.016  0.00  0.00    +0.119 HD
ATOM     17  H   LIG    1       32.515 -14.983  13.716  0.00  0.00    +0.119 HD
ENDBRANCH  14  15
ENDBRANCH  12  14
ENDBRANCH  11  12
ENDBRANCH  10  11
ENDBRANCH   1  10
TORSDOF 11
ENDMDL
MODEL 8
REMARK VINA RESULT:      -6.1      2.116      2.915
REMARK  Name = *****
REMARK                            x       y       z     vdW  Elec       q    Type
REMARK                         _______ _______ _______ _____ _____    ______ ____
ROOT
ATOM      1  C   LIG    1       28.687 -19.928   7.009  0.00  0.00    +0.307 C 
ATOM      2  O   LIG    1       28.200 -19.668   5.917  0.00  0.00    -0.251 OA
ENDROOT
BRANCH   1   3
ATOM      3  O   LIG    1       27.987 -20.239   8.137  0.00  0.00    -0.465 OA
BRANCH   3   4
ATOM      4  C   LIG    1       26.659 -20.727   7.911  0.00  0.00    +0.232 C 
BRANCH   4   5
ATOM      5  C   LIG    1       26.648 -22.253   7.853  0.00  0.00    +0.041 C 
BRANCH   5   6
ATOM      6  C   LIG    1       25.775 -22.810   6.726  0.00  0.00    +0.003 C 
BRANCH   6   7
ATOM      7  C   LIG    1       25.312 -24.249   6.978  0.00  0.00    -0.000 C 
BRANCH   7   9
ATOM      8  C   LIG    1       22.867 -23.537   6.754  0.00  0.00    +0.004 C 
ATOM      9  C   LIG    1       23.934 -24.559   6.390  0.00  0.00    -0.003 C 
ENDBRANCH   7   9
ENDBRANCH   6   7
ENDBRANCH   5   6
ENDBRANCH   4   5
ENDBRANCH   3   4
ENDBRANCH   1   3
BRANCH   1  10
ATOM     10  C   LIG    1       30.166 -19.979   7.301  0.00  0.00    +0.128 C 
BRANCH  10  11
ATOM     11  C   LIG    1       30.691 -18.602   7.692  0.00  0.00    +0.086 C 
BRANCH  11  12
ATOM     12  C   LIG    1       31.603 -18.674   8.903  0.00  0.00    +0.147 C 
ATOM     13  O   LIG    1       32.130 -19.736   9.256  0.00  0.00    -0.296 OA
BRANCH  12  14
ATOM     14  C   LIG    1       31.901 -17.366   9.626  0.00  0.00    +0.152 C 
BRANCH  14  15
ATOM     15  N   LIG    1       32.564 -16.446   8.698  0.00  0.00    -0.324 NA
ATOM     16  H   LIG    1       32.607 -16.873   7.774  0.00  0.00    +0.119 HD
ATOM     17  H   LIG    1       31.965 -15.622   8.598  0.00  0.00    +0.119 HD
ENDBRANCH  14  15
ENDBRANCH  12  14
ENDBRANCH  11  12
ENDBRANCH  10  11
ENDBRANCH   1  10
TORSDOF 11
ENDMDL
MODEL 9
REMARK VINA RESULT:      -6.1      7.347      9.118
REMARK  Name = *****
REMARK                            x       y       z     vdW  Elec       q    Type
REMARK                         _______ _______ _______ _____ _____    ______ ____
ROOT
ATOM      1  C   LIG    1       23.925 -23.842   6.658  0.00  0.00    +0.307 C 
ATOM      2  O   LIG    1       22.785 -24.279   6.736  0.00  0.00    -0.251 OA
ENDROOT
BRANCH   1   3
ATOM      3  O   LIG    1       24.455 -22.864   7.445  0.00  0.00    -0.465 OA
BRANCH   3   4
ATOM      4  C   LIG    1       24.612 -21.590   6.807  0.00  0.00    +0.232 C 
BRANCH   4   5
ATOM      5  C   LIG    1       23.298 -20.811   6.828  0.00  0.00    +0.041 C 
BRANCH   5   6
ATOM      6  C   LIG    1       22.664 -20.658   5.444  0.00  0.00    +0.003 C 
BRANCH   6   7
ATOM      7  C   LIG    1       22.556 -19.197   4.989  0.00  0.00    -0.000 C 
BRANCH   7   9
ATOM      8  C   LIG    1       24.779 -19.413   3.745  0.00  0.00    +0.004 C 
ATOM      9  C   LIG    1       23.349 -18.894   3.716  0.00  0.00    -0.003 C 
ENDBRANCH   7   9
ENDBRANCH   6   7
ENDBRANCH   5   6
ENDBRANCH   4   5
ENDBRANCH   3   4
ENDBRANCH   1   3
BRANCH   1  10
ATOM     10  C   LIG    1       24.969 -24.331   5.685  0.00  0.00    +0.128 C 
BRANCH  10  11
ATOM     11  C   LIG    1       25.859 -25.388   6.327  0.00  0.00    +0.086 C 
BRANCH  11  12
ATOM     12  C   LIG    1       25.729 -26.728   5.627  0.00  0.00    +0.147 C 
ATOM     13  O   LIG    1       26.422 -27.017   4.645  0.00  0.00    -0.296 OA
BRANCH  12  14
ATOM     14  C   LIG    1       24.758 -27.735   6.232  0.00  0.00    +0.152 C 
BRANCH  14  15
ATOM     15  N   LIG    1       24.090 -28.465   5.150  0.00  0.00    -0.324 NA
ATOM     16  H   LIG    1       24.172 -29.467   5.320  0.00  0.00    +0.119 HD
ATOM     17  H   LIG    1       23.090 -28.253   5.205  0.00  0.00    +0.119 HD
ENDBRANCH  14  15
ENDBRANCH  12  14
ENDBRANCH  11  12
ENDBRANCH  10  11
ENDBRANCH   1  10
TORSDOF 11
ENDMDL
