MODEL 1
REMARK VINA RESULT:      -5.2      0.000      0.000
REMARK  Name = *****
REMARK                            x       y       z     vdW  Elec       q    Type
REMARK                         _______ _______ _______ _____ _____    ______ ____
ROOT
ATOM      1  C   LIG    1       21.773 -16.079   6.508  0.00  0.00    +0.044 C 
ATOM      2  C   LIG    1       22.394 -16.145   5.136  0.00  0.00    -0.050 C 
ATOM      3  C   LIG    1       23.217 -15.135   4.767  0.00  0.00    +0.003 C 
ENDROOT
BRANCH   3   4
ATOM      4  C   LIG    1       23.938 -14.960   3.520  0.00  0.00    +0.001 C 
ATOM      5  C   LIG    1       24.911 -14.069   3.263  0.00  0.00    +0.003 C 
BRANCH   5   6
ATOM      6  C   LIG    1       25.488 -13.069   4.149  0.00  0.00    -0.044 C 
ATOM      7  C   LIG    1       26.793 -13.045   4.479  0.00  0.00    +0.094 C 
ATOM      8  C   LIG    1       24.523 -12.113   4.807  0.00  0.00    +0.044 C 
BRANCH   7   9
ATOM      9  C   LIG    1       27.827 -13.982   3.997  0.00  0.00    +0.330 C 
ATOM     10  O   LIG    1       27.890 -15.181   4.124  0.00  0.00    -0.246 OA
BRANCH   9  11
ATOM     11  O   LIG    1       28.808 -13.288   3.386  0.00  0.00    -0.477 OA
ATOM     12  H   LIG    1       28.947 -13.796   2.560  0.00  0.00    +0.295 HD
ENDBRANCH   9  11
ENDBRANCH   7   9
ENDBRANCH   5   6
ENDBRANCH   3   4
BRANCH   2  13
ATOM     13  C   LIG    1       22.036 -17.243   4.245  0.00  0.00    +0.003 C 
ATOM     14  C   LIG    1       22.537 -18.469   4.014  0.00  0.00    +0.004 C 
BRANCH  14  15
ATOM     15  C   LIG    1       23.659 -19.243   4.544  0.00  0.00    -0.043 C 
ATOM     16  C   LIG    1       23.255 -20.447   5.452  0.00  0.00    -0.010 C 
ATOM     17  C   LIG    1       22.894 -19.921   6.857  0.00  0.00    +0.016 C 
ATOM     18  C   LIG    1       22.040 -21.254   4.923  0.00  0.00    +0.016 C 
ATOM     19  C   LIG    1       24.407 -21.486   5.574  0.00  0.00    +0.011 C 
ATOM     20  C   LIG    1       25.748 -20.831   5.833  0.00  0.00    +0.005 C 
ATOM     21  C   LIG    1       26.097 -19.895   4.688  0.00  0.00    +0.031 C 
ATOM     22  C   LIG    1       24.950 -19.043   4.175  0.00  0.00    -0.069 C 
ATOM     23  C   LIG    1       25.440 -18.012   3.186  0.00  0.00    +0.039 C 
ENDBRANCH  14  15
ENDBRANCH   2  13
TORSDOF 6
ENDMDL
MODEL 2
REMARK VINA RESULT:      -4.2      1.944      6.117
REMARK  Name = *****
REMARK                            x       y       z     vdW  Elec       q    Type
REMARK                         _______ _______ _______ _____ _____    ______ ____
ROOT
ATOM      1  C   LIG    1       22.167 -15.384   6.229  0.00  0.00    +0.044 C 
ATOM      2  C   LIG    1       22.455 -16.144   4.960  0.00  0.00    -0.050 C 
ATOM      3  C   LIG    1       22.591 -17.488   5.046  0.00  0.00    +0.003 C 
ENDROOT
BRANCH   3   4
ATOM      4  C   LIG    1       22.862 -18.444   3.988  0.00  0.00    +0.001 C 
ATOM      5  C   LIG    1       23.354 -19.687   4.125  0.00  0.00    +0.003 C 
BRANCH   5   6
ATOM      6  C   LIG    1       23.733 -20.389   5.341  0.00  0.00    -0.044 C 
ATOM      7  C   LIG    1       25.014 -20.590   5.706  0.00  0.00    +0.094 C 
ATOM      8  C   LIG    1       22.614 -21.016   6.136  0.00  0.00    +0.044 C 
BRANCH   7   9
ATOM      9  C   LIG    1       26.207 -20.129   4.970  0.00  0.00    +0.330 C 
ATOM     10  O   LIG    1       27.212 -19.609   5.392  0.00  0.00    -0.246 OA
BRANCH   9  11
ATOM     11  O   LIG    1       26.017 -20.322   3.649  0.00  0.00    -0.477 OA
ATOM     12  H   LIG    1       25.239 -19.756   3.460  0.00  0.00    +0.295 HD
ENDBRANCH   9  11
ENDBRANCH   7   9
ENDBRANCH   5   6
ENDBRANCH   3   4
BRANCH   2  13
ATOM     13  C   LIG    1       22.645 -15.406   3.716  0.00  0.00    +0.003 C 
ATOM     14  C   LIG    1       23.685 -14.771   3.148  0.00  0.00    +0.004 C 
BRANCH  14  15
ATOM     15  C   LIG    1       25.079 -14.532   3.522  0.00  0.00    -0.043 C 
ATOM     16  C   LIG    1       25.382 -13.090   4.039  0.00  0.00    -0.010 C 
ATOM     17  C   LIG    1       25.493 -12.135   2.832  0.00  0.00    +0.016 C 
ATOM     18  C   LIG    1       24.297 -12.523   4.992  0.00  0.00    +0.016 C 
ATOM     19  C   LIG    1       26.704 -13.040   4.857  0.00  0.00    +0.011 C 
ATOM     20  C   LIG    1       27.830 -13.793   4.178  0.00  0.00    +0.005 C 
ATOM     21  C   LIG    1       27.451 -15.255   4.014  0.00  0.00    +0.031 C 
ATOM     22  C   LIG    1       26.023 -15.507   3.565  0.00  0.00    -0.069 C 
ATOM     23  C   LIG    1       25.806 -16.966   3.239  0.00  0.00    +0.039 C 
ENDBRANCH  14  15
ENDBRANCH   2  13
TORSDOF 6
ENDMDL
MODEL 3
REMARK VINA RESULT:      -4.1      2.152      3.991
REMARK  Name = *****
REMARK                            x       y       z     vdW  Elec       q    Type
REMARK                         _______ _______ _______ _____ _____    ______ ____
ROOT
ATOM      1  C   LIG    1       28.820 -18.561   6.068  0.00  0.00    +0.044 C 
ATOM      2  C   LIG    1       27.993 -18.369   4.822  0.00  0.00    -0.050 C 
ATOM      3  C   LIG    1       27.649 -17.105   4.481  0.00  0.00    +0.003 C 
ENDROOT
BRANCH   3   4
ATOM      4  C   LIG    1       26.872 -16.649   3.343  0.00  0.00    +0.001 C 
ATOM      5  C   LIG    1       26.424 -15.403   3.113  0.00  0.00    +0.003 C 
BRANCH   5   6
ATOM      6  C   LIG    1       26.597 -14.208   3.924  0.00  0.00    -0.044 C 
ATOM      7  C   LIG    1       25.566 -13.463   4.366  0.00  0.00    +0.094 C 
ATOM      8  C   LIG    1       28.016 -13.744   4.149  0.00  0.00    +0.044 C 
BRANCH   7   9
ATOM      9  C   LIG    1       24.135 -13.737   4.129  0.00  0.00    +0.330 C 
ATOM     10  O   LIG    1       23.383 -14.457   4.742  0.00  0.00    -0.246 OA
BRANCH   9  11
ATOM     11  O   LIG    1       23.732 -13.076   3.026  0.00  0.00    -0.477 OA
ATOM     12  H   LIG    1       24.289 -12.270   3.044  0.00  0.00    +0.295 HD
ENDBRANCH   9  11
ENDBRANCH   7   9
ENDBRANCH   5   6
ENDBRANCH   3   4
BRANCH   2  13
ATOM     13  C   LIG    1       27.541 -19.541   4.081  0.00  0.00    +0.003 C 
ATOM     14  C   LIG    1       26.442 -20.315   4.123  0.00  0.00    +0.004 C 
BRANCH  14  15
ATOM     15  C   LIG    1       25.222 -20.333   4.929  0.00  0.00    -0.043 C 
ATOM     16  C   LIG    1       23.907 -20.054   4.135  0.00  0.00    -0.010 C 
ATOM     17  C   LIG    1       23.778 -18.536   3.890  0.00  0.00    +0.016 C 
ATOM     18  C   LIG    1       23.842 -20.762   2.756  0.00  0.00    +0.016 C 
ATOM     19  C   LIG    1       22.653 -20.557   4.906  0.00  0.00    +0.011 C 
ATOM     20  C   LIG    1       22.684 -20.171   6.371  0.00  0.00    +0.005 C 
ATOM     21  C   LIG    1       23.905 -20.777   7.041  0.00  0.00    +0.031 C 
ATOM     22  C   LIG    1       25.189 -20.705   6.235  0.00  0.00    -0.069 C 
ATOM     23  C   LIG    1       26.374 -21.146   7.061  0.00  0.00    +0.039 C 
ENDBRANCH  14  15
ENDBRANCH   2  13
TORSDOF 6
ENDMDL
MODEL 4
REMARK VINA RESULT:      -3.7      2.217      6.322
REMARK  Name = *****
REMARK                            x       y       z     vdW  Elec       q    Type
REMARK                         _______ _______ _______ _____ _____    ______ ____
ROOT
ATOM      1  C   LIG    1       22.064 -15.230   6.016  0.00  0.00    +0.044 C 
ATOM      2  C   LIG    1       22.669 -15.822   4.768  0.00  0.00    -0.050 C 
ATOM      3  C   LIG    1       22.927 -17.151   4.761  0.00  0.00    +0.003 C 
ENDROOT
BRANCH   3   4
ATOM      4  C   LIG    1       23.496 -17.961   3.699  0.00  0.00    +0.001 C 
ATOM      5  C   LIG    1       23.766 -19.276   3.739  0.00  0.00    +0.003 C 
BRANCH   5   6
ATOM      6  C   LIG    1       23.563 -20.216   4.830  0.00  0.00    -0.044 C 
ATOM      7  C   LIG    1       24.571 -20.703   5.580  0.00  0.00    +0.094 C 
ATOM      8  C   LIG    1       22.161 -20.744   5.015  0.00  0.00    +0.044 C 
BRANCH   7   9
ATOM      9  C   LIG    1       25.999 -20.358   5.440  0.00  0.00    +0.330 C 
ATOM     10  O   LIG    1       26.809 -20.091   6.295  0.00  0.00    -0.246 OA
BRANCH   9  11
ATOM     11  O   LIG    1       26.322 -20.323   4.131  0.00  0.00    -0.477 OA
ATOM     12  H   LIG    1       27.298 -20.228   4.154  0.00  0.00    +0.295 HD
ENDBRANCH   9  11
ENDBRANCH   7   9
ENDBRANCH   5   6
ENDBRANCH   3   4
BRANCH   2  13
ATOM     13  C   LIG    1       23.012 -14.941   3.657  0.00  0.00    +0.003 C 
ATOM     14  C   LIG    1       24.061 -14.148   3.375  0.00  0.00    +0.004 C 
BRANCH  14  15
ATOM     15  C   LIG    1       25.314 -13.812   4.052  0.00  0.00    -0.043 C 
ATOM     16  C   LIG    1       26.597 -14.406   3.390  0.00  0.00    -0.010 C 
ATOM     17  C   LIG    1       26.728 -15.892   3.786  0.00  0.00    +0.016 C 
ATOM     18  C   LIG    1       26.599 -14.329   1.840  0.00  0.00    +0.016 C 
ATOM     19  C   LIG    1       27.877 -13.642   3.833  0.00  0.00    +0.011 C 
ATOM     20  C   LIG    1       27.910 -13.392   5.328  0.00  0.00    +0.005 C 
ATOM     21  C   LIG    1       26.713 -12.552   5.738  0.00  0.00    +0.031 C 
ATOM     22  C   LIG    1       25.397 -12.937   5.086  0.00  0.00    -0.069 C 
ATOM     23  C   LIG    1       24.244 -12.184   5.706  0.00  0.00    +0.039 C 
ENDBRANCH  14  15
ENDBRANCH   2  13
TORSDOF 6
ENDMDL
MODEL 5
REMARK VINA RESULT:      -3.5      0.595      2.163
REMARK  Name = *****
REMARK                            x       y       z     vdW  Elec       q    Type
REMARK                         _______ _______ _______ _____ _____    ______ ____
ROOT
ATOM      1  C   LIG    1       21.863 -16.373   6.373  0.00  0.00    +0.044 C 
ATOM      2  C   LIG    1       22.480 -16.295   5.000  0.00  0.00    -0.050 C 
ATOM      3  C   LIG    1       23.179 -15.180   4.684  0.00  0.00    +0.003 C 
ENDROOT
BRANCH   3   4
ATOM      4  C   LIG    1       23.868 -14.858   3.448  0.00  0.00    +0.001 C 
ATOM      5  C   LIG    1       24.835 -13.942   3.273  0.00  0.00    +0.003 C 
BRANCH   5   6
ATOM      6  C   LIG    1       25.436 -13.052   4.255  0.00  0.00    -0.044 C 
ATOM      7  C   LIG    1       26.740 -13.100   4.591  0.00  0.00    +0.094 C 
ATOM      8  C   LIG    1       24.497 -12.136   5.000  0.00  0.00    +0.044 C 
BRANCH   7   9
ATOM      9  C   LIG    1       27.747 -14.018   4.024  0.00  0.00    +0.330 C 
ATOM     10  O   LIG    1       27.837 -15.217   4.134  0.00  0.00    -0.246 OA
BRANCH   9  11
ATOM     11  O   LIG    1       28.669 -13.303   3.348  0.00  0.00    -0.477 OA
ATOM     12  H   LIG    1       28.196 -13.070   2.522  0.00  0.00    +0.295 HD
ENDBRANCH   9  11
ENDBRANCH   7   9
ENDBRANCH   5   6
ENDBRANCH   3   4
BRANCH   2  13
ATOM     13  C   LIG    1       22.244 -17.379   4.052  0.00  0.00    +0.003 C 
ATOM     14  C   LIG    1       22.800 -18.586   3.846  0.00  0.00    +0.004 C 
BRANCH  14  15
ATOM     15  C   LIG    1       23.884 -19.344   4.471  0.00  0.00    -0.043 C 
ATOM     16  C   LIG    1       25.270 -19.211   3.764  0.00  0.00    -0.010 C 
ATOM     17  C   LIG    1       25.289 -20.121   2.517  0.00  0.00    +0.016 C 
ATOM     18  C   LIG    1       25.604 -17.768   3.301  0.00  0.00    +0.016 C 
ATOM     19  C   LIG    1       26.437 -19.612   4.710  0.00  0.00    +0.011 C 
ATOM     20  C   LIG    1       26.154 -20.897   5.462  0.00  0.00    +0.005 C 
ATOM     21  C   LIG    1       24.910 -20.732   6.318  0.00  0.00    +0.031 C 
ATOM     22  C   LIG    1       23.758 -20.000   5.652  0.00  0.00    -0.069 C 
ATOM     23  C   LIG    1       22.511 -20.066   6.502  0.00  0.00    +0.039 C 
ENDBRANCH  14  15
ENDBRANCH   2  13
TORSDOF 6
ENDMDL
MODEL 6
REMARK VINA RESULT:      -2.6      1.837      3.017
REMARK  Name = *****
REMARK                            x       y       z     vdW  Elec       q    Type
REMARK                         _______ _______ _______ _____ _____    ______ ____
ROOT
ATOM      1  C   LIG    1       21.837 -16.294   6.337  0.00  0.00    +0.044 C 
ATOM      2  C   LIG    1       22.518 -16.295   4.993  0.00  0.00    -0.050 C 
ATOM      3  C   LIG    1       23.291 -15.230   4.675  0.00  0.00    +0.003 C 
ENDROOT
BRANCH   3   4
ATOM      4  C   LIG    1       24.051 -14.986   3.463  0.00  0.00    +0.001 C 
ATOM      5  C   LIG    1       25.150 -14.224   3.334  0.00  0.00    +0.003 C 
BRANCH   5   6
ATOM      6  C   LIG    1       25.854 -13.460   4.352  0.00  0.00    -0.044 C 
ATOM      7  C   LIG    1       25.353 -12.341   4.911  0.00  0.00    +0.094 C 
ATOM      8  C   LIG    1       27.260 -13.902   4.676  0.00  0.00    +0.044 C 
BRANCH   7   9
ATOM      9  C   LIG    1       24.042 -11.734   4.609  0.00  0.00    +0.330 C 
ATOM     10  O   LIG    1       23.141 -11.448   5.361  0.00  0.00    -0.246 OA
BRANCH   9  11
ATOM     11  O   LIG    1       23.927 -11.562   3.277  0.00  0.00    -0.477 OA
ATOM     12  H   LIG    1       24.853 -11.400   3.001  0.00  0.00    +0.295 HD
ENDBRANCH   9  11
ENDBRANCH   7   9
ENDBRANCH   5   6
ENDBRANCH   3   4
BRANCH   2  13
ATOM     13  C   LIG    1       22.267 -17.396   4.069  0.00  0.00    +0.003 C 
ATOM     14  C   LIG    1       22.807 -18.613   3.886  0.00  0.00    +0.004 C 
BRANCH  14  15
ATOM     15  C   LIG    1       23.885 -19.371   4.523  0.00  0.00    -0.043 C 
ATOM     16  C   LIG    1       25.267 -19.276   3.803  0.00  0.00    -0.010 C 
ATOM     17  C   LIG    1       25.265 -20.217   2.580  0.00  0.00    +0.016 C 
ATOM     18  C   LIG    1       25.619 -17.850   3.301  0.00  0.00    +0.016 C 
ATOM     19  C   LIG    1       26.436 -19.669   4.751  0.00  0.00    +0.011 C 
ATOM     20  C   LIG    1       26.140 -20.930   5.538  0.00  0.00    +0.005 C 
ATOM     21  C   LIG    1       24.904 -20.726   6.398  0.00  0.00    +0.031 C 
ATOM     22  C   LIG    1       23.758 -19.995   5.722  0.00  0.00    -0.069 C 
ATOM     23  C   LIG    1       22.516 -20.020   6.581  0.00  0.00    +0.039 C 
ENDBRANCH  14  15
ENDBRANCH   2  13
TORSDOF 6
ENDMDL
MODEL 7
REMARK VINA RESULT:      -2.4      2.090      6.683
REMARK  Name = *****
REMARK                            x       y       z     vdW  Elec       q    Type
REMARK                         _______ _______ _______ _____ _____    ______ ____
ROOT
ATOM      1  C   LIG    1       23.065 -16.312   4.353  0.00  0.00    +0.044 C 
ATOM      2  C   LIG    1       24.223 -17.134   3.849  0.00  0.00    -0.050 C 
ATOM      3  C   LIG    1       24.133 -18.481   3.953  0.00  0.00    +0.003 C 
ENDROOT
BRANCH   3   4
ATOM      4  C   LIG    1       25.092 -19.491   3.546  0.00  0.00    +0.001 C 
ATOM      5  C   LIG    1       25.792 -20.314   4.345  0.00  0.00    +0.003 C 
BRANCH   5   6
ATOM      6  C   LIG    1       25.772 -20.411   5.796  0.00  0.00    -0.044 C 
ATOM      7  C   LIG    1       26.876 -20.287   6.558  0.00  0.00    +0.094 C 
ATOM      8  C   LIG    1       24.457 -20.796   6.429  0.00  0.00    +0.044 C 
BRANCH   7   9
ATOM      9  C   LIG    1       28.242 -20.020   6.066  0.00  0.00    +0.330 C 
ATOM     10  O   LIG    1       28.677 -19.039   5.513  0.00  0.00    -0.246 OA
BRANCH   9  11
ATOM     11  O   LIG    1       29.011 -21.107   6.275  0.00  0.00    -0.477 OA
ATOM     12  H   LIG    1       28.365 -21.767   6.604  0.00  0.00    +0.295 HD
ENDBRANCH   9  11
ENDBRANCH   7   9
ENDBRANCH   5   6
ENDBRANCH   3   4
BRANCH   2  13
ATOM     13  C   LIG    1       25.411 -16.456   3.341  0.00  0.00    +0.003 C 
ATOM     14  C   LIG    1       25.829 -15.178   3.323  0.00  0.00    +0.004 C 
BRANCH  14  15
ATOM     15  C   LIG    1       25.283 -13.906   3.796  0.00  0.00    -0.043 C 
ATOM     16  C   LIG    1       25.987 -13.319   5.060  0.00  0.00    -0.010 C 
ATOM     17  C   LIG    1       25.472 -14.058   6.313  0.00  0.00    +0.016 C 
ATOM     18  C   LIG    1       27.533 -13.449   5.036  0.00  0.00    +0.016 C 
ATOM     19  C   LIG    1       25.713 -11.796   5.214  0.00  0.00    +0.011 C 
ATOM     20  C   LIG    1       24.253 -11.449   4.998  0.00  0.00    +0.005 C 
ATOM     21  C   LIG    1       23.827 -11.849   3.596  0.00  0.00    +0.031 C 
ATOM     22  C   LIG    1       24.339 -13.198   3.124  0.00  0.00    -0.069 C 
ATOM     23  C   LIG    1       23.702 -13.592   1.813  0.00  0.00    +0.039 C 
ENDBRANCH  14  15
ENDBRANCH   2  13
TORSDOF 6
ENDMDL
MODEL 8
REMARK VINA RESULT:      -2.4      1.036      2.308
REMARK  Name = *****
REMARK                            x       y       z     vdW  Elec       q    Type
REMARK                         _______ _______ _______ _____ _____    ______ ____
ROOT
ATOM      1  C   LIG    1       22.295 -16.332   5.527  0.00  0.00    +0.044 C 
ATOM      2  C   LIG    1       23.246 -15.887   4.445  0.00  0.00    -0.050 C 
ATOM      3  C   LIG    1       23.187 -14.595   4.044  0.00  0.00    +0.003 C 
ENDROOT
BRANCH   3   4
ATOM      4  C   LIG    1       23.982 -13.918   3.037  0.00  0.00    +0.001 C 
ATOM      5  C   LIG    1       25.084 -13.175   3.238  0.00  0.00    +0.003 C 
BRANCH   5   6
ATOM      6  C   LIG    1       25.757 -12.863   4.488  0.00  0.00    -0.044 C 
ATOM      7  C   LIG    1       26.958 -13.373   4.825  0.00  0.00    +0.094 C 
ATOM      8  C   LIG    1       24.985 -12.029   5.481  0.00  0.00    +0.044 C 
BRANCH   7   9
ATOM      9  C   LIG    1       27.774 -14.285   4.001  0.00  0.00    +0.330 C 
ATOM     10  O   LIG    1       27.601 -15.455   3.757  0.00  0.00    -0.246 OA
BRANCH   9  11
ATOM     11  O   LIG    1       28.859 -13.626   3.547  0.00  0.00    -0.477 OA
ATOM     12  H   LIG    1       28.741 -13.664   2.575  0.00  0.00    +0.295 HD
ENDBRANCH   9  11
ENDBRANCH   7   9
ENDBRANCH   5   6
ENDBRANCH   3   4
BRANCH   2  13
ATOM     13  C   LIG    1       24.132 -16.869   3.829  0.00  0.00    +0.003 C 
ATOM     14  C   LIG    1       24.109 -18.207   3.699  0.00  0.00    +0.004 C 
BRANCH  14  15
ATOM     15  C   LIG    1       23.196 -19.270   4.120  0.00  0.00    -0.043 C 
ATOM     16  C   LIG    1       23.864 -20.425   4.930  0.00  0.00    -0.010 C 
ATOM     17  C   LIG    1       24.591 -21.373   3.952  0.00  0.00    +0.016 C 
ATOM     18  C   LIG    1       24.901 -19.942   5.978  0.00  0.00    +0.016 C 
ATOM     19  C   LIG    1       22.815 -21.235   5.745  0.00  0.00    +0.011 C 
ATOM     20  C   LIG    1       21.585 -21.572   4.927  0.00  0.00    +0.005 C 
ATOM     21  C   LIG    1       20.910 -20.294   4.457  0.00  0.00    +0.031 C 
ATOM     22  C   LIG    1       21.849 -19.210   3.960  0.00  0.00    -0.069 C 
ATOM     23  C   LIG    1       21.080 -18.072   3.333  0.00  0.00    +0.039 C 
ENDBRANCH  14  15
ENDBRANCH   2  13
TORSDOF 6
ENDMDL
