MODEL 1
REMARK VINA RESULT:     -10.2      0.000      0.000
REMARK  Name = *****
REMARK                            x       y       z     vdW  Elec       q    Type
REMARK                         _______ _______ _______ _____ _____    ______ ____
ROOT
ATOM      1  C   LIG    1       29.196 -19.279   7.323  0.00  0.00    -0.033 A 
ATOM      2  C   LIG    1       28.199 -19.934   8.068  0.00  0.00    +0.016 A 
ATOM      3  C   LIG    1       27.037 -20.427   7.458  0.00  0.00    +0.022 A 
ATOM      4  C   LIG    1       26.881 -20.281   6.075  0.00  0.00    +0.012 A 
ATOM      5  C   LIG    1       27.869 -19.642   5.320  0.00  0.00    +0.001 A 
ATOM      6  C   LIG    1       29.018 -19.141   5.939  0.00  0.00    +0.004 A 
ENDROOT
BRANCH   1   8
ATOM      7  C   LIG    1       29.965 -17.786   9.180  0.00  0.00    +0.024 C 
ATOM      8  C   LIG    1       30.414 -18.677   8.011  0.00  0.00    +0.124 C 
BRANCH   8   9
ATOM      9  C   LIG    1       31.431 -19.719   8.469  0.00  0.00    +0.312 C 
ATOM     10  O   LIG    1       32.165 -19.592   9.447  0.00  0.00    -0.250 OA
BRANCH   9  11
ATOM     11  O   LIG    1       31.484 -20.828   7.696  0.00  0.00    -0.480 OA
ATOM     12  H   LIG    1       32.386 -21.108   7.442  0.00  0.00    +0.295 HD
ENDBRANCH   9  11
ENDBRANCH   8   9
ENDBRANCH   1   8
BRANCH   3  13
ATOM     13  C   LIG    1       25.994 -21.148   8.248  0.00  0.00    +0.193 C 
ATOM     14  O   LIG    1       25.794 -20.809   9.413  0.00  0.00    -0.287 OA
BRANCH  13  15
ATOM     15  C   LIG    1       25.171 -22.248   7.660  0.00  0.00    +0.022 A 
ATOM     16  C   LIG    1       23.803 -22.087   7.399  0.00  0.00    +0.012 A 
ATOM     17  C   LIG    1       23.053 -23.141   6.874  0.00  0.00    +0.001 A 
ATOM     18  C   LIG    1       23.673 -24.347   6.552  0.00  0.00    +0.000 A 
ATOM     19  C   LIG    1       25.042 -24.503   6.768  0.00  0.00    +0.001 A 
ATOM     20  C   LIG    1       25.789 -23.461   7.328  0.00  0.00    +0.012 A 
ENDBRANCH  13  15
ENDBRANCH   3  13
TORSDOF 5
ENDMDL
MODEL 2
REMARK VINA RESULT:      -9.3      2.778      6.681
REMARK  Name = *****
REMARK                            x       y       z     vdW  Elec       q    Type
REMARK                         _______ _______ _______ _____ _____    ______ ____
ROOT
ATOM      1  C   LIG    1       25.074 -25.188   6.800  0.00  0.00    -0.033 A 
ATOM      2  C   LIG    1       25.820 -24.135   7.358  0.00  0.00    +0.016 A 
ATOM      3  C   LIG    1       25.268 -22.858   7.526  0.00  0.00    +0.022 A 
ATOM      4  C   LIG    1       23.938 -22.637   7.150  0.00  0.00    +0.012 A 
ATOM      5  C   LIG    1       23.180 -23.679   6.605  0.00  0.00    +0.001 A 
ATOM      6  C   LIG    1       23.744 -24.945   6.427  0.00  0.00    +0.004 A 
ENDROOT
BRANCH   1   8
ATOM      7  C   LIG    1       24.648 -27.651   6.650  0.00  0.00    +0.024 C 
ATOM      8  C   LIG    1       25.713 -26.548   6.548  0.00  0.00    +0.124 C 
BRANCH   8   9
ATOM      9  C   LIG    1       26.469 -26.629   5.225  0.00  0.00    +0.312 C 
ATOM     10  O   LIG    1       25.958 -26.456   4.120  0.00  0.00    -0.250 OA
BRANCH   9  11
ATOM     11  O   LIG    1       27.783 -26.927   5.348  0.00  0.00    -0.480 OA
ATOM     12  H   LIG    1       28.013 -27.858   5.157  0.00  0.00    +0.295 HD
ENDBRANCH   9  11
ENDBRANCH   8   9
ENDBRANCH   1   8
BRANCH   3  13
ATOM     13  C   LIG    1       26.054 -21.749   8.146  0.00  0.00    +0.193 C 
ATOM     14  O   LIG    1       25.813 -21.430   9.308  0.00  0.00    -0.287 OA
BRANCH  13  15
ATOM     15  C   LIG    1       27.138 -21.034   7.406  0.00  0.00    +0.022 A 
ATOM     16  C   LIG    1       28.467 -21.045   7.853  0.00  0.00    +0.012 A 
ATOM     17  C   LIG    1       29.454 -20.346   7.155  0.00  0.00    +0.001 A 
ATOM     18  C   LIG    1       29.135 -19.676   5.976  0.00  0.00    +0.000 A 
ATOM     19  C   LIG    1       27.825 -19.693   5.500  0.00  0.00    +0.001 A 
ATOM     20  C   LIG    1       26.826 -20.364   6.216  0.00  0.00    +0.012 A 
ENDBRANCH  13  15
ENDBRANCH   3  13
TORSDOF 5
ENDMDL
MODEL 3
REMARK VINA RESULT:      -9.3      2.026      2.510
REMARK  Name = *****
REMARK                            x       y       z     vdW  Elec       q    Type
REMARK                         _______ _______ _______ _____ _____    ______ ____
ROOT
ATOM      1  C   LIG    1       30.180 -20.072   7.517  0.00  0.00    -0.033 A 
ATOM      2  C   LIG    1       29.026 -20.872   7.591  0.00  0.00    +0.016 A 
ATOM      3  C   LIG    1       27.949 -20.683   6.715  0.00  0.00    +0.022 A 
ATOM      4  C   LIG    1       28.038 -19.690   5.732  0.00  0.00    +0.012 A 
ATOM      5  C   LIG    1       29.185 -18.895   5.639  0.00  0.00    +0.001 A 
ATOM      6  C   LIG    1       30.248 -19.081   6.527  0.00  0.00    +0.004 A 
ENDROOT
BRANCH   1   8
ATOM      7  C   LIG    1       31.233 -19.115   9.577  0.00  0.00    +0.024 C 
ATOM      8  C   LIG    1       31.308 -20.235   8.528  0.00  0.00    +0.124 C 
BRANCH   8   9
ATOM      9  C   LIG    1       31.340 -21.610   9.188  0.00  0.00    +0.312 C 
ATOM     10  O   LIG    1       30.749 -21.897  10.227  0.00  0.00    -0.250 OA
BRANCH   9  11
ATOM     11  O   LIG    1       32.097 -22.525   8.540  0.00  0.00    -0.480 OA
ATOM     12  H   LIG    1       32.716 -22.154   7.881  0.00  0.00    +0.295 HD
ENDBRANCH   9  11
ENDBRANCH   8   9
ENDBRANCH   1   8
BRANCH   3  13
ATOM     13  C   LIG    1       26.736 -21.554   6.778  0.00  0.00    +0.193 C 
ATOM     14  O   LIG    1       26.849 -22.693   7.227  0.00  0.00    -0.287 OA
BRANCH  13  15
ATOM     15  C   LIG    1       25.391 -21.075   6.338  0.00  0.00    +0.022 A 
ATOM     16  C   LIG    1       25.099 -20.837   4.987  0.00  0.00    +0.012 A 
ATOM     17  C   LIG    1       23.841 -20.364   4.608  0.00  0.00    +0.001 A 
ATOM     18  C   LIG    1       22.846 -20.178   5.565  0.00  0.00    +0.000 A 
ATOM     19  C   LIG    1       23.113 -20.452   6.906  0.00  0.00    +0.001 A 
ATOM     20  C   LIG    1       24.384 -20.892   7.295  0.00  0.00    +0.012 A 
ENDBRANCH  13  15
ENDBRANCH   3  13
TORSDOF 5
ENDMDL
MODEL 4
REMARK VINA RESULT:      -8.7      2.922      6.910
REMARK  Name = *****
REMARK                            x       y       z     vdW  Elec       q    Type
REMARK                         _______ _______ _______ _____ _____    ______ ____
ROOT
ATOM      1  C   LIG    1       24.796 -25.015   6.358  0.00  0.00    -0.033 A 
ATOM      2  C   LIG    1       25.635 -24.081   6.991  0.00  0.00    +0.016 A 
ATOM      3  C   LIG    1       25.138 -22.866   7.479  0.00  0.00    +0.022 A 
ATOM      4  C   LIG    1       23.771 -22.590   7.352  0.00  0.00    +0.012 A 
ATOM      5  C   LIG    1       22.923 -23.515   6.735  0.00  0.00    +0.001 A 
ATOM      6  C   LIG    1       23.431 -24.718   6.238  0.00  0.00    +0.004 A 
ENDROOT
BRANCH   1   8
ATOM      7  C   LIG    1       26.871 -26.384   6.055  0.00  0.00    +0.024 C 
ATOM      8  C   LIG    1       25.365 -26.295   5.760  0.00  0.00    +0.124 C 
BRANCH   8   9
ATOM      9  C   LIG    1       24.638 -27.556   6.216  0.00  0.00    +0.312 C 
ATOM     10  O   LIG    1       24.808 -28.103   7.303  0.00  0.00    -0.250 OA
BRANCH   9  11
ATOM     11  O   LIG    1       23.769 -28.060   5.310  0.00  0.00    -0.480 OA
ATOM     12  H   LIG    1       23.889 -29.010   5.109  0.00  0.00    +0.295 HD
ENDBRANCH   9  11
ENDBRANCH   8   9
ENDBRANCH   1   8
BRANCH   3  13
ATOM     13  C   LIG    1       26.027 -21.888   8.176  0.00  0.00    +0.193 C 
ATOM     14  O   LIG    1       25.853 -21.681   9.375  0.00  0.00    -0.287 OA
BRANCH  13  15
ATOM     15  C   LIG    1       27.133 -21.175   7.468  0.00  0.00    +0.022 A 
ATOM     16  C   LIG    1       26.894 -20.380   6.338  0.00  0.00    +0.012 A 
ATOM     17  C   LIG    1       27.952 -19.748   5.681  0.00  0.00    +0.001 A 
ATOM     18  C   LIG    1       29.249 -19.857   6.178  0.00  0.00    +0.000 A 
ATOM     19  C   LIG    1       29.492 -20.610   7.326  0.00  0.00    +0.001 A 
ATOM     20  C   LIG    1       28.440 -21.275   7.966  0.00  0.00    +0.012 A 
ENDBRANCH  13  15
ENDBRANCH   3  13
TORSDOF 5
ENDMDL
MODEL 5
REMARK VINA RESULT:      -8.7      1.693      6.907
REMARK  Name = *****
REMARK                            x       y       z     vdW  Elec       q    Type
REMARK                         _______ _______ _______ _____ _____    ______ ____
ROOT
ATOM      1  C   LIG    1       27.646 -20.331   6.887  0.00  0.00    -0.033 A 
ATOM      2  C   LIG    1       28.659 -20.332   7.861  0.00  0.00    +0.016 A 
ATOM      3  C   LIG    1       29.863 -19.643   7.663  0.00  0.00    +0.022 A 
ATOM      4  C   LIG    1       30.047 -18.921   6.477  0.00  0.00    +0.012 A 
ATOM      5  C   LIG    1       29.042 -18.902   5.505  0.00  0.00    +0.001 A 
ATOM      6  C   LIG    1       27.851 -19.604   5.705  0.00  0.00    +0.004 A 
ENDROOT
BRANCH   1   8
ATOM      7  C   LIG    1       26.733 -22.641   7.201  0.00  0.00    +0.024 C 
ATOM      8  C   LIG    1       26.377 -21.151   7.081  0.00  0.00    +0.124 C 
BRANCH   8   9
ATOM      9  C   LIG    1       25.528 -20.689   8.262  0.00  0.00    +0.312 C 
ATOM     10  O   LIG    1       25.969 -20.452   9.385  0.00  0.00    -0.250 OA
BRANCH   9  11
ATOM     11  O   LIG    1       24.209 -20.562   7.989  0.00  0.00    -0.480 OA
ATOM     12  H   LIG    1       23.612 -20.924   8.674  0.00  0.00    +0.295 HD
ENDBRANCH   9  11
ENDBRANCH   8   9
ENDBRANCH   1   8
BRANCH   3  13
ATOM     13  C   LIG    1       30.927 -19.622   8.712  0.00  0.00    +0.193 C 
ATOM     14  O   LIG    1       31.534 -20.661   8.960  0.00  0.00    -0.287 OA
BRANCH  13  15
ATOM     15  C   LIG    1       31.289 -18.374   9.451  0.00  0.00    +0.022 A 
ATOM     16  C   LIG    1       32.251 -17.479   8.960  0.00  0.00    +0.012 A 
ATOM     17  C   LIG    1       32.588 -16.335   9.686  0.00  0.00    +0.001 A 
ATOM     18  C   LIG    1       31.930 -16.045  10.879  0.00  0.00    +0.000 A 
ATOM     19  C   LIG    1       30.943 -16.906  11.355  0.00  0.00    +0.001 A 
ATOM     20  C   LIG    1       30.627 -18.073  10.649  0.00  0.00    +0.012 A 
ENDBRANCH  13  15
ENDBRANCH   3  13
TORSDOF 5
ENDMDL
MODEL 6
REMARK VINA RESULT:      -8.6      4.528      8.161
REMARK  Name = *****
REMARK                            x       y       z     vdW  Elec       q    Type
REMARK                         _______ _______ _______ _____ _____    ______ ____
ROOT
ATOM      1  C   LIG    1       25.102 -27.781   6.078  0.00  0.00    -0.033 A 
ATOM      2  C   LIG    1       24.464 -26.671   6.658  0.00  0.00    +0.016 A 
ATOM      3  C   LIG    1       24.468 -25.417   6.033  0.00  0.00    +0.022 A 
ATOM      4  C   LIG    1       25.103 -25.277   4.794  0.00  0.00    +0.012 A 
ATOM      5  C   LIG    1       25.731 -26.376   4.199  0.00  0.00    +0.001 A 
ATOM      6  C   LIG    1       25.735 -27.619   4.837  0.00  0.00    +0.004 A 
ENDROOT
BRANCH   1   8
ATOM      7  C   LIG    1       25.449 -28.884   8.299  0.00  0.00    +0.024 C 
ATOM      8  C   LIG    1       25.160 -29.117   6.808  0.00  0.00    +0.124 C 
BRANCH   8   9
ATOM      9  C   LIG    1       23.911 -29.971   6.614  0.00  0.00    +0.312 C 
ATOM     10  O   LIG    1       23.558 -30.870   7.374  0.00  0.00    -0.250 OA
BRANCH   9  11
ATOM     11  O   LIG    1       23.195 -29.673   5.505  0.00  0.00    -0.480 OA
ATOM     12  H   LIG    1       23.679 -29.782   4.662  0.00  0.00    +0.295 HD
ENDBRANCH   9  11
ENDBRANCH   8   9
ENDBRANCH   1   8
BRANCH   3  13
ATOM     13  C   LIG    1       23.764 -24.246   6.639  0.00  0.00    +0.193 C 
ATOM     14  O   LIG    1       22.540 -24.281   6.744  0.00  0.00    -0.287 OA
BRANCH  13  15
ATOM     15  C   LIG    1       24.503 -23.049   7.143  0.00  0.00    +0.022 A 
ATOM     16  C   LIG    1       25.858 -23.113   7.498  0.00  0.00    +0.012 A 
ATOM     17  C   LIG    1       26.515 -21.984   7.991  0.00  0.00    +0.001 A 
ATOM     18  C   LIG    1       25.842 -20.768   8.081  0.00  0.00    +0.000 A 
ATOM     19  C   LIG    1       24.506 -20.682   7.689  0.00  0.00    +0.001 A 
ATOM     20  C   LIG    1       23.834 -21.820   7.229  0.00  0.00    +0.012 A 
ENDBRANCH  13  15
ENDBRANCH   3  13
TORSDOF 5
ENDMDL
MODEL 7
REMARK VINA RESULT:      -8.6      2.130      2.838
REMARK  Name = *****
REMARK                            x       y       z     vdW  Elec       q    Type
REMARK                         _______ _______ _______ _____ _____    ______ ____
ROOT
ATOM      1  C   LIG    1       29.620 -19.133   7.719  0.00  0.00    -0.033 A 
ATOM      2  C   LIG    1       28.519 -20.006   7.712  0.00  0.00    +0.016 A 
ATOM      3  C   LIG    1       27.736 -20.186   6.564  0.00  0.00    +0.022 A 
ATOM      4  C   LIG    1       28.075 -19.495   5.394  0.00  0.00    +0.012 A 
ATOM      5  C   LIG    1       29.176 -18.632   5.383  0.00  0.00    +0.001 A 
ATOM      6  C   LIG    1       29.942 -18.449   6.537  0.00  0.00    +0.004 A 
ENDROOT
BRANCH   1   8
ATOM      7  C   LIG    1       31.543 -19.920   9.116  0.00  0.00    +0.024 C 
ATOM      8  C   LIG    1       30.412 -18.886   8.996  0.00  0.00    +0.124 C 
BRANCH   8   9
ATOM      9  C   LIG    1       30.950 -17.463   9.114  0.00  0.00    +0.312 C 
ATOM     10  O   LIG    1       32.053 -17.100   8.713  0.00  0.00    -0.250 OA
BRANCH   9  11
ATOM     11  O   LIG    1       30.108 -16.595   9.721  0.00  0.00    -0.480 OA
ATOM     12  H   LIG    1       30.202 -16.542  10.693  0.00  0.00    +0.295 HD
ENDBRANCH   9  11
ENDBRANCH   8   9
ENDBRANCH   1   8
BRANCH   3  13
ATOM     13  C   LIG    1       26.583 -21.137   6.552  0.00  0.00    +0.193 C 
ATOM     14  O   LIG    1       26.735 -22.256   7.036  0.00  0.00    -0.287 OA
BRANCH  13  15
ATOM     15  C   LIG    1       25.249 -20.760   5.994  0.00  0.00    +0.022 A 
ATOM     16  C   LIG    1       25.082 -20.426   4.642  0.00  0.00    +0.012 A 
ATOM     17  C   LIG    1       23.829 -20.053   4.155  0.00  0.00    +0.001 A 
ATOM     18  C   LIG    1       22.719 -20.063   4.998  0.00  0.00    +0.000 A 
ATOM     19  C   LIG    1       22.866 -20.435   6.334  0.00  0.00    +0.001 A 
ATOM     20  C   LIG    1       24.128 -20.775   6.835  0.00  0.00    +0.012 A 
ENDBRANCH  13  15
ENDBRANCH   3  13
TORSDOF 5
ENDMDL
MODEL 8
REMARK VINA RESULT:      -8.5      3.155      5.445
REMARK  Name = *****
REMARK                            x       y       z     vdW  Elec       q    Type
REMARK                         _______ _______ _______ _____ _____    ______ ____
ROOT
ATOM      1  C   LIG    1       24.947 -22.231   6.878  0.00  0.00    -0.033 A 
ATOM      2  C   LIG    1       25.688 -23.400   6.635  0.00  0.00    +0.016 A 
ATOM      3  C   LIG    1       25.061 -24.644   6.485  0.00  0.00    +0.022 A 
ATOM      4  C   LIG    1       23.665 -24.715   6.557  0.00  0.00    +0.012 A 
ATOM      5  C   LIG    1       22.914 -23.558   6.787  0.00  0.00    +0.001 A 
ATOM      6  C   LIG    1       23.550 -22.324   6.951  0.00  0.00    +0.004 A 
ENDROOT
BRANCH   1   8
ATOM      7  C   LIG    1       25.986 -20.753   8.613  0.00  0.00    +0.024 C 
ATOM      8  C   LIG    1       25.648 -20.900   7.121  0.00  0.00    +0.124 C 
BRANCH   8   9
ATOM      9  C   LIG    1       26.885 -20.696   6.251  0.00  0.00    +0.312 C 
ATOM     10  O   LIG    1       28.042 -20.806   6.651  0.00  0.00    -0.250 OA
BRANCH   9  11
ATOM     11  O   LIG    1       26.618 -20.364   4.967  0.00  0.00    -0.480 OA
ATOM     12  H   LIG    1       26.563 -19.402   4.794  0.00  0.00    +0.295 HD
ENDBRANCH   9  11
ENDBRANCH   8   9
ENDBRANCH   1   8
BRANCH   3  13
ATOM     13  C   LIG    1       25.850 -25.880   6.197  0.00  0.00    +0.193 C 
ATOM     14  O   LIG    1       26.957 -25.768   5.674  0.00  0.00    -0.287 OA
BRANCH  13  15
ATOM     15  C   LIG    1       25.346 -27.243   6.547  0.00  0.00    +0.022 A 
ATOM     16  C   LIG    1       24.489 -27.954   5.695  0.00  0.00    +0.012 A 
ATOM     17  C   LIG    1       24.013 -29.214   6.061  0.00  0.00    +0.001 A 
ATOM     18  C   LIG    1       24.432 -29.801   7.253  0.00  0.00    +0.000 A 
ATOM     19  C   LIG    1       25.319 -29.121   8.087  0.00  0.00    +0.001 A 
ATOM     20  C   LIG    1       25.770 -27.842   7.741  0.00  0.00    +0.012 A 
ENDBRANCH  13  15
ENDBRANCH   3  13
TORSDOF 5
ENDMDL
MODEL 9
REMARK VINA RESULT:      -8.5      2.606      3.680
REMARK  Name = *****
REMARK                            x       y       z     vdW  Elec       q    Type
REMARK                         _______ _______ _______ _____ _____    ______ ____
ROOT
ATOM      1  C   LIG    1       28.562 -20.225   6.653  0.00  0.00    -0.033 A 
ATOM      2  C   LIG    1       27.412 -20.504   5.894  0.00  0.00    +0.016 A 
ATOM      3  C   LIG    1       26.386 -21.317   6.395  0.00  0.00    +0.022 A 
ATOM      4  C   LIG    1       26.503 -21.841   7.687  0.00  0.00    +0.012 A 
ATOM      5  C   LIG    1       27.636 -21.561   8.458  0.00  0.00    +0.001 A 
ATOM      6  C   LIG    1       28.661 -20.762   7.944  0.00  0.00    +0.004 A 
ENDROOT
BRANCH   1   8
ATOM      7  C   LIG    1       29.144 -18.171   5.344  0.00  0.00    +0.024 C 
ATOM      8  C   LIG    1       29.705 -19.408   6.064  0.00  0.00    +0.124 C 
BRANCH   8   9
ATOM      9  C   LIG    1       30.765 -19.017   7.090  0.00  0.00    +0.312 C 
ATOM     10  O   LIG    1       30.730 -17.996   7.772  0.00  0.00    -0.250 OA
BRANCH   9  11
ATOM     11  O   LIG    1       31.790 -19.893   7.197  0.00  0.00    -0.480 OA
ATOM     12  H   LIG    1       32.134 -20.014   8.105  0.00  0.00    +0.295 HD
ENDBRANCH   9  11
ENDBRANCH   8   9
ENDBRANCH   1   8
BRANCH   3  13
ATOM     13  C   LIG    1       25.152 -21.588   5.596  0.00  0.00    +0.193 C 
ATOM     14  O   LIG    1       24.831 -22.756   5.382  0.00  0.00    -0.287 OA
BRANCH  13  15
ATOM     15  C   LIG    1       24.286 -20.488   5.074  0.00  0.00    +0.022 A 
ATOM     16  C   LIG    1       24.653 -19.730   3.953  0.00  0.00    +0.012 A 
ATOM     17  C   LIG    1       23.837 -18.691   3.503  0.00  0.00    +0.001 A 
ATOM     18  C   LIG    1       22.621 -18.434   4.133  0.00  0.00    +0.000 A 
ATOM     19  C   LIG    1       22.226 -19.209   5.223  0.00  0.00    +0.001 A 
ATOM     20  C   LIG    1       23.059 -20.229   5.699  0.00  0.00    +0.012 A 
ENDBRANCH  13  15
ENDBRANCH   3  13
TORSDOF 5
ENDMDL
