MODEL 1
REMARK VINA RESULT:      -6.7      0.000      0.000
REMARK  Name = *****
REMARK                            x       y       z     vdW  Elec       q    Type
REMARK                         _______ _______ _______ _____ _____    ______ ____
ROOT
ATOM      1  C   LIG    1       29.637 -19.022   6.490  0.00  0.00    +0.028 A 
ATOM      2  C   LIG    1       30.700 -18.748   7.355  0.00  0.00    +0.069 A 
ATOM      3  C   LIG    1       31.137 -19.707   8.269  0.00  0.00    +0.133 A 
ATOM      4  C   LIG    1       30.569 -20.986   8.281  0.00  0.00    +0.100 A 
ATOM      5  C   LIG    1       29.524 -21.279   7.396  0.00  0.00    +0.020 A 
ATOM      6  C   LIG    1       29.085 -20.307   6.490  0.00  0.00    +0.024 A 
ENDROOT
BRANCH   1   7
ATOM      7  N   LIG    1       29.285 -18.107   5.493  0.00  0.00    -0.358 N 
ATOM      8  H   LIG    1       29.469 -18.436   4.550  0.00  0.00    +0.142 HD
ATOM      9  H   LIG    1       29.640 -17.168   5.645  0.00  0.00    +0.142 HD
ENDBRANCH   1   7
BRANCH   3  10
ATOM     10  O   LIG    1       32.139 -19.325   9.123  0.00  0.00    -0.506 OA
ATOM     11  H   LIG    1       32.717 -20.100   9.298  0.00  0.00    +0.292 HD
ENDBRANCH   3  10
BRANCH   4  12
ATOM     12  C   LIG    1       31.079 -21.992   9.237  0.00  0.00    +0.340 C 
ATOM     13  O   LIG    1       30.746 -21.984  10.413  0.00  0.00    -0.245 OA
BRANCH  12  14
ATOM     14  O   LIG    1       31.988 -22.848   8.728  0.00  0.00    -0.477 OA
ATOM     15  H   LIG    1       31.975 -22.933   7.757  0.00  0.00    +0.295 HD
ENDBRANCH  12  14
ENDBRANCH   4  12
TORSDOF 4
ENDMDL
MODEL 2
REMARK VINA RESULT:      -6.4      1.333      1.749
REMARK  Name = *****
REMARK                            x       y       z     vdW  Elec       q    Type
REMARK                         _______ _______ _______ _____ _____    ______ ____
ROOT
ATOM      1  C   LIG    1       28.203 -20.062   6.126  0.00  0.00    +0.028 A 
ATOM      2  C   LIG    1       29.314 -19.216   6.166  0.00  0.00    +0.069 A 
ATOM      3  C   LIG    1       30.346 -19.443   7.077  0.00  0.00    +0.133 A 
ATOM      4  C   LIG    1       30.321 -20.566   7.911  0.00  0.00    +0.100 A 
ATOM      5  C   LIG    1       29.226 -21.436   7.855  0.00  0.00    +0.020 A 
ATOM      6  C   LIG    1       28.190 -21.195   6.946  0.00  0.00    +0.024 A 
ENDROOT
BRANCH   1   7
ATOM      7  N   LIG    1       27.232 -19.906   5.130  0.00  0.00    -0.358 N 
ATOM      8  H   LIG    1       26.485 -20.593   5.174  0.00  0.00    +0.142 HD
ATOM      9  H   LIG    1       27.609 -19.813   4.192  0.00  0.00    +0.142 HD
ENDBRANCH   1   7
BRANCH   3  10
ATOM     10  O   LIG    1       31.361 -18.522   7.090  0.00  0.00    -0.506 OA
ATOM     11  H   LIG    1       31.119 -17.777   6.497  0.00  0.00    +0.292 HD
ENDBRANCH   3  10
BRANCH   4  12
ATOM     12  C   LIG    1       31.448 -20.798   8.840  0.00  0.00    +0.340 C 
ATOM     13  O   LIG    1       31.981 -19.878   9.442  0.00  0.00    -0.245 OA
BRANCH  12  14
ATOM     14  O   LIG    1       31.880 -22.074   8.900  0.00  0.00    -0.477 OA
ATOM     15  H   LIG    1       32.367 -22.307   9.713  0.00  0.00    +0.295 HD
ENDBRANCH  12  14
ENDBRANCH   4  12
TORSDOF 4
ENDMDL
MODEL 3
REMARK VINA RESULT:      -6.4      1.672      2.918
REMARK  Name = *****
REMARK                            x       y       z     vdW  Elec       q    Type
REMARK                         _______ _______ _______ _____ _____    ______ ____
ROOT
ATOM      1  C   LIG    1       28.269 -19.965   5.840  0.00  0.00    +0.028 A 
ATOM      2  C   LIG    1       28.609 -20.745   6.948  0.00  0.00    +0.069 A 
ATOM      3  C   LIG    1       29.726 -20.429   7.722  0.00  0.00    +0.133 A 
ATOM      4  C   LIG    1       30.479 -19.282   7.446  0.00  0.00    +0.100 A 
ATOM      5  C   LIG    1       30.125 -18.478   6.356  0.00  0.00    +0.020 A 
ATOM      6  C   LIG    1       29.010 -18.808   5.579  0.00  0.00    +0.024 A 
ENDROOT
BRANCH   1   7
ATOM      7  N   LIG    1       27.081 -20.210   5.143  0.00  0.00    -0.358 N 
ATOM      8  H   LIG    1       26.399 -20.748   5.671  0.00  0.00    +0.142 HD
ATOM      9  H   LIG    1       27.216 -20.579   4.207  0.00  0.00    +0.142 HD
ENDBRANCH   1   7
BRANCH   3  10
ATOM     10  O   LIG    1       30.022 -21.290   8.747  0.00  0.00    -0.506 OA
ATOM     11  H   LIG    1       29.354 -22.011   8.756  0.00  0.00    +0.292 HD
ENDBRANCH   3  10
BRANCH   4  12
ATOM     12  C   LIG    1       31.636 -18.955   8.308  0.00  0.00    +0.340 C 
ATOM     13  O   LIG    1       32.025 -19.723   9.175  0.00  0.00    -0.245 OA
BRANCH  12  14
ATOM     14  O   LIG    1       32.159 -17.728   8.112  0.00  0.00    -0.477 OA
ATOM     15  H   LIG    1       33.112 -17.715   7.901  0.00  0.00    +0.295 HD
ENDBRANCH  12  14
ENDBRANCH   4  12
TORSDOF 4
ENDMDL
MODEL 4
REMARK VINA RESULT:      -6.2      5.785      6.742
REMARK  Name = *****
REMARK                            x       y       z     vdW  Elec       q    Type
REMARK                         _______ _______ _______ _____ _____    ______ ____
ROOT
ATOM      1  C   LIG    1       24.297 -24.246   6.499  0.00  0.00    +0.028 A 
ATOM      2  C   LIG    1       23.552 -23.112   6.835  0.00  0.00    +0.069 A 
ATOM      3  C   LIG    1       24.159 -22.025   7.463  0.00  0.00    +0.133 A 
ATOM      4  C   LIG    1       25.539 -22.020   7.697  0.00  0.00    +0.100 A 
ATOM      5  C   LIG    1       26.298 -23.140   7.334  0.00  0.00    +0.020 A 
ATOM      6  C   LIG    1       25.678 -24.231   6.715  0.00  0.00    +0.024 A 
ENDROOT
BRANCH   1   7
ATOM      7  N   LIG    1       23.713 -25.279   5.759  0.00  0.00    -0.358 N 
ATOM      8  H   LIG    1       23.856 -26.202   6.160  0.00  0.00    +0.142 HD
ATOM      9  H   LIG    1       23.930 -25.257   4.768  0.00  0.00    +0.142 HD
ENDBRANCH   1   7
BRANCH   3  10
ATOM     10  O   LIG    1       23.337 -20.986   7.817  0.00  0.00    -0.506 OA
ATOM     11  H   LIG    1       22.724 -20.801   7.071  0.00  0.00    +0.292 HD
ENDBRANCH   3  10
BRANCH   4  12
ATOM     12  C   LIG    1       26.158 -20.837   8.331  0.00  0.00    +0.340 C 
ATOM     13  O   LIG    1       25.856 -20.485   9.462  0.00  0.00    -0.245 OA
BRANCH  12  14
ATOM     14  O   LIG    1       27.006 -20.148   7.540  0.00  0.00    -0.477 OA
ATOM     15  H   LIG    1       26.955 -19.178   7.628  0.00  0.00    +0.295 HD
ENDBRANCH  12  14
ENDBRANCH   4  12
TORSDOF 4
ENDMDL
MODEL 5
REMARK VINA RESULT:      -6.1      4.482      5.363
REMARK  Name = *****
REMARK                            x       y       z     vdW  Elec       q    Type
REMARK                         _______ _______ _______ _____ _____    ______ ____
ROOT
ATOM      1  C   LIG    1       24.594 -20.920   7.424  0.00  0.00    +0.028 A 
ATOM      2  C   LIG    1       24.923 -20.765   6.075  0.00  0.00    +0.069 A 
ATOM      3  C   LIG    1       26.220 -20.418   5.696  0.00  0.00    +0.133 A 
ATOM      4  C   LIG    1       27.231 -20.297   6.656  0.00  0.00    +0.100 A 
ATOM      5  C   LIG    1       26.916 -20.482   8.008  0.00  0.00    +0.020 A 
ATOM      6  C   LIG    1       25.610 -20.818   8.380  0.00  0.00    +0.024 A 
ENDROOT
BRANCH   1   7
ATOM      7  N   LIG    1       23.328 -21.388   7.793  0.00  0.00    -0.358 N 
ATOM      8  H   LIG    1       23.340 -22.019   8.590  0.00  0.00    +0.142 HD
ATOM      9  H   LIG    1       22.780 -21.757   7.023  0.00  0.00    +0.142 HD
ENDBRANCH   1   7
BRANCH   3  10
ATOM     10  O   LIG    1       26.432 -20.221   4.356  0.00  0.00    -0.506 OA
ATOM     11  H   LIG    1       27.083 -20.886   4.039  0.00  0.00    +0.292 HD
ENDBRANCH   3  10
BRANCH   4  12
ATOM     12  C   LIG    1       28.604 -19.965   6.218  0.00  0.00    +0.340 C 
ATOM     13  O   LIG    1       28.833 -18.994   5.513  0.00  0.00    -0.245 OA
BRANCH  12  14
ATOM     14  O   LIG    1       29.548 -20.854   6.588  0.00  0.00    -0.477 OA
ATOM     15  H   LIG    1       30.100 -20.578   7.343  0.00  0.00    +0.295 HD
ENDBRANCH  12  14
ENDBRANCH   4  12
TORSDOF 4
ENDMDL
MODEL 6
REMARK VINA RESULT:      -6.1      6.669      7.584
REMARK  Name = *****
REMARK                            x       y       z     vdW  Elec       q    Type
REMARK                         _______ _______ _______ _____ _____    ______ ____
ROOT
ATOM      1  C   LIG    1       25.032 -21.753   7.825  0.00  0.00    +0.028 A 
ATOM      2  C   LIG    1       23.741 -22.200   7.531  0.00  0.00    +0.069 A 
ATOM      3  C   LIG    1       23.545 -23.382   6.817  0.00  0.00    +0.133 A 
ATOM      4  C   LIG    1       24.635 -24.179   6.452  0.00  0.00    +0.100 A 
ATOM      5  C   LIG    1       25.931 -23.754   6.771  0.00  0.00    +0.020 A 
ATOM      6  C   LIG    1       26.119 -22.561   7.477  0.00  0.00    +0.024 A 
ENDROOT
BRANCH   1   7
ATOM      7  N   LIG    1       25.222 -20.636   8.647  0.00  0.00    -0.358 N 
ATOM      8  H   LIG    1       24.530 -19.905   8.511  0.00  0.00    +0.142 HD
ATOM      9  H   LIG    1       26.169 -20.271   8.640  0.00  0.00    +0.142 HD
ENDBRANCH   1   7
BRANCH   3  10
ATOM     10  O   LIG    1       22.247 -23.705   6.515  0.00  0.00    -0.506 OA
ATOM     11  H   LIG    1       21.961 -23.170   5.742  0.00  0.00    +0.292 HD
ENDBRANCH   3  10
BRANCH   4  12
ATOM     12  C   LIG    1       24.392 -25.445   5.728  0.00  0.00    +0.340 C 
ATOM     13  O   LIG    1       23.891 -26.412   6.281  0.00  0.00    -0.245 OA
BRANCH  12  14
ATOM     14  O   LIG    1       24.838 -25.466   4.455  0.00  0.00    -0.477 OA
ATOM     15  H   LIG    1       24.240 -25.056   3.802  0.00  0.00    +0.295 HD
ENDBRANCH  12  14
ENDBRANCH   4  12
TORSDOF 4
ENDMDL
MODEL 7
REMARK VINA RESULT:      -6.0      5.300      6.158
REMARK  Name = *****
REMARK                            x       y       z     vdW  Elec       q    Type
REMARK                         _______ _______ _______ _____ _____    ______ ____
ROOT
ATOM      1  C   LIG    1       23.158 -20.975   5.544  0.00  0.00    +0.028 A 
ATOM      2  C   LIG    1       24.292 -20.704   4.773  0.00  0.00    +0.069 A 
ATOM      3  C   LIG    1       25.535 -20.526   5.379  0.00  0.00    +0.133 A 
ATOM      4  C   LIG    1       25.682 -20.693   6.761  0.00  0.00    +0.100 A 
ATOM      5  C   LIG    1       24.556 -20.995   7.536  0.00  0.00    +0.020 A 
ATOM      6  C   LIG    1       23.310 -21.161   6.921  0.00  0.00    +0.024 A 
ENDROOT
BRANCH   1   7
ATOM      7  N   LIG    1       21.940 -21.276   4.925  0.00  0.00    -0.358 N 
ATOM      8  H   LIG    1       21.352 -20.463   4.759  0.00  0.00    +0.142 HD
ATOM      9  H   LIG    1       21.426 -22.034   5.363  0.00  0.00    +0.142 HD
ENDBRANCH   1   7
BRANCH   3  10
ATOM     10  O   LIG    1       26.577 -20.197   4.551  0.00  0.00    -0.506 OA
ATOM     11  H   LIG    1       26.598 -20.833   3.802  0.00  0.00    +0.292 HD
ENDBRANCH   3  10
BRANCH   4  12
ATOM     12  C   LIG    1       27.021 -20.533   7.368  0.00  0.00    +0.340 C 
ATOM     13  O   LIG    1       28.040 -20.780   6.742  0.00  0.00    -0.245 OA
BRANCH  12  14
ATOM     14  O   LIG    1       27.014 -20.180   8.670  0.00  0.00    -0.477 OA
ATOM     15  H   LIG    1       26.899 -19.226   8.837  0.00  0.00    +0.295 HD
ENDBRANCH  12  14
ENDBRANCH   4  12
TORSDOF 4
ENDMDL
MODEL 8
REMARK VINA RESULT:      -6.0      4.186      5.049
REMARK  Name = *****
REMARK                            x       y       z     vdW  Elec       q    Type
REMARK                         _______ _______ _______ _____ _____    ______ ____
ROOT
ATOM      1  C   LIG    1       24.158 -20.662   6.166  0.00  0.00    +0.028 A 
ATOM      2  C   LIG    1       24.457 -20.734   7.529  0.00  0.00    +0.069 A 
ATOM      3  C   LIG    1       25.780 -20.699   7.968  0.00  0.00    +0.133 A 
ATOM      4  C   LIG    1       26.825 -20.514   7.056  0.00  0.00    +0.100 A 
ATOM      5  C   LIG    1       26.532 -20.410   5.691  0.00  0.00    +0.020 A 
ATOM      6  C   LIG    1       25.202 -20.457   5.259  0.00  0.00    +0.024 A 
ENDROOT
BRANCH   1   7
ATOM      7  N   LIG    1       22.829 -20.572   5.739  0.00  0.00    -0.358 N 
ATOM      8  H   LIG    1       22.230 -20.045   6.369  0.00  0.00    +0.142 HD
ATOM      9  H   LIG    1       22.414 -21.460   5.475  0.00  0.00    +0.142 HD
ENDBRANCH   1   7
BRANCH   3  10
ATOM     10  O   LIG    1       25.981 -20.844   9.316  0.00  0.00    -0.506 OA
ATOM     11  H   LIG    1       26.505 -20.079   9.641  0.00  0.00    +0.292 HD
ENDBRANCH   3  10
BRANCH   4  12
ATOM     12  C   LIG    1       28.215 -20.445   7.557  0.00  0.00    +0.340 C 
ATOM     13  O   LIG    1       28.529 -19.697   8.471  0.00  0.00    -0.245 OA
BRANCH  12  14
ATOM     14  O   LIG    1       29.101 -21.201   6.877  0.00  0.00    -0.477 OA
ATOM     15  H   LIG    1       28.706 -21.880   6.300  0.00  0.00    +0.295 HD
ENDBRANCH  12  14
ENDBRANCH   4  12
TORSDOF 4
ENDMDL
MODEL 9
REMARK VINA RESULT:      -6.0      6.624      7.680
REMARK  Name = *****
REMARK                            x       y       z     vdW  Elec       q    Type
REMARK                         _______ _______ _______ _____ _____    ______ ____
ROOT
ATOM      1  C   LIG    1       23.990 -22.741   7.195  0.00  0.00    +0.028 A 
ATOM      2  C   LIG    1       23.367 -23.849   6.616  0.00  0.00    +0.069 A 
ATOM      3  C   LIG    1       24.114 -24.964   6.235  0.00  0.00    +0.133 A 
ATOM      4  C   LIG    1       25.487 -25.022   6.498  0.00  0.00    +0.100 A 
ATOM      5  C   LIG    1       26.113 -23.928   7.108  0.00  0.00    +0.020 A 
ATOM      6  C   LIG    1       25.358 -22.809   7.476  0.00  0.00    +0.024 A 
ENDROOT
BRANCH   1   7
ATOM      7  N   LIG    1       23.225 -21.679   7.689  0.00  0.00    -0.358 N 
ATOM      8  H   LIG    1       23.409 -20.792   7.228  0.00  0.00    +0.142 HD
ATOM      9  H   LIG    1       23.235 -21.592   8.700  0.00  0.00    +0.142 HD
ENDBRANCH   1   7
BRANCH   3  10
ATOM     10  O   LIG    1       23.428 -25.974   5.612  0.00  0.00    -0.506 OA
ATOM     11  H   LIG    1       23.764 -26.064   4.693  0.00  0.00    +0.292 HD
ENDBRANCH   3  10
BRANCH   4  12
ATOM     12  C   LIG    1       26.243 -26.234   6.116  0.00  0.00    +0.340 C 
ATOM     13  O   LIG    1       26.513 -26.478   4.950  0.00  0.00    -0.245 OA
BRANCH  12  14
ATOM     14  O   LIG    1       26.531 -27.068   7.135  0.00  0.00    -0.477 OA
ATOM     15  H   LIG    1       25.755 -27.438   7.597  0.00  0.00    +0.295 HD
ENDBRANCH  12  14
ENDBRANCH   4  12
TORSDOF 4
ENDMDL
