MODEL 1
REMARK VINA RESULT:       2.4      0.000      0.000
REMARK  Name = *****
REMARK                            x       y       z     vdW  Elec       q    Type
REMARK                         _______ _______ _______ _____ _____    ______ ____
ROOT
ATOM      1  C   LIG    1       23.506 -17.070   3.380  0.00  0.00    +0.104 C 
ATOM      2  C   LIG    1       23.911 -18.510   2.902  0.00  0.00    +0.152 C 
ATOM      3  C   LIG    1       23.682 -19.623   3.958  0.00  0.00    +0.117 C 
ATOM      4  N   LIG    1       22.362 -19.537   4.587  0.00  0.00    -0.300 NA
ATOM      5  C   LIG    1       22.318 -18.272   5.334  0.00  0.00    +0.086 C 
ATOM      6  C   LIG    1       22.324 -17.089   4.374  0.00  0.00    +0.040 C 
ENDROOT
BRANCH   1   8
ATOM      7  C   LIG    1       24.496 -14.818   3.853  0.00  0.00    +0.248 C 
ATOM      8  N   LIG    1       24.610 -16.211   3.875  0.00  0.00    -0.306 N 
ATOM      9  H   LIG    1       25.539 -16.619   3.929  0.00  0.00    +0.149 HD
ATOM     10  O   LIG    1       23.473 -14.263   3.487  0.00  0.00    -0.270 OA
BRANCH   7  12
ATOM     11  C   LIG    1       25.650 -12.997   5.326  0.00  0.00    +0.134 A 
ATOM     12  C   LIG    1       25.659 -13.962   4.304  0.00  0.00    +0.080 A 
ATOM     13  C   LIG    1       26.873 -14.165   3.592  0.00  0.00    +0.038 A 
ATOM     14  C   LIG    1       28.031 -13.434   3.888  0.00  0.00    +0.062 A 
ATOM     15 CL   LIG    1       29.474 -13.726   2.981  0.00  0.00    -0.082 Cl
ATOM     16  C   LIG    1       28.013 -12.451   4.877  0.00  0.00    +0.047 A 
ATOM     17  C   LIG    1       26.841 -12.302   5.619  0.00  0.00    +0.070 A 
BRANCH  16  18
ATOM     18  N   LIG    1       29.161 -11.757   5.300  0.00  0.00    -0.357 N 
ATOM     19  H   LIG    1       29.780 -12.326   5.871  0.00  0.00    +0.142 HD
ATOM     20  H   LIG    1       29.654 -11.283   4.549  0.00  0.00    +0.142 HD
ENDBRANCH  16  18
BRANCH  11  22
ATOM     21  C   LIG    1       23.853 -11.477   5.711  0.00  0.00    +0.277 C 
ATOM     22  O   LIG    1       24.483 -12.731   6.005  0.00  0.00    -0.494 OA
ENDBRANCH  11  22
ENDBRANCH   7  12
ENDBRANCH   1   8
BRANCH   2  23
ATOM     23  O   LIG    1       25.271 -18.520   2.420  0.00  0.00    -0.377 OA
ATOM     24  C   LIG    1       25.737 -19.825   2.069  0.00  0.00    +0.194 C 
ENDBRANCH   2  23
BRANCH   4  25
ATOM     25  C   LIG    1       22.035 -20.672   5.471  0.00  0.00    +0.088 C 
BRANCH  25  26
ATOM     26  C   LIG    1       23.219 -21.571   5.875  0.00  0.00    +0.056 C 
BRANCH  26  27
ATOM     27  C   LIG    1       24.064 -20.910   6.970  0.00  0.00    +0.230 C 
BRANCH  27  28
ATOM     28  O   LIG    1       25.354 -21.532   7.061  0.00  0.00    -0.492 OA
BRANCH  28  29
ATOM     29  C   LIG    1       26.431 -20.837   6.577  0.00  0.00    +0.121 A 
ATOM     30  C   LIG    1       27.760 -21.069   6.940  0.00  0.00    +0.048 A 
ATOM     31  C   LIG    1       28.785 -20.279   6.420  0.00  0.00    +0.042 A 
ATOM     32  C   LIG    1       28.486 -19.280   5.506  0.00  0.00    +0.124 A 
ATOM     33  F   LIG    1       29.475 -18.522   5.015  0.00  0.00    -0.205 F 
ATOM     34  C   LIG    1       27.177 -19.063   5.093  0.00  0.00    +0.042 A 
ATOM     35  C   LIG    1       26.148 -19.848   5.625  0.00  0.00    +0.048 A 
ENDBRANCH  28  29
ENDBRANCH  27  28
ENDBRANCH  26  27
ENDBRANCH  25  26
ENDBRANCH   4  25
TORSDOF 10
ENDMDL
MODEL 2
REMARK VINA RESULT:       3.1      2.511      4.816
REMARK  Name = *****
REMARK                            x       y       z     vdW  Elec       q    Type
REMARK                         _______ _______ _______ _____ _____    ______ ____
ROOT
ATOM      1  C   LIG    1       26.375 -20.173   4.419  0.00  0.00    +0.104 C 
ATOM      2  C   LIG    1       25.927 -20.871   5.753  0.00  0.00    +0.152 C 
ATOM      3  C   LIG    1       24.394 -20.877   5.988  0.00  0.00    +0.117 C 
ATOM      4  N   LIG    1       23.645 -21.293   4.799  0.00  0.00    -0.300 NA
ATOM      5  C   LIG    1       23.878 -20.279   3.761  0.00  0.00    +0.086 C 
ATOM      6  C   LIG    1       25.328 -20.323   3.294  0.00  0.00    +0.040 C 
ENDROOT
BRANCH   1   8
ATOM      7  C   LIG    1       26.471 -17.812   3.585  0.00  0.00    +0.248 C 
ATOM      8  N   LIG    1       26.835 -18.767   4.539  0.00  0.00    -0.306 N 
ATOM      9  H   LIG    1       27.647 -18.584   5.123  0.00  0.00    +0.149 HD
ATOM     10  O   LIG    1       25.722 -18.081   2.661  0.00  0.00    -0.270 OA
BRANCH   7  12
ATOM     11  C   LIG    1       28.037 -15.953   4.539  0.00  0.00    +0.134 A 
ATOM     12  C   LIG    1       27.005 -16.401   3.695  0.00  0.00    +0.080 A 
ATOM     13  C   LIG    1       26.369 -15.444   2.857  0.00  0.00    +0.038 A 
ATOM     14  C   LIG    1       26.747 -14.095   2.862  0.00  0.00    +0.062 A 
ATOM     15 CL   LIG    1       25.930 -12.982   1.821  0.00  0.00    -0.082 Cl
ATOM     16  C   LIG    1       27.746 -13.644   3.724  0.00  0.00    +0.047 A 
ATOM     17  C   LIG    1       28.414 -14.595   4.495  0.00  0.00    +0.070 A 
BRANCH  16  18
ATOM     18  N   LIG    1       28.248 -12.331   3.706  0.00  0.00    -0.357 N 
ATOM     19  H   LIG    1       27.659 -11.673   4.211  0.00  0.00    +0.142 HD
ATOM     20  H   LIG    1       29.226 -12.260   3.975  0.00  0.00    +0.142 HD
ENDBRANCH  16  18
BRANCH  11  22
ATOM     21  C   LIG    1       29.473 -17.838   4.803  0.00  0.00    +0.277 C 
ATOM     22  O   LIG    1       28.644 -16.834   5.404  0.00  0.00    -0.494 OA
ENDBRANCH  11  22
ENDBRANCH   7  12
ENDBRANCH   1   8
BRANCH   2  23
ATOM     23  O   LIG    1       26.625 -20.304   6.881  0.00  0.00    -0.377 OA
ATOM     24  C   LIG    1       28.012 -20.644   6.917  0.00  0.00    +0.194 C 
ENDBRANCH   2  23
BRANCH   4  25
ATOM     25  C   LIG    1       22.198 -21.478   5.026  0.00  0.00    +0.088 C 
BRANCH  25  26
ATOM     26  C   LIG    1       21.321 -20.230   4.814  0.00  0.00    +0.056 C 
BRANCH  26  27
ATOM     27  C   LIG    1       22.070 -18.955   5.219  0.00  0.00    +0.230 C 
BRANCH  27  28
ATOM     28  O   LIG    1       21.646 -17.841   4.421  0.00  0.00    -0.492 OA
BRANCH  28  29
ATOM     29  C   LIG    1       22.193 -16.615   4.696  0.00  0.00    +0.121 A 
ATOM     30  C   LIG    1       21.963 -15.882   5.862  0.00  0.00    +0.048 A 
ATOM     31  C   LIG    1       22.536 -14.622   6.032  0.00  0.00    +0.042 A 
ATOM     32  C   LIG    1       23.372 -14.109   5.051  0.00  0.00    +0.124 A 
ATOM     33  F   LIG    1       23.915 -12.897   5.218  0.00  0.00    -0.205 F 
ATOM     34  C   LIG    1       23.654 -14.842   3.904  0.00  0.00    +0.042 A 
ATOM     35  C   LIG    1       23.068 -16.101   3.729  0.00  0.00    +0.048 A 
ENDBRANCH  28  29
ENDBRANCH  27  28
ENDBRANCH  26  27
ENDBRANCH  25  26
ENDBRANCH   4  25
TORSDOF 10
ENDMDL
MODEL 3
REMARK VINA RESULT:       4.0      2.536      6.362
REMARK  Name = *****
REMARK                            x       y       z     vdW  Elec       q    Type
REMARK                         _______ _______ _______ _____ _____    ______ ____
ROOT
ATOM      1  C   LIG    1       24.400 -13.614   3.089  0.00  0.00    +0.104 C 
ATOM      2  C   LIG    1       24.876 -12.643   4.228  0.00  0.00    +0.152 C 
ATOM      3  C   LIG    1       26.366 -12.805   4.626  0.00  0.00    +0.117 C 
ATOM      4  N   LIG    1       27.255 -12.863   3.462  0.00  0.00    -0.300 NA
ATOM      5  C   LIG    1       26.914 -14.082   2.716  0.00  0.00    +0.086 C 
ATOM      6  C   LIG    1       25.529 -13.951   2.091  0.00  0.00    +0.040 C 
ENDROOT
BRANCH   1   8
ATOM      7  C   LIG    1       24.350 -16.071   3.576  0.00  0.00    +0.248 C 
ATOM      8  N   LIG    1       23.689 -14.840   3.530  0.00  0.00    -0.306 N 
ATOM      9  H   LIG    1       22.674 -14.837   3.493  0.00  0.00    +0.149 HD
ATOM     10  O   LIG    1       25.537 -16.173   3.315  0.00  0.00    -0.270 OA
BRANCH   7  12
ATOM     11  C   LIG    1       22.320 -17.375   4.573  0.00  0.00    +0.134 A 
ATOM     12  C   LIG    1       23.588 -17.317   3.967  0.00  0.00    +0.080 A 
ATOM     13  C   LIG    1       24.251 -18.546   3.696  0.00  0.00    +0.038 A 
ATOM     14  C   LIG    1       23.674 -19.781   4.018  0.00  0.00    +0.062 A 
ATOM     15 CL   LIG    1       24.536 -21.238   3.666  0.00  0.00    -0.082 Cl
ATOM     16  C   LIG    1       22.433 -19.837   4.651  0.00  0.00    +0.047 A 
ATOM     17  C   LIG    1       21.754 -18.636   4.854  0.00  0.00    +0.070 A 
BRANCH  16  18
ATOM     18  N   LIG    1       21.747 -21.039   4.904  0.00  0.00    -0.357 N 
ATOM     19  H   LIG    1       22.322 -21.864   4.748  0.00  0.00    +0.142 HD
ATOM     20  H   LIG    1       21.275 -21.062   5.804  0.00  0.00    +0.142 HD
ENDBRANCH  16  18
BRANCH  11  22
ATOM     21  C   LIG    1       21.862 -15.729   6.236  0.00  0.00    +0.277 C 
ATOM     22  O   LIG    1       21.665 -16.211   4.899  0.00  0.00    -0.494 OA
ENDBRANCH  11  22
ENDBRANCH   7  12
ENDBRANCH   1   8
BRANCH   2  23
ATOM     23  O   LIG    1       24.014 -12.753   5.381  0.00  0.00    -0.377 OA
ATOM     24  C   LIG    1       23.612 -11.488   5.909  0.00  0.00    +0.194 C 
ENDBRANCH   2  23
BRANCH   4  25
ATOM     25  C   LIG    1       28.693 -12.845   3.794  0.00  0.00    +0.088 C 
BRANCH  25  26
ATOM     26  C   LIG    1       29.245 -14.120   4.459  0.00  0.00    +0.056 C 
BRANCH  26  27
ATOM     27  C   LIG    1       28.137 -15.162   4.655  0.00  0.00    +0.230 C 
BRANCH  27  28
ATOM     28  O   LIG    1       28.481 -16.397   4.010  0.00  0.00    -0.492 OA
BRANCH  28  29
ATOM     29  C   LIG    1       28.502 -17.532   4.778  0.00  0.00    +0.121 A 
ATOM     30  C   LIG    1       29.473 -17.830   5.735  0.00  0.00    +0.048 A 
ATOM     31  C   LIG    1       29.429 -19.033   6.439  0.00  0.00    +0.042 A 
ATOM     32  C   LIG    1       28.390 -19.924   6.212  0.00  0.00    +0.124 A 
ATOM     33  F   LIG    1       28.357 -21.079   6.888  0.00  0.00    -0.205 F 
ATOM     34  C   LIG    1       27.385 -19.626   5.300  0.00  0.00    +0.042 A 
ATOM     35  C   LIG    1       27.438 -18.424   4.586  0.00  0.00    +0.048 A 
ENDBRANCH  28  29
ENDBRANCH  27  28
ENDBRANCH  26  27
ENDBRANCH  25  26
ENDBRANCH   4  25
TORSDOF 10
ENDMDL
