MODEL 1
REMARK VINA RESULT:      -8.4      0.000      0.000
REMARK  Name = *****
REMARK                            x       y       z     vdW  Elec       q    Type
REMARK                         _______ _______ _______ _____ _____    ______ ____
ROOT
ATOM      1  C   LIG    1       25.090 -25.221   6.034  0.00  0.00    -0.030 A 
ATOM      2  C   LIG    1       24.081 -26.128   5.780  0.00  0.00    +0.006 A 
ATOM      3  C   LIG    1       24.162 -27.488   6.097  0.00  0.00    +0.009 A 
ATOM      4  C   LIG    1       25.209 -27.984   6.863  0.00  0.00    -0.017 A 
ATOM      5  C   LIG    1       26.103 -26.994   7.344  0.00  0.00    +0.009 A 
ATOM      6  C   LIG    1       26.045 -25.639   6.947  0.00  0.00    +0.006 A 
ENDROOT
BRANCH   4   7
ATOM      7  C   LIG    1       25.479 -29.455   7.061  0.00  0.00    -0.007 A 
ATOM      8  C   LIG    1       25.889 -30.138   8.247  0.00  0.00    +0.030 A 
ATOM      9  C   LIG    1       26.034 -31.558   8.210  0.00  0.00    +0.012 A 
ATOM     10  C   LIG    1       25.828 -32.306   7.054  0.00  0.00    +0.001 A 
ATOM     11  C   LIG    1       25.440 -31.658   5.900  0.00  0.00    +0.001 A 
ATOM     12  C   LIG    1       25.253 -30.273   5.916  0.00  0.00    +0.009 A 
BRANCH   8  13
ATOM     13  C   LIG    1       26.215 -29.522   9.545  0.00  0.00    +0.205 A 
ATOM     14  N   LIG    1       27.424 -29.127   9.971  0.00  0.00    -0.133 NA
ATOM     15  N   LIG    1       27.112 -28.560  11.139  0.00  0.00    -0.176 N 
ATOM     16  H   LIG    1       27.796 -28.041  11.681  0.00  0.00    +0.214 HD
ATOM     17  N   LIG    1       25.842 -28.675  11.526  0.00  0.00    -0.049 NA
ATOM     18  N   LIG    1       25.248 -29.282  10.511  0.00  0.00    -0.108 NA
ENDBRANCH   8  13
ENDBRANCH   4   7
BRANCH   1  19
ATOM     19  C   LIG    1       25.183 -23.896   5.288  0.00  0.00    +0.143 C 
BRANCH  19  21
ATOM     20  C   LIG    1       23.583 -22.399   6.444  0.00  0.00    +0.216 C 
ATOM     21  N   LIG    1       24.930 -22.675   6.135  0.00  0.00    -0.283 N 
ATOM     22  O   LIG    1       22.668 -23.137   6.057  0.00  0.00    -0.276 OA
BRANCH  20  23
ATOM     23  C   LIG    1       23.256 -21.242   7.384  0.00  0.00    +0.096 C 
BRANCH  23  24
ATOM     24  C   LIG    1       22.949 -19.881   6.767  0.00  0.00    +0.009 C 
BRANCH  24  26
ATOM     25  C   LIG    1       22.328 -18.635   4.639  0.00  0.00    +0.004 C 
ATOM     26  C   LIG    1       22.508 -19.991   5.305  0.00  0.00    -0.003 C 
ENDBRANCH  24  26
ENDBRANCH  23  24
ENDBRANCH  20  23
BRANCH  21  27
ATOM     27  C   LIG    1       26.113 -21.847   6.588  0.00  0.00    +0.187 C 
BRANCH  27  28
ATOM     28  C   LIG    1       26.396 -20.466   5.844  0.00  0.00    +0.014 C 
ATOM     29  C   LIG    1       25.789 -20.292   4.441  0.00  0.00    +0.009 C 
ATOM     30  C   LIG    1       27.844 -19.967   5.761  0.00  0.00    +0.009 C 
ENDBRANCH  27  28
BRANCH  27  31
ATOM     31  C   LIG    1       26.231 -21.689   8.133  0.00  0.00    +0.326 C 
ATOM     32  O   LIG    1       26.131 -22.667   8.897  0.00  0.00    -0.249 OA
BRANCH  31  33
ATOM     33  O   LIG    1       26.444 -20.524   8.723  0.00  0.00    -0.479 OA
ATOM     34  H   LIG    1       25.721 -20.070   9.206  0.00  0.00    +0.295 HD
ENDBRANCH  31  33
ENDBRANCH  27  31
ENDBRANCH  21  27
ENDBRANCH  19  21
ENDBRANCH   1  19
TORSDOF 11
ENDMDL
MODEL 2
REMARK VINA RESULT:      -8.2      2.267      3.922
REMARK  Name = *****
REMARK                            x       y       z     vdW  Elec       q    Type
REMARK                         _______ _______ _______ _____ _____    ______ ____
ROOT
ATOM      1  C   LIG    1       25.077 -25.257   5.460  0.00  0.00    -0.030 A 
ATOM      2  C   LIG    1       26.268 -25.952   5.398  0.00  0.00    +0.006 A 
ATOM      3  C   LIG    1       26.551 -27.078   6.177  0.00  0.00    +0.009 A 
ATOM      4  C   LIG    1       25.563 -27.686   6.943  0.00  0.00    -0.017 A 
ATOM      5  C   LIG    1       24.273 -27.119   6.792  0.00  0.00    +0.009 A 
ATOM      6  C   LIG    1       24.028 -25.935   6.062  0.00  0.00    +0.006 A 
ENDROOT
BRANCH   4   7
ATOM      7  C   LIG    1       25.840 -28.760   7.965  0.00  0.00    -0.007 A 
ATOM      8  C   LIG    1       25.568 -30.161   7.887  0.00  0.00    +0.030 A 
ATOM      9  C   LIG    1       25.969 -31.003   8.968  0.00  0.00    +0.012 A 
ATOM     10  C   LIG    1       26.585 -30.512  10.117  0.00  0.00    +0.001 A 
ATOM     11  C   LIG    1       26.846 -29.161  10.208  0.00  0.00    +0.001 A 
ATOM     12  C   LIG    1       26.500 -28.318   9.149  0.00  0.00    +0.009 A 
BRANCH   8  13
ATOM     13  C   LIG    1       24.872 -30.858   6.793  0.00  0.00    +0.205 A 
ATOM     14  N   LIG    1       25.338 -31.088   5.555  0.00  0.00    -0.133 NA
ATOM     15  N   LIG    1       24.353 -31.831   5.045  0.00  0.00    -0.176 N 
ATOM     16  H   LIG    1       24.440 -32.286   4.140  0.00  0.00    +0.214 HD
ATOM     17  N   LIG    1       23.273 -31.982   5.810  0.00  0.00    -0.049 NA
ATOM     18  N   LIG    1       23.592 -31.372   6.941  0.00  0.00    -0.108 NA
ENDBRANCH   8  13
ENDBRANCH   4   7
BRANCH   1  19
ATOM     19  C   LIG    1       24.962 -23.816   4.979  0.00  0.00    +0.143 C 
BRANCH  19  21
ATOM     20  C   LIG    1       25.679 -22.796   7.119  0.00  0.00    +0.216 C 
ATOM     21  N   LIG    1       24.738 -22.801   6.070  0.00  0.00    -0.283 N 
ATOM     22  O   LIG    1       26.644 -23.571   7.125  0.00  0.00    -0.276 OA
BRANCH  20  23
ATOM     23  C   LIG    1       25.579 -21.729   8.205  0.00  0.00    +0.096 C 
BRANCH  23  24
ATOM     24  C   LIG    1       26.169 -20.351   7.915  0.00  0.00    +0.009 C 
BRANCH  24  26
ATOM     25  C   LIG    1       28.155 -20.077   6.351  0.00  0.00    +0.004 C 
ATOM     26  C   LIG    1       27.692 -20.392   7.766  0.00  0.00    -0.003 C 
ENDBRANCH  24  26
ENDBRANCH  23  24
ENDBRANCH  20  23
BRANCH  21  27
ATOM     27  C   LIG    1       23.547 -21.873   5.966  0.00  0.00    +0.187 C 
BRANCH  27  28
ATOM     28  C   LIG    1       23.583 -20.722   4.864  0.00  0.00    +0.014 C 
ATOM     29  C   LIG    1       24.969 -20.247   4.396  0.00  0.00    +0.009 C 
ATOM     30  C   LIG    1       22.743 -19.460   5.101  0.00  0.00    +0.009 C 
ENDBRANCH  27  28
BRANCH  27  31
ATOM     31  C   LIG    1       22.167 -22.596   5.982  0.00  0.00    +0.326 C 
ATOM     32  O   LIG    1       21.219 -22.203   5.277  0.00  0.00    -0.249 OA
BRANCH  31  33
ATOM     33  O   LIG    1       21.921 -23.659   6.729  0.00  0.00    -0.479 OA
ATOM     34  H   LIG    1       22.657 -24.164   7.136  0.00  0.00    +0.295 HD
ENDBRANCH  31  33
ENDBRANCH  27  31
ENDBRANCH  21  27
ENDBRANCH  19  21
ENDBRANCH   1  19
TORSDOF 11
ENDMDL
MODEL 3
REMARK VINA RESULT:      -8.0      0.975      2.952
REMARK  Name = *****
REMARK                            x       y       z     vdW  Elec       q    Type
REMARK                         _______ _______ _______ _____ _____    ______ ____
ROOT
ATOM      1  C   LIG    1       25.031 -25.177   5.920  0.00  0.00    -0.030 A 
ATOM      2  C   LIG    1       24.039 -26.073   5.578  0.00  0.00    +0.006 A 
ATOM      3  C   LIG    1       24.120 -27.449   5.817  0.00  0.00    +0.009 A 
ATOM      4  C   LIG    1       25.143 -27.982   6.591  0.00  0.00    -0.017 A 
ATOM      5  C   LIG    1       26.011 -27.017   7.160  0.00  0.00    +0.009 A 
ATOM      6  C   LIG    1       25.957 -25.642   6.841  0.00  0.00    +0.006 A 
ENDROOT
BRANCH   4   7
ATOM      7  C   LIG    1       25.417 -29.460   6.712  0.00  0.00    -0.007 A 
ATOM      8  C   LIG    1       25.731 -30.220   7.882  0.00  0.00    +0.030 A 
ATOM      9  C   LIG    1       25.901 -31.632   7.762  0.00  0.00    +0.012 A 
ATOM     10  C   LIG    1       25.810 -32.301   6.544  0.00  0.00    +0.001 A 
ATOM     11  C   LIG    1       25.516 -31.579   5.406  0.00  0.00    +0.001 A 
ATOM     12  C   LIG    1       25.306 -30.201   5.499  0.00  0.00    +0.009 A 
BRANCH   8  13
ATOM     13  C   LIG    1       25.932 -29.691   9.241  0.00  0.00    +0.205 A 
ATOM     14  N   LIG    1       25.015 -29.598  10.217  0.00  0.00    -0.133 NA
ATOM     15  N   LIG    1       25.763 -29.160  11.231  0.00  0.00    -0.176 N 
ATOM     16  H   LIG    1       25.397 -29.093  12.176  0.00  0.00    +0.214 HD
ATOM     17  N   LIG    1       27.029 -28.861  10.942  0.00  0.00    -0.049 NA
ATOM     18  N   LIG    1       27.159 -29.206   9.670  0.00  0.00    -0.108 NA
ENDBRANCH   8  13
ENDBRANCH   4   7
BRANCH   1  19
ATOM     19  C   LIG    1       25.141 -23.809   5.256  0.00  0.00    +0.143 C 
BRANCH  19  21
ATOM     20  C   LIG    1       25.989 -22.368   7.084  0.00  0.00    +0.216 C 
ATOM     21  N   LIG    1       24.939 -22.638   6.184  0.00  0.00    -0.283 N 
ATOM     22  O   LIG    1       27.024 -23.046   7.091  0.00  0.00    -0.276 OA
BRANCH  20  23
ATOM     23  C   LIG    1       25.904 -21.137   7.981  0.00  0.00    +0.096 C 
BRANCH  23  24
ATOM     24  C   LIG    1       27.152 -20.273   8.137  0.00  0.00    +0.009 C 
BRANCH  24  26
ATOM     25  C   LIG    1       29.239 -20.422   6.692  0.00  0.00    +0.004 C 
ATOM     26  C   LIG    1       27.799 -19.940   6.790  0.00  0.00    -0.003 C 
ENDBRANCH  24  26
ENDBRANCH  23  24
ENDBRANCH  20  23
BRANCH  21  27
ATOM     27  C   LIG    1       23.653 -21.846   6.086  0.00  0.00    +0.187 C 
BRANCH  27  28
ATOM     28  C   LIG    1       23.522 -20.765   4.921  0.00  0.00    +0.014 C 
ATOM     29  C   LIG    1       24.828 -20.265   4.282  0.00  0.00    +0.009 C 
ATOM     30  C   LIG    1       22.653 -19.526   5.173  0.00  0.00    +0.009 C 
ENDBRANCH  27  28
BRANCH  27  31
ATOM     31  C   LIG    1       22.359 -22.706   6.206  0.00  0.00    +0.326 C 
ATOM     32  O   LIG    1       22.294 -23.678   6.981  0.00  0.00    -0.249 OA
BRANCH  31  33
ATOM     33  O   LIG    1       21.265 -22.459   5.506  0.00  0.00    -0.479 OA
ATOM     34  H   LIG    1       20.670 -21.719   5.756  0.00  0.00    +0.295 HD
ENDBRANCH  31  33
ENDBRANCH  27  31
ENDBRANCH  21  27
ENDBRANCH  19  21
ENDBRANCH   1  19
TORSDOF 11
ENDMDL
MODEL 4
REMARK VINA RESULT:      -8.0      1.652      3.554
REMARK  Name = *****
REMARK                            x       y       z     vdW  Elec       q    Type
REMARK                         _______ _______ _______ _____ _____    ______ ____
ROOT
ATOM      1  C   LIG    1       25.100 -23.785   7.134  0.00  0.00    -0.030 A 
ATOM      2  C   LIG    1       26.253 -24.500   6.878  0.00  0.00    +0.006 A 
ATOM      3  C   LIG    1       26.271 -25.870   6.599  0.00  0.00    +0.009 A 
ATOM      4  C   LIG    1       25.092 -26.572   6.381  0.00  0.00    -0.017 A 
ATOM      5  C   LIG    1       23.923 -25.769   6.385  0.00  0.00    +0.009 A 
ATOM      6  C   LIG    1       23.922 -24.404   6.746  0.00  0.00    +0.006 A 
ENDROOT
BRANCH   4   7
ATOM      7  C   LIG    1       25.018 -28.076   6.291  0.00  0.00    -0.007 A 
ATOM      8  C   LIG    1       25.276 -29.047   7.307  0.00  0.00    +0.030 A 
ATOM      9  C   LIG    1       25.090 -30.429   7.003  0.00  0.00    +0.012 A 
ATOM     10  C   LIG    1       24.701 -30.878   5.743  0.00  0.00    +0.001 A 
ATOM     11  C   LIG    1       24.456 -29.951   4.752  0.00  0.00    +0.001 A 
ATOM     12  C   LIG    1       24.593 -28.589   5.031  0.00  0.00    +0.009 A 
BRANCH   8  13
ATOM     13  C   LIG    1       25.754 -28.779   8.674  0.00  0.00    +0.205 A 
ATOM     14  N   LIG    1       26.815 -28.037   9.029  0.00  0.00    -0.133 NA
ATOM     15  N   LIG    1       26.706 -28.056  10.359  0.00  0.00    -0.176 N 
ATOM     16  H   LIG    1       27.296 -27.479  10.952  0.00  0.00    +0.214 HD
ATOM     17  N   LIG    1       25.749 -28.836  10.860  0.00  0.00    -0.049 NA
ATOM     18  N   LIG    1       25.121 -29.301   9.792  0.00  0.00    -0.108 NA
ENDBRANCH   8  13
ENDBRANCH   4   7
BRANCH   1  19
ATOM     19  C   LIG    1       25.129 -22.453   7.874  0.00  0.00    +0.143 C 
BRANCH  19  21
ATOM     20  C   LIG    1       27.115 -21.051   7.399  0.00  0.00    +0.216 C 
ATOM     21  N   LIG    1       25.762 -21.319   7.110  0.00  0.00    -0.283 N 
ATOM     22  O   LIG    1       27.747 -21.728   8.221  0.00  0.00    -0.276 OA
BRANCH  20  23
ATOM     23  C   LIG    1       27.854 -19.988   6.591  0.00  0.00    +0.096 C 
BRANCH  23  24
ATOM     24  C   LIG    1       29.372 -20.099   6.475  0.00  0.00    +0.009 C 
BRANCH  24  26
ATOM     25  C   LIG    1       30.254 -18.323   8.067  0.00  0.00    +0.004 C 
ATOM     26  C   LIG    1       30.065 -18.741   6.616  0.00  0.00    -0.003 C 
ENDBRANCH  24  26
ENDBRANCH  23  24
ENDBRANCH  20  23
BRANCH  21  27
ATOM     27  C   LIG    1       24.923 -20.564   6.102  0.00  0.00    +0.187 C 
BRANCH  27  28
ATOM     28  C   LIG    1       25.084 -20.934   4.559  0.00  0.00    +0.014 C 
ATOM     29  C   LIG    1       25.142 -19.764   3.563  0.00  0.00    +0.009 C 
ATOM     30  C   LIG    1       24.133 -21.977   3.958  0.00  0.00    +0.009 C 
ENDBRANCH  27  28
BRANCH  27  31
ATOM     31  C   LIG    1       23.422 -20.423   6.494  0.00  0.00    +0.326 C 
ATOM     32  O   LIG    1       22.954 -21.000   7.493  0.00  0.00    -0.249 OA
BRANCH  31  33
ATOM     33  O   LIG    1       22.565 -19.689   5.805  0.00  0.00    -0.479 OA
ATOM     34  H   LIG    1       21.965 -19.060   6.262  0.00  0.00    +0.295 HD
ENDBRANCH  31  33
ENDBRANCH  27  31
ENDBRANCH  21  27
ENDBRANCH  19  21
ENDBRANCH   1  19
TORSDOF 11
ENDMDL
MODEL 5
REMARK VINA RESULT:      -7.9      1.270      2.077
REMARK  Name = *****
REMARK                            x       y       z     vdW  Elec       q    Type
REMARK                         _______ _______ _______ _____ _____    ______ ____
ROOT
ATOM      1  C   LIG    1       25.043 -25.135   5.404  0.00  0.00    -0.030 A 
ATOM      2  C   LIG    1       23.947 -25.953   5.590  0.00  0.00    +0.006 A 
ATOM      3  C   LIG    1       24.033 -27.278   6.029  0.00  0.00    +0.009 A 
ATOM      4  C   LIG    1       25.234 -27.804   6.487  0.00  0.00    -0.017 A 
ATOM      5  C   LIG    1       26.300 -26.870   6.541  0.00  0.00    +0.009 A 
ATOM      6  C   LIG    1       26.210 -25.561   6.019  0.00  0.00    +0.006 A 
ENDROOT
BRANCH   4   7
ATOM      7  C   LIG    1       25.452 -29.269   6.770  0.00  0.00    -0.007 A 
ATOM      8  C   LIG    1       25.706 -29.912   8.021  0.00  0.00    +0.030 A 
ATOM      9  C   LIG    1       25.829 -31.333   8.055  0.00  0.00    +0.012 A 
ATOM     10  C   LIG    1       25.750 -32.123   6.910  0.00  0.00    +0.001 A 
ATOM     11  C   LIG    1       25.514 -31.515   5.695  0.00  0.00    +0.001 A 
ATOM     12  C   LIG    1       25.350 -30.129   5.637  0.00  0.00    +0.009 A 
BRANCH   8  13
ATOM     13  C   LIG    1       25.886 -29.250   9.325  0.00  0.00    +0.205 A 
ATOM     14  N   LIG    1       25.067 -29.316  10.386  0.00  0.00    -0.133 NA
ATOM     15  N   LIG    1       25.766 -28.630  11.293  0.00  0.00    -0.176 N 
ATOM     16  H   LIG    1       25.482 -28.587  12.267  0.00  0.00    +0.214 HD
ATOM     17  N   LIG    1       26.883 -28.048  10.856  0.00  0.00    -0.049 NA
ATOM     18  N   LIG    1       26.982 -28.443   9.597  0.00  0.00    -0.108 NA
ENDBRANCH   8  13
ENDBRANCH   4   7
BRANCH   1  19
ATOM     19  C   LIG    1       24.983 -23.903   4.509  0.00  0.00    +0.143 C 
BRANCH  19  21
ATOM     20  C   LIG    1       24.337 -21.513   4.400  0.00  0.00    +0.216 C 
ATOM     21  N   LIG    1       24.628 -22.622   5.220  0.00  0.00    -0.283 N 
ATOM     22  O   LIG    1       24.353 -21.602   3.165  0.00  0.00    -0.276 OA
BRANCH  20  23
ATOM     23  C   LIG    1       23.868 -20.212   5.044  0.00  0.00    +0.096 C 
BRANCH  23  24
ATOM     24  C   LIG    1       22.375 -19.894   5.015  0.00  0.00    +0.009 C 
BRANCH  24  26
ATOM     25  C   LIG    1       22.240 -17.374   4.703  0.00  0.00    +0.004 C 
ATOM     26  C   LIG    1       22.046 -18.741   4.063  0.00  0.00    -0.003 C 
ENDBRANCH  24  26
ENDBRANCH  23  24
ENDBRANCH  20  23
BRANCH  21  27
ATOM     27  C   LIG    1       24.605 -22.613   6.734  0.00  0.00    +0.187 C 
BRANCH  27  28
ATOM     28  C   LIG    1       25.624 -21.653   7.497  0.00  0.00    +0.014 C 
ATOM     29  C   LIG    1       26.946 -21.328   6.782  0.00  0.00    +0.009 C 
ATOM     30  C   LIG    1       25.981 -21.979   8.953  0.00  0.00    +0.009 C 
ENDBRANCH  27  28
BRANCH  27  31
ATOM     31  C   LIG    1       23.178 -22.528   7.353  0.00  0.00    +0.326 C 
ATOM     32  O   LIG    1       22.867 -21.621   8.148  0.00  0.00    -0.249 OA
BRANCH  31  33
ATOM     33  O   LIG    1       22.221 -23.397   7.075  0.00  0.00    -0.479 OA
ATOM     34  H   LIG    1       21.993 -24.109   7.711  0.00  0.00    +0.295 HD
ENDBRANCH  31  33
ENDBRANCH  27  31
ENDBRANCH  21  27
ENDBRANCH  19  21
ENDBRANCH   1  19
TORSDOF 11
ENDMDL
MODEL 6
REMARK VINA RESULT:      -7.6      4.375      8.337
REMARK  Name = *****
REMARK                            x       y       z     vdW  Elec       q    Type
REMARK                         _______ _______ _______ _____ _____    ______ ____
ROOT
ATOM      1  C   LIG    1       27.172 -20.323   5.982  0.00  0.00    -0.030 A 
ATOM      2  C   LIG    1       26.985 -20.293   7.349  0.00  0.00    +0.006 A 
ATOM      3  C   LIG    1       27.888 -19.710   8.243  0.00  0.00    +0.009 A 
ATOM      4  C   LIG    1       28.960 -18.953   7.787  0.00  0.00    -0.017 A 
ATOM      5  C   LIG    1       28.991 -18.769   6.382  0.00  0.00    +0.009 A 
ATOM      6  C   LIG    1       28.114 -19.431   5.494  0.00  0.00    +0.006 A 
ENDROOT
BRANCH   4   7
ATOM      7  C   LIG    1       30.086 -18.479   8.671  0.00  0.00    -0.007 A 
ATOM      8  C   LIG    1       31.181 -19.228   9.205  0.00  0.00    +0.030 A 
ATOM      9  C   LIG    1       32.166 -18.550   9.984  0.00  0.00    +0.012 A 
ATOM     10  C   LIG    1       32.089 -17.191  10.279  0.00  0.00    +0.001 A 
ATOM     11  C   LIG    1       31.033 -16.458   9.777  0.00  0.00    +0.001 A 
ATOM     12  C   LIG    1       30.074 -17.088   8.979  0.00  0.00    +0.009 A 
BRANCH   8  13
ATOM     13  C   LIG    1       31.405 -20.676   9.060  0.00  0.00    +0.205 A 
ATOM     14  N   LIG    1       32.098 -21.295   8.092  0.00  0.00    -0.133 NA
ATOM     15  N   LIG    1       32.059 -22.560   8.516  0.00  0.00    -0.176 N 
ATOM     16  H   LIG    1       32.601 -23.292   8.067  0.00  0.00    +0.214 HD
ATOM     17  N   LIG    1       31.306 -22.796   9.590  0.00  0.00    -0.049 NA
ATOM     18  N   LIG    1       30.886 -21.597   9.960  0.00  0.00    -0.108 NA
ENDBRANCH   8  13
ENDBRANCH   4   7
BRANCH   1  19
ATOM     19  C   LIG    1       26.453 -21.333   5.096  0.00  0.00    +0.143 C 
BRANCH  19  21
ATOM     20  C   LIG    1       24.364 -20.184   4.423  0.00  0.00    +0.216 C 
ATOM     21  N   LIG    1       24.949 -21.251   5.135  0.00  0.00    -0.283 N 
ATOM     22  O   LIG    1       25.054 -19.377   3.787  0.00  0.00    -0.276 OA
BRANCH  20  23
ATOM     23  C   LIG    1       22.844 -20.096   4.329  0.00  0.00    +0.096 C 
BRANCH  23  24
ATOM     24  C   LIG    1       22.147 -18.927   5.021  0.00  0.00    +0.009 C 
BRANCH  24  26
ATOM     25  C   LIG    1       22.219 -16.386   4.987  0.00  0.00    +0.004 C 
ATOM     26  C   LIG    1       22.144 -17.661   4.160  0.00  0.00    -0.003 C 
ENDBRANCH  24  26
ENDBRANCH  23  24
ENDBRANCH  20  23
BRANCH  21  27
ATOM     27  C   LIG    1       24.184 -22.298   5.915  0.00  0.00    +0.187 C 
BRANCH  27  28
ATOM     28  C   LIG    1       24.892 -23.700   6.189  0.00  0.00    +0.014 C 
ATOM     29  C   LIG    1       23.990 -24.945   6.218  0.00  0.00    +0.009 C 
ATOM     30  C   LIG    1       25.838 -23.814   7.392  0.00  0.00    +0.009 C 
ENDBRANCH  27  28
BRANCH  27  31
ATOM     31  C   LIG    1       23.485 -21.759   7.198  0.00  0.00    +0.326 C 
ATOM     32  O   LIG    1       22.483 -22.321   7.679  0.00  0.00    -0.249 OA
BRANCH  31  33
ATOM     33  O   LIG    1       23.907 -20.689   7.851  0.00  0.00    -0.479 OA
ATOM     34  H   LIG    1       23.421 -19.838   7.782  0.00  0.00    +0.295 HD
ENDBRANCH  31  33
ENDBRANCH  27  31
ENDBRANCH  21  27
ENDBRANCH  19  21
ENDBRANCH   1  19
TORSDOF 11
ENDMDL
MODEL 7
REMARK VINA RESULT:      -7.5      3.312      9.208
REMARK  Name = *****
REMARK                            x       y       z     vdW  Elec       q    Type
REMARK                         _______ _______ _______ _____ _____    ______ ____
ROOT
ATOM      1  C   LIG    1       24.569 -26.919   6.512  0.00  0.00    -0.030 A 
ATOM      2  C   LIG    1       23.825 -25.854   6.046  0.00  0.00    +0.006 A 
ATOM      3  C   LIG    1       24.247 -24.523   6.117  0.00  0.00    +0.009 A 
ATOM      4  C   LIG    1       25.543 -24.201   6.503  0.00  0.00    -0.017 A 
ATOM      5  C   LIG    1       26.382 -25.322   6.724  0.00  0.00    +0.009 A 
ATOM      6  C   LIG    1       25.913 -26.654   6.723  0.00  0.00    +0.006 A 
ENDROOT
BRANCH   4   7
ATOM      7  C   LIG    1       26.001 -22.797   6.809  0.00  0.00    -0.007 A 
ATOM      8  C   LIG    1       25.404 -21.557   6.422  0.00  0.00    +0.030 A 
ATOM      9  C   LIG    1       25.992 -20.338   6.876  0.00  0.00    +0.012 A 
ATOM     10  C   LIG    1       27.148 -20.302   7.652  0.00  0.00    +0.001 A 
ATOM     11  C   LIG    1       27.738 -21.491   8.026  0.00  0.00    +0.001 A 
ATOM     12  C   LIG    1       27.163 -22.701   7.629  0.00  0.00    +0.009 A 
BRANCH   8  13
ATOM     13  C   LIG    1       24.225 -21.384   5.557  0.00  0.00    +0.205 A 
ATOM     14  N   LIG    1       24.188 -21.450   4.217  0.00  0.00    -0.133 NA
ATOM     15  N   LIG    1       22.878 -21.327   3.990  0.00  0.00    -0.176 N 
ATOM     16  H   LIG    1       22.481 -21.457   3.065  0.00  0.00    +0.214 HD
ATOM     17  N   LIG    1       22.119 -21.073   5.056  0.00  0.00    -0.049 NA
ATOM     18  N   LIG    1       22.965 -21.116   6.073  0.00  0.00    -0.108 NA
ENDBRANCH   8  13
ENDBRANCH   4   7
BRANCH   1  19
ATOM     19  C   LIG    1       23.928 -28.259   6.850  0.00  0.00    +0.143 C 
BRANCH  19  21
ATOM     20  C   LIG    1       25.137 -29.799   5.333  0.00  0.00    +0.216 C 
ATOM     21  N   LIG    1       24.826 -29.455   6.664  0.00  0.00    -0.283 N 
ATOM     22  O   LIG    1       24.711 -29.138   4.378  0.00  0.00    -0.276 OA
BRANCH  20  23
ATOM     23  C   LIG    1       26.124 -30.932   5.068  0.00  0.00    +0.096 C 
BRANCH  23  24
ATOM     24  C   LIG    1       25.579 -32.246   4.517  0.00  0.00    +0.009 C 
BRANCH  24  26
ATOM     25  C   LIG    1       26.463 -32.926   2.232  0.00  0.00    +0.004 C 
ATOM     26  C   LIG    1       26.637 -33.033   3.740  0.00  0.00    -0.003 C 
ENDBRANCH  24  26
ENDBRANCH  23  24
ENDBRANCH  20  23
BRANCH  21  27
ATOM     27  C   LIG    1       25.324 -30.188   7.891  0.00  0.00    +0.187 C 
BRANCH  27  28
ATOM     28  C   LIG    1       25.480 -29.365   9.248  0.00  0.00    +0.014 C 
ATOM     29  C   LIG    1       26.911 -29.064   9.722  0.00  0.00    +0.009 C 
ATOM     30  C   LIG    1       24.699 -29.838  10.481  0.00  0.00    +0.009 C 
ENDBRANCH  27  28
BRANCH  27  31
ATOM     31  C   LIG    1       24.637 -31.563   8.141  0.00  0.00    +0.326 C 
ATOM     32  O   LIG    1       25.285 -32.553   8.529  0.00  0.00    -0.249 OA
BRANCH  31  33
ATOM     33  O   LIG    1       23.342 -31.762   7.964  0.00  0.00    -0.479 OA
ATOM     34  H   LIG    1       22.693 -31.061   8.192  0.00  0.00    +0.295 HD
ENDBRANCH  31  33
ENDBRANCH  27  31
ENDBRANCH  21  27
ENDBRANCH  19  21
ENDBRANCH   1  19
TORSDOF 11
ENDMDL
MODEL 8
REMARK VINA RESULT:      -7.5      2.824      8.929
REMARK  Name = *****
REMARK                            x       y       z     vdW  Elec       q    Type
REMARK                         _______ _______ _______ _____ _____    ______ ____
ROOT
ATOM      1  C   LIG    1       25.294 -26.226   6.724  0.00  0.00    -0.030 A 
ATOM      2  C   LIG    1       25.963 -25.109   7.181  0.00  0.00    +0.006 A 
ATOM      3  C   LIG    1       25.494 -23.802   7.017  0.00  0.00    +0.009 A 
ATOM      4  C   LIG    1       24.214 -23.556   6.536  0.00  0.00    -0.017 A 
ATOM      5  C   LIG    1       23.436 -24.720   6.318  0.00  0.00    +0.009 A 
ATOM      6  C   LIG    1       23.957 -26.030   6.415  0.00  0.00    +0.006 A 
ENDROOT
BRANCH   4   7
ATOM      7  C   LIG    1       23.721 -22.189   6.132  0.00  0.00    -0.007 A 
ATOM      8  C   LIG    1       24.317 -20.913   6.379  0.00  0.00    +0.030 A 
ATOM      9  C   LIG    1       23.690 -19.745   5.850  0.00  0.00    +0.012 A 
ATOM     10  C   LIG    1       22.498 -19.789   5.133  0.00  0.00    +0.001 A 
ATOM     11  C   LIG    1       21.908 -21.013   4.894  0.00  0.00    +0.001 A 
ATOM     12  C   LIG    1       22.519 -22.177   5.366  0.00  0.00    +0.009 A 
BRANCH   8  13
ATOM     13  C   LIG    1       25.535 -20.653   7.166  0.00  0.00    +0.205 A 
ATOM     14  N   LIG    1       26.766 -20.404   6.693  0.00  0.00    -0.133 NA
ATOM     15  N   LIG    1       27.427 -20.145   7.823  0.00  0.00    -0.176 N 
ATOM     16  H   LIG    1       28.380 -19.794   7.817  0.00  0.00    +0.214 HD
ATOM     17  N   LIG    1       26.749 -20.327   8.956  0.00  0.00    -0.049 NA
ATOM     18  N   LIG    1       25.528 -20.644   8.553  0.00  0.00    -0.108 NA
ENDBRANCH   8  13
ENDBRANCH   4   7
BRANCH   1  19
ATOM     19  C   LIG    1       26.009 -27.552   6.493  0.00  0.00    +0.143 C 
BRANCH  19  21
ATOM     20  C   LIG    1       24.696 -29.563   5.888  0.00  0.00    +0.216 C 
ATOM     21  N   LIG    1       25.235 -28.772   6.922  0.00  0.00    -0.283 N 
ATOM     22  O   LIG    1       24.872 -29.277   4.697  0.00  0.00    -0.276 OA
BRANCH  20  23
ATOM     23  C   LIG    1       23.990 -30.869   6.240  0.00  0.00    +0.096 C 
BRANCH  23  24
ATOM     24  C   LIG    1       24.527 -32.163   5.633  0.00  0.00    +0.009 C 
BRANCH  24  26
ATOM     25  C   LIG    1       26.716 -32.853   4.540  0.00  0.00    +0.004 C 
ATOM     26  C   LIG    1       26.045 -32.288   5.784  0.00  0.00    -0.003 C 
ENDBRANCH  24  26
ENDBRANCH  23  24
ENDBRANCH  20  23
BRANCH  21  27
ATOM     27  C   LIG    1       25.094 -29.060   8.401  0.00  0.00    +0.187 C 
BRANCH  27  28
ATOM     28  C   LIG    1       24.338 -30.394   8.839  0.00  0.00    +0.014 C 
ATOM     29  C   LIG    1       23.133 -30.236   9.782  0.00  0.00    +0.009 C 
ATOM     30  C   LIG    1       25.174 -31.559   9.386  0.00  0.00    +0.009 C 
ENDBRANCH  27  28
BRANCH  27  31
ATOM     31  C   LIG    1       26.403 -28.858   9.221  0.00  0.00    +0.326 C 
ATOM     32  O   LIG    1       26.512 -27.940  10.055  0.00  0.00    -0.249 OA
BRANCH  31  33
ATOM     33  O   LIG    1       27.462 -29.638   9.089  0.00  0.00    -0.479 OA
ATOM     34  H   LIG    1       27.599 -30.400   9.693  0.00  0.00    +0.295 HD
ENDBRANCH  31  33
ENDBRANCH  27  31
ENDBRANCH  21  27
ENDBRANCH  19  21
ENDBRANCH   1  19
TORSDOF 11
ENDMDL
MODEL 9
REMARK VINA RESULT:      -7.3      1.497      2.899
REMARK  Name = *****
REMARK                            x       y       z     vdW  Elec       q    Type
REMARK                         _______ _______ _______ _____ _____    ______ ____
ROOT
ATOM      1  C   LIG    1       25.193 -25.162   5.693  0.00  0.00    -0.030 A 
ATOM      2  C   LIG    1       24.017 -25.816   5.999  0.00  0.00    +0.006 A 
ATOM      3  C   LIG    1       23.957 -27.147   6.422  0.00  0.00    +0.009 A 
ATOM      4  C   LIG    1       25.113 -27.851   6.740  0.00  0.00    -0.017 A 
ATOM      5  C   LIG    1       26.302 -27.082   6.675  0.00  0.00    +0.009 A 
ATOM      6  C   LIG    1       26.347 -25.764   6.170  0.00  0.00    +0.006 A 
ENDROOT
BRANCH   4   7
ATOM      7  C   LIG    1       25.144 -29.337   6.992  0.00  0.00    -0.007 A 
ATOM      8  C   LIG    1       25.479 -30.035   8.194  0.00  0.00    +0.030 A 
ATOM      9  C   LIG    1       25.389 -31.459   8.213  0.00  0.00    +0.012 A 
ATOM     10  C   LIG    1       25.022 -32.206   7.096  0.00  0.00    +0.001 A 
ATOM     11  C   LIG    1       24.703 -31.546   5.928  0.00  0.00    +0.001 A 
ATOM     12  C   LIG    1       24.746 -30.150   5.890  0.00  0.00    +0.009 A 
BRANCH   8  13
ATOM     13  C   LIG    1       25.949 -29.433   9.453  0.00  0.00    +0.205 A 
ATOM     14  N   LIG    1       27.113 -28.799   9.663  0.00  0.00    -0.133 NA
ATOM     15  N   LIG    1       26.956 -28.383  10.921  0.00  0.00    -0.176 N 
ATOM     16  H   LIG    1       27.619 -27.753  11.363  0.00  0.00    +0.214 HD
ATOM     17  N   LIG    1       25.856 -28.802  11.545  0.00  0.00    -0.049 NA
ATOM     18  N   LIG    1       25.192 -29.471  10.616  0.00  0.00    -0.108 NA
ENDBRANCH   8  13
ENDBRANCH   4   7
BRANCH   1  19
ATOM     19  C   LIG    1       25.213 -23.916   4.815  0.00  0.00    +0.143 C 
BRANCH  19  21
ATOM     20  C   LIG    1       25.215 -22.537   6.872  0.00  0.00    +0.216 C 
ATOM     21  N   LIG    1       24.833 -22.639   5.519  0.00  0.00    -0.283 N 
ATOM     22  O   LIG    1       25.846 -23.440   7.435  0.00  0.00    -0.276 OA
BRANCH  20  23
ATOM     23  C   LIG    1       24.960 -21.233   7.621  0.00  0.00    +0.096 C 
BRANCH  23  24
ATOM     24  C   LIG    1       26.062 -20.699   8.532  0.00  0.00    +0.009 C 
BRANCH  24  26
ATOM     25  C   LIG    1       28.451 -21.208   7.826  0.00  0.00    +0.004 C 
ATOM     26  C   LIG    1       27.288 -20.230   7.746  0.00  0.00    -0.003 C 
ENDBRANCH  24  26
ENDBRANCH  23  24
ENDBRANCH  20  23
BRANCH  21  27
ATOM     27  C   LIG    1       24.088 -21.575   4.743  0.00  0.00    +0.187 C 
BRANCH  27  28
ATOM     28  C   LIG    1       22.779 -20.944   5.398  0.00  0.00    +0.014 C 
ATOM     29  C   LIG    1       21.425 -21.507   4.935  0.00  0.00    +0.009 C 
ATOM     30  C   LIG    1       22.637 -19.416   5.414  0.00  0.00    +0.009 C 
ENDBRANCH  27  28
BRANCH  27  31
ATOM     31  C   LIG    1       25.000 -20.472   4.129  0.00  0.00    +0.326 C 
ATOM     32  O   LIG    1       24.612 -19.758   3.185  0.00  0.00    -0.249 OA
BRANCH  31  33
ATOM     33  O   LIG    1       26.223 -20.224   4.567  0.00  0.00    -0.479 OA
ATOM     34  H   LIG    1       26.781 -20.948   4.924  0.00  0.00    +0.295 HD
ENDBRANCH  31  33
ENDBRANCH  27  31
ENDBRANCH  21  27
ENDBRANCH  19  21
ENDBRANCH   1  19
TORSDOF 11
ENDMDL
