MODEL 1
REMARK VINA RESULT:      -7.2      0.000      0.000
REMARK  Name = *****
REMARK                            x       y       z     vdW  Elec       q    Type
REMARK                         _______ _______ _______ _____ _____    ______ ____
ROOT
ATOM      1 CL   LIG    1       24.834 -20.410   8.350  0.00  0.00    -0.080 Cl
ATOM      2  C   LIG    1       24.572 -21.967   7.631  0.00  0.00    +0.085 A 
ATOM      3  C   LIG    1       25.664 -22.843   7.428  0.00  0.00    +0.188 A 
ATOM      4  C   LIG    1       25.352 -24.102   6.832  0.00  0.00    +0.143 A 
ATOM      5  C   LIG    1       23.922 -24.438   6.471  0.00  0.00    +0.103 A 
ATOM      6  N   LIG    1       23.780 -25.655   5.925  0.00  0.00    -0.191 NA
ATOM      7  S   LIG    1       25.301 -26.318   5.856  0.00  0.00    +0.117 S 
ATOM      8  C   LIG    1       22.870 -23.522   6.710  0.00  0.00    +0.032 A 
ATOM      9  N   LIG    1       26.202 -25.101   6.525  0.00  0.00    -0.187 NA
ATOM     10  C   LIG    1       23.235 -22.296   7.291  0.00  0.00    +0.026 A 
ENDROOT
BRANCH   3  11
ATOM     11  N   LIG    1       27.003 -22.542   7.723  0.00  0.00    -0.073 NA
ATOM     12  C   LIG    1       27.561 -21.574   7.085  0.00  0.00    +0.370 C 
ATOM     13  N   LIG    1       27.079 -20.758   6.088  0.00  0.00    -0.235 N 
ATOM     14  H   LIG    1       26.401 -21.153   5.454  0.00  0.00    +0.244 HD
ATOM     15  C   LIG    1       28.120 -19.896   5.547  0.00  0.00    +0.219 C 
ATOM     16  C   LIG    1       29.161 -19.915   6.677  0.00  0.00    +0.219 C 
ATOM     17  N   LIG    1       28.845 -21.168   7.330  0.00  0.00    -0.235 N 
ATOM     18  H   LIG    1       29.203 -21.380   8.252  0.00  0.00    +0.244 HD
ENDBRANCH   3  11
TORSDOF 1
ENDMDL
MODEL 2
REMARK VINA RESULT:      -7.1      2.579      5.125
REMARK  Name = *****
REMARK                            x       y       z     vdW  Elec       q    Type
REMARK                         _______ _______ _______ _____ _____    ______ ____
ROOT
ATOM      1 CL   LIG    1       23.261 -20.919   4.283  0.00  0.00    -0.080 Cl
ATOM      2  C   LIG    1       24.836 -20.723   4.985  0.00  0.00    +0.085 A 
ATOM      3  C   LIG    1       25.246 -21.567   6.044  0.00  0.00    +0.188 A 
ATOM      4  C   LIG    1       26.557 -21.331   6.557  0.00  0.00    +0.143 A 
ATOM      5  C   LIG    1       27.422 -20.243   5.961  0.00  0.00    +0.103 A 
ATOM      6  N   LIG    1       28.628 -20.141   6.539  0.00  0.00    -0.191 NA
ATOM      7  S   LIG    1       28.674 -21.295   7.732  0.00  0.00    +0.117 S 
ATOM      8  C   LIG    1       26.957 -19.438   4.894  0.00  0.00    +0.032 A 
ATOM      9  N   LIG    1       27.178 -21.982   7.561  0.00  0.00    -0.187 NA
ATOM     10  C   LIG    1       25.657 -19.708   4.434  0.00  0.00    +0.026 A 
ENDROOT
BRANCH   3  11
ATOM     11  N   LIG    1       24.451 -22.560   6.636  0.00  0.00    -0.073 NA
ATOM     12  C   LIG    1       24.496 -23.747   6.145  0.00  0.00    +0.370 C 
ATOM     13  N   LIG    1       25.187 -24.248   5.065  0.00  0.00    -0.235 N 
ATOM     14  H   LIG    1       25.354 -23.621   4.292  0.00  0.00    +0.244 HD
ATOM     15  C   LIG    1       24.813 -25.625   4.778  0.00  0.00    +0.219 C 
ATOM     16  C   LIG    1       24.202 -26.069   6.115  0.00  0.00    +0.219 C 
ATOM     17  N   LIG    1       23.799 -24.797   6.677  0.00  0.00    -0.235 N 
ATOM     18  H   LIG    1       23.558 -24.712   7.657  0.00  0.00    +0.244 HD
ENDBRANCH   3  11
TORSDOF 1
ENDMDL
MODEL 3
REMARK VINA RESULT:      -6.9      3.371      4.642
REMARK  Name = *****
REMARK                            x       y       z     vdW  Elec       q    Type
REMARK                         _______ _______ _______ _____ _____    ______ ____
ROOT
ATOM      1 CL   LIG    1       22.233 -23.631   6.571  0.00  0.00    -0.080 Cl
ATOM      2  C   LIG    1       23.875 -23.129   6.818  0.00  0.00    +0.085 A 
ATOM      3  C   LIG    1       24.182 -21.753   6.938  0.00  0.00    +0.188 A 
ATOM      4  C   LIG    1       25.559 -21.436   7.139  0.00  0.00    +0.143 A 
ATOM      5  C   LIG    1       26.587 -22.542   7.230  0.00  0.00    +0.103 A 
ATOM      6  N   LIG    1       27.838 -22.095   7.427  0.00  0.00    -0.191 NA
ATOM      7  S   LIG    1       27.739 -20.439   7.481  0.00  0.00    +0.117 S 
ATOM      8  C   LIG    1       26.215 -23.902   7.113  0.00  0.00    +0.032 A 
ATOM      9  N   LIG    1       26.112 -20.215   7.273  0.00  0.00    -0.187 NA
ATOM     10  C   LIG    1       24.849 -24.156   6.907  0.00  0.00    +0.026 A 
ENDROOT
BRANCH   3  11
ATOM     11  N   LIG    1       23.252 -20.708   6.824  0.00  0.00    -0.073 NA
ATOM     12  C   LIG    1       23.217 -20.045   5.722  0.00  0.00    +0.370 C 
ATOM     13  N   LIG    1       23.985 -20.147   4.586  0.00  0.00    -0.235 N 
ATOM     14  H   LIG    1       24.943 -20.444   4.701  0.00  0.00    +0.244 HD
ATOM     15  C   LIG    1       23.694 -19.079   3.641  0.00  0.00    +0.219 C 
ATOM     16  C   LIG    1       22.304 -18.620   4.105  0.00  0.00    +0.219 C 
ATOM     17  N   LIG    1       22.316 -19.041   5.490  0.00  0.00    -0.235 N 
ATOM     18  H   LIG    1       21.462 -19.085   6.030  0.00  0.00    +0.244 HD
ENDBRANCH   3  11
TORSDOF 1
ENDMDL
MODEL 4
REMARK VINA RESULT:      -6.8      2.815      5.199
REMARK  Name = *****
REMARK                            x       y       z     vdW  Elec       q    Type
REMARK                         _______ _______ _______ _____ _____    ______ ____
ROOT
ATOM      1 CL   LIG    1       26.669 -22.573   8.391  0.00  0.00    -0.080 Cl
ATOM      2  C   LIG    1       26.309 -21.619   6.986  0.00  0.00    +0.085 A 
ATOM      3  C   LIG    1       25.126 -21.864   6.251  0.00  0.00    +0.188 A 
ATOM      4  C   LIG    1       24.915 -21.031   5.112  0.00  0.00    +0.143 A 
ATOM      5  C   LIG    1       25.917 -19.953   4.764  0.00  0.00    +0.103 A 
ATOM      6  N   LIG    1       25.584 -19.245   3.674  0.00  0.00    -0.191 NA
ATOM      7  S   LIG    1       24.151 -19.878   3.124  0.00  0.00    +0.117 S 
ATOM      8  C   LIG    1       27.078 -19.749   5.547  0.00  0.00    +0.032 A 
ATOM      9  N   LIG    1       23.883 -21.064   4.247  0.00  0.00    -0.187 NA
ATOM     10  C   LIG    1       27.240 -20.603   6.650  0.00  0.00    +0.026 A 
ENDROOT
BRANCH   3  11
ATOM     11  N   LIG    1       24.199 -22.879   6.534  0.00  0.00    -0.073 NA
ATOM     12  C   LIG    1       24.438 -24.061   6.086  0.00  0.00    +0.370 C 
ATOM     13  N   LIG    1       25.468 -24.537   5.307  0.00  0.00    -0.235 N 
ATOM     14  H   LIG    1       25.875 -23.899   4.640  0.00  0.00    +0.244 HD
ATOM     15  C   LIG    1       25.247 -25.919   4.907  0.00  0.00    +0.219 C 
ATOM     16  C   LIG    1       24.225 -26.389   5.953  0.00  0.00    +0.219 C 
ATOM     17  N   LIG    1       23.624 -25.131   6.345  0.00  0.00    -0.235 N 
ATOM     18  H   LIG    1       23.061 -25.060   7.183  0.00  0.00    +0.244 HD
ENDBRANCH   3  11
TORSDOF 1
ENDMDL
MODEL 5
REMARK VINA RESULT:      -6.7      2.416      2.789
REMARK  Name = *****
REMARK                            x       y       z     vdW  Elec       q    Type
REMARK                         _______ _______ _______ _____ _____    ______ ____
ROOT
ATOM      1 CL   LIG    1       23.911 -18.420   3.853  0.00  0.00    -0.080 Cl
ATOM      2  C   LIG    1       23.718 -19.939   4.669  0.00  0.00    +0.085 A 
ATOM      3  C   LIG    1       24.855 -20.716   4.992  0.00  0.00    +0.188 A 
ATOM      4  C   LIG    1       24.599 -21.949   5.662  0.00  0.00    +0.143 A 
ATOM      5  C   LIG    1       23.180 -22.350   5.999  0.00  0.00    +0.103 A 
ATOM      6  N   LIG    1       23.093 -23.529   6.633  0.00  0.00    -0.191 NA
ATOM      7  S   LIG    1       24.647 -24.095   6.784  0.00  0.00    +0.117 S 
ATOM      8  C   LIG    1       22.083 -21.523   5.658  0.00  0.00    +0.032 A 
ATOM      9  N   LIG    1       25.497 -22.868   6.068  0.00  0.00    -0.187 NA
ATOM     10  C   LIG    1       22.393 -20.325   4.992  0.00  0.00    +0.026 A 
ENDROOT
BRANCH   3  11
ATOM     11  N   LIG    1       26.178 -20.382   4.661  0.00  0.00    -0.073 NA
ATOM     12  C   LIG    1       27.029 -20.253   5.617  0.00  0.00    +0.370 C 
ATOM     13  N   LIG    1       26.871 -20.347   6.980  0.00  0.00    -0.235 N 
ATOM     14  H   LIG    1       25.979 -20.070   7.363  0.00  0.00    +0.244 HD
ATOM     15  C   LIG    1       28.083 -19.968   7.691  0.00  0.00    +0.219 C 
ATOM     16  C   LIG    1       29.150 -20.129   6.599  0.00  0.00    +0.219 C 
ATOM     17  N   LIG    1       28.352 -19.978   5.400  0.00  0.00    -0.235 N 
ATOM     18  H   LIG    1       28.713 -20.250   4.495  0.00  0.00    +0.244 HD
ENDBRANCH   3  11
TORSDOF 1
ENDMDL
MODEL 6
REMARK VINA RESULT:      -6.7      3.507      4.844
REMARK  Name = *****
REMARK                            x       y       z     vdW  Elec       q    Type
REMARK                         _______ _______ _______ _____ _____    ______ ____
ROOT
ATOM      1 CL   LIG    1       30.344 -18.726   5.499  0.00  0.00    -0.080 Cl
ATOM      2  C   LIG    1       28.880 -19.506   6.011  0.00  0.00    +0.085 A 
ATOM      3  C   LIG    1       28.818 -20.127   7.281  0.00  0.00    +0.188 A 
ATOM      4  C   LIG    1       27.575 -20.742   7.615  0.00  0.00    +0.143 A 
ATOM      5  C   LIG    1       26.417 -20.691   6.643  0.00  0.00    +0.103 A 
ATOM      6  N   LIG    1       25.312 -21.305   7.094  0.00  0.00    -0.191 NA
ATOM      7  S   LIG    1       25.690 -21.904   8.596  0.00  0.00    +0.117 S 
ATOM      8  C   LIG    1       26.539 -20.045   5.390  0.00  0.00    +0.032 A 
ATOM      9  N   LIG    1       27.260 -21.402   8.747  0.00  0.00    -0.187 NA
ATOM     10  C   LIG    1       27.787 -19.464   5.110  0.00  0.00    +0.026 A 
ENDROOT
BRANCH   3  11
ATOM     11  N   LIG    1       29.887 -20.216   8.186  0.00  0.00    -0.073 NA
ATOM     12  C   LIG    1       30.230 -19.155   8.827  0.00  0.00    +0.370 C 
ATOM     13  N   LIG    1       29.745 -17.870   8.763  0.00  0.00    -0.235 N 
ATOM     14  H   LIG    1       29.389 -17.553   7.873  0.00  0.00    +0.244 HD
ATOM     15  C   LIG    1       30.544 -16.951   9.561  0.00  0.00    +0.219 C 
ATOM     16  C   LIG    1       31.257 -17.912  10.524  0.00  0.00    +0.219 C 
ATOM     17  N   LIG    1       31.225 -19.146   9.767  0.00  0.00    -0.235 N 
ATOM     18  H   LIG    1       31.419 -20.035  10.209  0.00  0.00    +0.244 HD
ENDBRANCH   3  11
TORSDOF 1
ENDMDL
MODEL 7
REMARK VINA RESULT:      -6.6      2.577      4.718
REMARK  Name = *****
REMARK                            x       y       z     vdW  Elec       q    Type
REMARK                         _______ _______ _______ _____ _____    ______ ____
ROOT
ATOM      1 CL   LIG    1       22.538 -23.704   6.735  0.00  0.00    -0.080 Cl
ATOM      2  C   LIG    1       23.888 -22.618   6.639  0.00  0.00    +0.085 A 
ATOM      3  C   LIG    1       25.186 -23.075   6.963  0.00  0.00    +0.188 A 
ATOM      4  C   LIG    1       26.233 -22.111   6.855  0.00  0.00    +0.143 A 
ATOM      5  C   LIG    1       25.923 -20.702   6.400  0.00  0.00    +0.103 A 
ATOM      6  N   LIG    1       27.005 -19.910   6.340  0.00  0.00    -0.191 NA
ATOM      7  S   LIG    1       28.294 -20.840   6.821  0.00  0.00    +0.117 S 
ATOM      8  C   LIG    1       24.603 -20.308   6.079  0.00  0.00    +0.032 A 
ATOM      9  N   LIG    1       27.544 -22.286   7.113  0.00  0.00    -0.187 NA
ATOM     10  C   LIG    1       23.612 -21.294   6.211  0.00  0.00    +0.026 A 
ENDROOT
BRANCH   3  11
ATOM     11  N   LIG    1       25.494 -24.366   7.420  0.00  0.00    -0.073 NA
ATOM     12  C   LIG    1       25.626 -25.302   6.547  0.00  0.00    +0.370 C 
ATOM     13  N   LIG    1       25.479 -25.285   5.180  0.00  0.00    -0.235 N 
ATOM     14  H   LIG    1       24.803 -24.641   4.796  0.00  0.00    +0.244 HD
ATOM     15  C   LIG    1       25.572 -26.621   4.610  0.00  0.00    +0.219 C 
ATOM     16  C   LIG    1       26.305 -27.386   5.723  0.00  0.00    +0.219 C 
ATOM     17  N   LIG    1       25.973 -26.584   6.882  0.00  0.00    -0.235 N 
ATOM     18  H   LIG    1       26.480 -26.688   7.752  0.00  0.00    +0.244 HD
ENDBRANCH   3  11
TORSDOF 1
ENDMDL
MODEL 8
REMARK VINA RESULT:      -6.4      3.136      4.822
REMARK  Name = *****
REMARK                            x       y       z     vdW  Elec       q    Type
REMARK                         _______ _______ _______ _____ _____    ______ ____
ROOT
ATOM      1 CL   LIG    1       22.141 -23.293   6.846  0.00  0.00    -0.080 Cl
ATOM      2  C   LIG    1       22.908 -22.016   5.955  0.00  0.00    +0.085 A 
ATOM      3  C   LIG    1       24.320 -21.945   5.899  0.00  0.00    +0.188 A 
ATOM      4  C   LIG    1       24.860 -20.861   5.143  0.00  0.00    +0.143 A 
ATOM      5  C   LIG    1       23.937 -19.885   4.449  0.00  0.00    +0.103 A 
ATOM      6  N   LIG    1       24.585 -18.924   3.773  0.00  0.00    -0.191 NA
ATOM      7  S   LIG    1       26.206 -19.208   3.994  0.00  0.00    +0.117 S 
ATOM      8  C   LIG    1       22.531 -20.017   4.535  0.00  0.00    +0.032 A 
ATOM      9  N   LIG    1       26.159 -20.564   4.943  0.00  0.00    -0.187 NA
ATOM     10  C   LIG    1       22.054 -21.095   5.298  0.00  0.00    +0.026 A 
ENDROOT
BRANCH   3  11
ATOM     11  N   LIG    1       25.197 -22.818   6.561  0.00  0.00    -0.073 NA
ATOM     12  C   LIG    1       25.349 -24.002   6.084  0.00  0.00    +0.370 C 
ATOM     13  N   LIG    1       24.753 -24.623   5.010  0.00  0.00    -0.235 N 
ATOM     14  H   LIG    1       23.807 -24.353   4.787  0.00  0.00    +0.244 HD
ATOM     15  C   LIG    1       25.114 -26.031   4.933  0.00  0.00    +0.219 C 
ATOM     16  C   LIG    1       26.397 -26.072   5.775  0.00  0.00    +0.219 C 
ATOM     17  N   LIG    1       26.215 -24.914   6.625  0.00  0.00    -0.235 N 
ATOM     18  H   LIG    1       26.988 -24.526   7.151  0.00  0.00    +0.244 HD
ENDBRANCH   3  11
TORSDOF 1
ENDMDL
MODEL 9
REMARK VINA RESULT:      -6.4      3.403      6.296
REMARK  Name = *****
REMARK                            x       y       z     vdW  Elec       q    Type
REMARK                         _______ _______ _______ _____ _____    ______ ____
ROOT
ATOM      1 CL   LIG    1       28.891 -17.897   5.281  0.00  0.00    -0.080 Cl
ATOM      2  C   LIG    1       29.751 -18.759   6.518  0.00  0.00    +0.085 A 
ATOM      3  C   LIG    1       29.423 -20.107   6.796  0.00  0.00    +0.188 A 
ATOM      4  C   LIG    1       30.183 -20.733   7.829  0.00  0.00    +0.143 A 
ATOM      5  C   LIG    1       31.273 -19.965   8.542  0.00  0.00    +0.103 A 
ATOM      6  N   LIG    1       31.906 -20.683   9.483  0.00  0.00    -0.191 NA
ATOM      7  S   LIG    1       31.193 -22.182   9.485  0.00  0.00    +0.117 S 
ATOM      8  C   LIG    1       31.561 -18.620   8.210  0.00  0.00    +0.032 A 
ATOM      9  N   LIG    1       30.065 -21.994   8.289  0.00  0.00    -0.187 NA
ATOM     10  C   LIG    1       30.777 -18.051   7.193  0.00  0.00    +0.026 A 
ENDROOT
BRANCH   3  11
ATOM     11  N   LIG    1       28.395 -20.830   6.172  0.00  0.00    -0.073 NA
ATOM     12  C   LIG    1       27.237 -20.842   6.731  0.00  0.00    +0.370 C 
ATOM     13  N   LIG    1       26.801 -20.281   7.909  0.00  0.00    -0.235 N 
ATOM     14  H   LIG    1       27.471 -20.203   8.660  0.00  0.00    +0.244 HD
ATOM     15  C   LIG    1       25.440 -20.687   8.228  0.00  0.00    +0.219 C 
ATOM     16  C   LIG    1       24.918 -21.141   6.857  0.00  0.00    +0.219 C 
ATOM     17  N   LIG    1       26.155 -21.476   6.182  0.00  0.00    -0.235 N 
ATOM     18  H   LIG    1       26.184 -21.602   5.178  0.00  0.00    +0.244 HD
ENDBRANCH   3  11
TORSDOF 1
ENDMDL
