MODEL 1
REMARK VINA RESULT:       3.6      0.000      0.000
REMARK  Name = *****
REMARK                            x       y       z     vdW  Elec       q    Type
REMARK                         _______ _______ _______ _____ _____    ______ ____
ROOT
ATOM      1  O   LIG    1       21.249 -20.656   4.753  0.00  0.00    -0.274 OA
ATOM      2  C   LIG    1       22.381 -20.582   5.217  0.00  0.00    +0.231 C 
ATOM      3  N   LIG    1       22.825 -19.544   6.030  0.00  0.00    -0.284 N 
ATOM      4  H   LIG    1       23.642 -19.863   6.547  0.00  0.00    +0.155 HD
ATOM      5  C   LIG    1       23.176 -18.401   5.281  0.00  0.00    +0.041 A 
ATOM      6  C   LIG    1       24.261 -18.419   4.377  0.00  0.00    +0.026 A 
ATOM      7  C   LIG    1       24.561 -17.193   3.735  0.00  0.00    +0.030 A 
ATOM      8  C   LIG    1       23.798 -16.043   3.956  0.00  0.00    +0.042 A 
ATOM      9  C   LIG    1       22.719 -16.069   4.831  0.00  0.00    +0.022 A 
ATOM     10 CL   LIG    1       24.201 -14.582   3.142  0.00  0.00    -0.084 Cl
ATOM     11  C   LIG    1       25.143 -19.680   4.105  0.00  0.00    +0.179 C 
ATOM     12  N   LIG    1       24.400 -20.922   3.853  0.00  0.00    -0.256 NA
ATOM     13  C   LIG    1       23.889 -20.788   2.503  0.00  0.00    +0.116 C 
ATOM     14  C   LIG    1       25.078 -20.132   1.822  0.00  0.00    +0.178 C 
ATOM     15  O   LIG    1       25.793 -19.400   2.838  0.00  0.00    -0.349 OA
ATOM     16  C   LIG    1       22.410 -17.250   5.500  0.00  0.00    +0.025 A 
ATOM     17  C   LIG    1       23.509 -21.519   4.833  0.00  0.00    +0.184 C 
ENDROOT
BRANCH  11  18
ATOM     18  C   LIG    1       26.279 -19.880   5.134  0.00  0.00    +0.022 A 
ATOM     19  C   LIG    1       27.415 -19.039   5.201  0.00  0.00    +0.049 A 
ATOM     20 CL   LIG    1       27.681 -17.680   4.161  0.00  0.00    -0.083 Cl
ATOM     21  C   LIG    1       28.429 -19.260   6.150  0.00  0.00    +0.020 A 
ATOM     22  C   LIG    1       28.339 -20.306   7.061  0.00  0.00    +0.001 A 
ATOM     23  C   LIG    1       27.229 -21.134   7.036  0.00  0.00    +0.001 A 
ATOM     24  C   LIG    1       26.217 -20.922   6.094  0.00  0.00    +0.009 A 
ENDBRANCH  11  18
TORSDOF 1
ENDMDL
