MODEL 1
REMARK VINA RESULT:       2.3      0.000      0.000
REMARK  Name = *****
REMARK                            x       y       z     vdW  Elec       q    Type
REMARK                         _______ _______ _______ _____ _____    ______ ____
ROOT
ATOM      1  C   LIG    1       27.470 -16.532   3.674  0.00  0.00    +0.122 C 
ATOM      2  C   LIG    1       26.192 -16.903   2.867  0.00  0.00    +0.036 C 
ATOM      3  C   LIG    1       25.473 -15.652   2.300  0.00  0.00    +0.028 C 
ATOM      4  C   LIG    1       25.741 -14.330   3.043  0.00  0.00    +0.058 C 
ATOM      5  N   LIG    1       27.203 -14.180   3.183  0.00  0.00    -0.296 NA
ATOM      6  C   LIG    1       25.209 -14.326   4.474  0.00  0.00    +0.020 C 
ATOM      7  C   LIG    1       26.397 -14.776   5.319  0.00  0.00    +0.021 C 
ATOM      8  C   LIG    1       27.494 -15.116   4.306  0.00  0.00    +0.071 C 
ENDROOT
BRANCH   2   9
ATOM      9  C   LIG    1       25.189 -17.893   3.462  0.00  0.00    -0.043 A 
ATOM     10  C   LIG    1       25.500 -19.266   3.506  0.00  0.00    +0.005 A 
ATOM     11  C   LIG    1       24.591 -20.200   4.023  0.00  0.00    +0.014 A 
ATOM     12  C   LIG    1       23.354 -19.775   4.498  0.00  0.00    +0.013 A 
ATOM     13  I   LIG    1       21.986 -21.138   5.255  0.00  0.00    -0.044 I 
ATOM     14  C   LIG    1       23.028 -18.426   4.466  0.00  0.00    +0.014 A 
ATOM     15  C   LIG    1       23.941 -17.505   3.951  0.00  0.00    +0.005 A 
ENDBRANCH   2   9
BRANCH   1  16
ATOM     16  C   LIG    1       27.951 -17.616   4.624  0.00  0.00    +0.312 C 
ATOM     17  O   LIG    1       27.547 -18.765   4.634  0.00  0.00    -0.251 OA
BRANCH  16  19
ATOM     18  C   LIG    1       29.475 -17.994   6.418  0.00  0.00    +0.280 C 
ATOM     19  O   LIG    1       28.875 -17.091   5.485  0.00  0.00    -0.468 OA
ENDBRANCH  16  19
ENDBRANCH   1  16
BRANCH   5  20
ATOM     20  C   LIG    1       27.646 -12.801   3.467  0.00  0.00    +0.087 C 
BRANCH  20  21
ATOM     21  C   LIG    1       29.146 -12.713   3.762  0.00  0.00    +0.049 C 
BRANCH  21  22
ATOM     22  C   LIG    1       29.427 -11.832   4.961  0.00  0.00    +0.214 C 
ATOM     23  F   LIG    1       28.566 -12.172   5.957  0.00  0.00    -0.249 F 
ENDBRANCH  21  22
ENDBRANCH  20  21
ENDBRANCH   5  20
TORSDOF 6
ENDMDL
MODEL 2
REMARK VINA RESULT:       4.2      4.185      6.939
REMARK  Name = *****
REMARK                            x       y       z     vdW  Elec       q    Type
REMARK                         _______ _______ _______ _____ _____    ______ ____
ROOT
ATOM      1  C   LIG    1       23.619 -17.921   3.826  0.00  0.00    +0.122 C 
ATOM      2  C   LIG    1       24.883 -17.685   2.948  0.00  0.00    +0.036 C 
ATOM      3  C   LIG    1       25.703 -18.984   2.741  0.00  0.00    +0.028 C 
ATOM      4  C   LIG    1       25.517 -20.073   3.813  0.00  0.00    +0.058 C 
ATOM      5  N   LIG    1       24.067 -20.291   3.987  0.00  0.00    -0.296 NA
ATOM      6  C   LIG    1       26.017 -19.652   5.192  0.00  0.00    +0.020 C 
ATOM      7  C   LIG    1       24.782 -19.082   5.884  0.00  0.00    +0.021 C 
ATOM      8  C   LIG    1       23.686 -19.112   4.816  0.00  0.00    +0.071 C 
ENDROOT
BRANCH   2   9
ATOM      9  C   LIG    1       25.798 -16.498   3.254  0.00  0.00    -0.043 A 
ATOM     10  C   LIG    1       27.021 -16.709   3.921  0.00  0.00    +0.005 A 
ATOM     11  C   LIG    1       27.870 -15.638   4.236  0.00  0.00    +0.014 A 
ATOM     12  C   LIG    1       27.505 -14.339   3.894  0.00  0.00    +0.013 A 
ATOM     13  I   LIG    1       28.736 -12.736   4.361  0.00  0.00    -0.044 I 
ATOM     14  C   LIG    1       26.306 -14.109   3.234  0.00  0.00    +0.014 A 
ATOM     15  C   LIG    1       25.469 -15.182   2.924  0.00  0.00    +0.005 A 
ENDBRANCH   2   9
BRANCH   1  16
ATOM     16  C   LIG    1       23.041 -16.661   4.447  0.00  0.00    +0.312 C 
ATOM     17  O   LIG    1       23.261 -15.527   4.061  0.00  0.00    -0.251 OA
BRANCH  16  19
ATOM     18  C   LIG    1       21.724 -15.919   6.291  0.00  0.00    +0.280 C 
ATOM     19  O   LIG    1       22.271 -16.997   5.527  0.00  0.00    -0.468 OA
ENDBRANCH  16  19
ENDBRANCH   1  16
BRANCH   5  20
ATOM     20  C   LIG    1       23.720 -21.572   4.634  0.00  0.00    +0.087 C 
BRANCH  20  21
ATOM     21  C   LIG    1       22.498 -21.458   5.549  0.00  0.00    +0.049 C 
BRANCH  21  22
ATOM     22  C   LIG    1       21.205 -21.493   4.759  0.00  0.00    +0.214 C 
ATOM     23  F   LIG    1       20.876 -20.219   4.416  0.00  0.00    -0.249 F 
ENDBRANCH  21  22
ENDBRANCH  20  21
ENDBRANCH   5  20
TORSDOF 6
ENDMDL
