MODEL 1
REMARK VINA RESULT:      -7.0      0.000      0.000
REMARK  Name = *****
REMARK                            x       y       z     vdW  Elec       q    Type
REMARK                         _______ _______ _______ _____ _____    ______ ____
ROOT
ATOM      1  C   LIG    1       25.111 -21.033   4.747  0.00  0.00    +0.025 C 
ATOM      2  C   LIG    1       24.086 -21.527   5.784  0.00  0.00    +0.042 C 
ATOM      3  CA  LIG    1       24.426 -22.968   6.241  0.00  0.00    +0.201 C 
ATOM      4  N   LIG    1       25.293 -22.866   7.427  0.00  0.00    -0.271 N 
ATOM      5  C   LIG    1       25.117 -21.682   8.296  0.00  0.00    +0.165 C 
ATOM      6  CA  LIG    1       26.665 -21.590   8.392  0.00  0.00    +0.190 C 
ATOM      7  C   LIG    1       26.639 -22.651   7.270  0.00  0.00    +0.240 C 
ATOM      8  O   LIG    1       27.405 -23.065   6.430  0.00  0.00    -0.273 OA
ATOM      9  S   LIG    1       24.241 -20.446   7.272  0.00  0.00    -0.127 S 
ATOM     10  C   LIG    1       22.681 -21.304   5.214  0.00  0.00    +0.025 C 
ENDROOT
BRANCH   6  11
ATOM     11  N   LIG    1       27.301 -20.285   8.080  0.00  0.00    -0.299 N 
ATOM     12  H   LIG    1       26.756 -19.495   7.745  0.00  0.00    +0.150 HD
ATOM     13  C   LIG    1       28.670 -20.129   8.183  0.00  0.00    +0.250 C 
ATOM     14  O   LIG    1       29.394 -21.058   8.541  0.00  0.00    -0.273 OA
BRANCH  13  15
ATOM     15  C   LIG    1       29.233 -18.753   7.767  0.00  0.00    +0.306 C 
BRANCH  15  16
ATOM     16  C   LIG    1       30.159 -18.200   8.842  0.00  0.00    -0.007 A 
ATOM     17  C   LIG    1       29.715 -17.927  10.144  0.00  0.00    +0.006 A 
ATOM     18  C   LIG    1       30.588 -17.404  11.102  0.00  0.00    +0.000 A 
ATOM     19  C   LIG    1       31.918 -17.151  10.776  0.00  0.00    +0.000 A 
ATOM     20  C   LIG    1       32.383 -17.434   9.495  0.00  0.00    +0.000 A 
ATOM     21  C   LIG    1       31.514 -17.963   8.539  0.00  0.00    +0.006 A 
ENDBRANCH  15  16
BRANCH  15  22
ATOM     22  N   LIG    1       29.883 -18.905   6.442  0.00  0.00    +0.094 NA
ATOM     23  N   LIG    1       29.357 -18.240   5.526  0.00  0.00    -0.014 NA
ATOM     24  N   LIG    1       28.876 -17.641   4.690  0.00  0.00    -0.328 NA
ENDBRANCH  15  22
ENDBRANCH  13  15
ENDBRANCH   6  11
BRANCH   3  25
ATOM     25  C   LIG    1       23.235 -23.879   6.572  0.00  0.00    +0.327 C 
ATOM     26  O   LIG    1       22.178 -23.496   7.051  0.00  0.00    -0.249 OA
BRANCH  25  27
ATOM     27  OXT LIG    1       23.422 -25.174   6.209  0.00  0.00    -0.479 OA
ATOM     28  HXT LIG    1       23.332 -25.267   5.239  0.00  0.00    +0.295 HD
ENDBRANCH  25  27
ENDBRANCH   3  25
TORSDOF 6
ENDMDL
MODEL 2
REMARK VINA RESULT:      -7.0      2.114      2.872
REMARK  Name = *****
REMARK                            x       y       z     vdW  Elec       q    Type
REMARK                         _______ _______ _______ _____ _____    ______ ____
ROOT
ATOM      1  C   LIG    1       26.132 -24.185   7.240  0.00  0.00    +0.025 C 
ATOM      2  C   LIG    1       25.222 -23.359   6.313  0.00  0.00    +0.042 C 
ATOM      3  CA  LIG    1       24.024 -22.778   7.105  0.00  0.00    +0.201 C 
ATOM      4  N   LIG    1       24.417 -21.445   7.592  0.00  0.00    -0.271 N 
ATOM      5  C   LIG    1       25.390 -20.685   6.777  0.00  0.00    +0.165 C 
ATOM      6  CA  LIG    1       26.096 -20.278   8.100  0.00  0.00    +0.190 C 
ATOM      7  C   LIG    1       25.165 -21.332   8.737  0.00  0.00    +0.240 C 
ATOM      8  O   LIG    1       25.133 -21.977   9.760  0.00  0.00    -0.273 OA
ATOM      9  S   LIG    1       26.209 -21.921   5.708  0.00  0.00    -0.127 S 
ATOM     10  C   LIG    1       24.882 -24.215   5.088  0.00  0.00    +0.025 C 
ENDROOT
BRANCH   6  11
ATOM     11  N   LIG    1       27.559 -20.510   8.204  0.00  0.00    -0.299 N 
ATOM     12  H   LIG    1       27.946 -21.160   8.884  0.00  0.00    +0.150 HD
ATOM     13  C   LIG    1       28.441 -19.801   7.413  0.00  0.00    +0.250 C 
ATOM     14  O   LIG    1       28.042 -18.968   6.598  0.00  0.00    -0.273 OA
BRANCH  13  15
ATOM     15  C   LIG    1       29.942 -20.071   7.652  0.00  0.00    +0.306 C 
BRANCH  15  16
ATOM     16  C   LIG    1       30.583 -18.922   8.419  0.00  0.00    -0.007 A 
ATOM     17  C   LIG    1       31.842 -18.405   8.079  0.00  0.00    +0.006 A 
ATOM     18  C   LIG    1       32.409 -17.362   8.814  0.00  0.00    +0.000 A 
ATOM     19  C   LIG    1       31.726 -16.814   9.898  0.00  0.00    +0.000 A 
ATOM     20  C   LIG    1       30.467 -17.300  10.240  0.00  0.00    +0.000 A 
ATOM     21  C   LIG    1       29.896 -18.339   9.501  0.00  0.00    +0.006 A 
ENDBRANCH  15  16
BRANCH  15  22
ATOM     22  N   LIG    1       30.070 -21.384   8.331  0.00  0.00    +0.094 NA
ATOM     23  N   LIG    1       31.155 -21.561   8.921  0.00  0.00    -0.014 NA
ATOM     24  N   LIG    1       32.145 -21.726   9.453  0.00  0.00    -0.328 NA
ENDBRANCH  15  22
ENDBRANCH  13  15
ENDBRANCH   6  11
BRANCH   3  25
ATOM     25  C   LIG    1       22.696 -22.657   6.343  0.00  0.00    +0.327 C 
ATOM     26  O   LIG    1       22.410 -21.744   5.582  0.00  0.00    -0.249 OA
BRANCH  25  27
ATOM     27  OXT LIG    1       21.866 -23.716   6.525  0.00  0.00    -0.479 OA
ATOM     28  HXT LIG    1       22.209 -24.498   6.046  0.00  0.00    +0.295 HD
ENDBRANCH  25  27
ENDBRANCH   3  25
TORSDOF 6
ENDMDL
MODEL 3
REMARK VINA RESULT:      -6.1      9.956     11.212
REMARK  Name = *****
REMARK                            x       y       z     vdW  Elec       q    Type
REMARK                         _______ _______ _______ _____ _____    ______ ____
ROOT
ATOM      1  C   LIG    1       22.965 -30.843   9.474  0.00  0.00    +0.025 C 
ATOM      2  C   LIG    1       23.799 -31.942   8.789  0.00  0.00    +0.042 C 
ATOM      3  CA  LIG    1       24.621 -31.348   7.617  0.00  0.00    +0.201 C 
ATOM      4  N   LIG    1       25.934 -30.949   8.152  0.00  0.00    -0.271 N 
ATOM      5  C   LIG    1       26.460 -31.719   9.301  0.00  0.00    +0.165 C 
ATOM      6  CA  LIG    1       26.912 -30.371   9.927  0.00  0.00    +0.190 C 
ATOM      7  C   LIG    1       26.071 -29.744   8.794  0.00  0.00    +0.240 C 
ATOM      8  O   LIG    1       25.553 -28.674   8.569  0.00  0.00    -0.273 OA
ATOM      9  S   LIG    1       25.014 -32.568  10.029  0.00  0.00    -0.127 S 
ATOM     10  C   LIG    1       22.867 -33.109   8.447  0.00  0.00    +0.025 C 
ENDROOT
BRANCH   6  11
ATOM     11  N   LIG    1       26.496 -30.083  11.323  0.00  0.00    -0.299 N 
ATOM     12  H   LIG    1       25.962 -30.756  11.867  0.00  0.00    +0.150 HD
ATOM     13  C   LIG    1       26.776 -28.860  11.901  0.00  0.00    +0.250 C 
ATOM     14  O   LIG    1       27.382 -27.984  11.283  0.00  0.00    -0.273 OA
BRANCH  13  15
ATOM     15  C   LIG    1       26.236 -28.642  13.331  0.00  0.00    +0.306 C 
BRANCH  15  16
ATOM     16  C   LIG    1       24.885 -27.941  13.298  0.00  0.00    -0.007 A 
ATOM     17  C   LIG    1       24.732 -26.593  13.658  0.00  0.00    +0.006 A 
ATOM     18  C   LIG    1       23.474 -25.985  13.633  0.00  0.00    +0.000 A 
ATOM     19  C   LIG    1       22.351 -26.712  13.243  0.00  0.00    +0.000 A 
ATOM     20  C   LIG    1       22.485 -28.043  12.863  0.00  0.00    +0.000 A 
ATOM     21  C   LIG    1       23.742 -28.651  12.882  0.00  0.00    +0.006 A 
ENDBRANCH  15  16
BRANCH  15  22
ATOM     22  N   LIG    1       26.207 -29.957  14.017  0.00  0.00    +0.094 NA
ATOM     23  N   LIG    1       27.331 -30.433  14.276  0.00  0.00    -0.014 NA
ATOM     24  N   LIG    1       28.354 -30.871  14.508  0.00  0.00    -0.328 NA
ENDBRANCH  15  22
ENDBRANCH  13  15
ENDBRANCH   6  11
BRANCH   3  25
ATOM     25  C   LIG    1       24.836 -32.260   6.401  0.00  0.00    +0.327 C 
ATOM     26  O   LIG    1       25.632 -33.187   6.358  0.00  0.00    -0.249 OA
BRANCH  25  27
ATOM     27  OXT LIG    1       23.992 -32.001   5.370  0.00  0.00    -0.479 OA
ATOM     28  HXT LIG    1       23.812 -31.040   5.317  0.00  0.00    +0.295 HD
ENDBRANCH  25  27
ENDBRANCH   3  25
TORSDOF 6
ENDMDL
MODEL 4
REMARK VINA RESULT:      -6.1      9.223     10.808
REMARK  Name = *****
REMARK                            x       y       z     vdW  Elec       q    Type
REMARK                         _______ _______ _______ _____ _____    ______ ____
ROOT
ATOM      1  C   LIG    1       25.527 -28.580   7.816  0.00  0.00    +0.025 C 
ATOM      2  C   LIG    1       25.058 -30.040   7.956  0.00  0.00    +0.042 C 
ATOM      3  CA  LIG    1       26.244 -30.956   8.352  0.00  0.00    +0.201 C 
ATOM      4  N   LIG    1       26.280 -31.026   9.822  0.00  0.00    -0.271 N 
ATOM      5  C   LIG    1       24.994 -30.884  10.540  0.00  0.00    +0.165 C 
ATOM      6  CA  LIG    1       25.728 -29.972  11.562  0.00  0.00    +0.190 C 
ATOM      7  C   LIG    1       26.882 -30.020  10.537  0.00  0.00    +0.240 C 
ATOM      8  O   LIG    1       27.869 -29.367  10.290  0.00  0.00    -0.273 OA
ATOM      9  S   LIG    1       23.849 -30.101   9.350  0.00  0.00    -0.127 S 
ATOM     10  C   LIG    1       24.293 -30.422   6.684  0.00  0.00    +0.025 C 
ENDROOT
BRANCH   6  11
ATOM     11  N   LIG    1       25.133 -28.643  11.854  0.00  0.00    -0.299 N 
ATOM     12  H   LIG    1       24.894 -27.993  11.110  0.00  0.00    +0.150 HD
ATOM     13  C   LIG    1       24.943 -28.230  13.158  0.00  0.00    +0.250 C 
ATOM     14  O   LIG    1       25.251 -28.951  14.108  0.00  0.00    -0.273 OA
BRANCH  13  15
ATOM     15  C   LIG    1       24.383 -26.804  13.349  0.00  0.00    +0.306 C 
BRANCH  15  16
ATOM     16  C   LIG    1       22.924 -26.848  13.781  0.00  0.00    -0.007 A 
ATOM     17  C   LIG    1       21.904 -27.297  12.928  0.00  0.00    +0.006 A 
ATOM     18  C   LIG    1       20.572 -27.308  13.350  0.00  0.00    +0.000 A 
ATOM     19  C   LIG    1       20.239 -26.877  14.632  0.00  0.00    +0.000 A 
ATOM     20  C   LIG    1       21.238 -26.447  15.500  0.00  0.00    +0.000 A 
ATOM     21  C   LIG    1       22.570 -26.441  15.082  0.00  0.00    +0.006 A 
ENDBRANCH  15  16
BRANCH  15  22
ATOM     22  N   LIG    1       25.265 -26.089  14.304  0.00  0.00    +0.094 NA
ATOM     23  N   LIG    1       26.219 -25.481  13.777  0.00  0.00    -0.014 NA
ATOM     24  N   LIG    1       27.091 -24.933  13.299  0.00  0.00    -0.328 NA
ENDBRANCH  15  22
ENDBRANCH  13  15
ENDBRANCH   6  11
BRANCH   3  25
ATOM     25  C   LIG    1       26.223 -32.383   7.787  0.00  0.00    +0.327 C 
ATOM     26  O   LIG    1       25.424 -33.249   8.112  0.00  0.00    -0.249 OA
BRANCH  25  27
ATOM     27  OXT LIG    1       27.141 -32.595   6.809  0.00  0.00    -0.479 OA
ATOM     28  HXT LIG    1       26.895 -32.095   6.003  0.00  0.00    +0.295 HD
ENDBRANCH  25  27
ENDBRANCH   3  25
TORSDOF 6
ENDMDL
MODEL 5
REMARK VINA RESULT:      -5.9      7.168     10.206
REMARK  Name = *****
REMARK                            x       y       z     vdW  Elec       q    Type
REMARK                         _______ _______ _______ _____ _____    ______ ____
ROOT
ATOM      1  C   LIG    1       22.575 -31.782   9.745  0.00  0.00    +0.025 C 
ATOM      2  C   LIG    1       23.390 -31.412  10.998  0.00  0.00    +0.042 C 
ATOM      3  CA  LIG    1       24.701 -32.236  11.056  0.00  0.00    +0.201 C 
ATOM      4  N   LIG    1       25.748 -31.454  10.376  0.00  0.00    -0.271 N 
ATOM      5  C   LIG    1       25.627 -29.980  10.416  0.00  0.00    +0.165 C 
ATOM      6  CA  LIG    1       26.040 -29.960   8.919  0.00  0.00    +0.190 C 
ATOM      7  C   LIG    1       25.844 -31.489   9.008  0.00  0.00    +0.240 C 
ATOM      8  O   LIG    1       25.666 -32.401   8.233  0.00  0.00    -0.273 OA
ATOM      9  S   LIG    1       23.880 -29.640  10.835  0.00  0.00    -0.127 S 
ATOM     10  C   LIG    1       22.467 -31.510  12.217  0.00  0.00    +0.025 C 
ENDROOT
BRANCH   6  11
ATOM     11  N   LIG    1       25.171 -29.216   7.972  0.00  0.00    -0.299 N 
ATOM     12  H   LIG    1       24.298 -29.611   7.630  0.00  0.00    +0.150 HD
ATOM     13  C   LIG    1       25.558 -27.984   7.482  0.00  0.00    +0.250 C 
ATOM     14  O   LIG    1       26.623 -27.468   7.821  0.00  0.00    -0.273 OA
BRANCH  13  15
ATOM     15  C   LIG    1       24.613 -27.332   6.450  0.00  0.00    +0.306 C 
BRANCH  15  16
ATOM     16  C   LIG    1       24.693 -25.813   6.527  0.00  0.00    -0.007 A 
ATOM     17  C   LIG    1       25.916 -25.131   6.612  0.00  0.00    +0.006 A 
ATOM     18  C   LIG    1       25.953 -23.737   6.699  0.00  0.00    +0.000 A 
ATOM     19  C   LIG    1       24.769 -23.002   6.696  0.00  0.00    +0.000 A 
ATOM     20  C   LIG    1       23.547 -23.659   6.592  0.00  0.00    +0.000 A 
ATOM     21  C   LIG    1       23.508 -25.052   6.499  0.00  0.00    +0.006 A 
ENDBRANCH  15  16
BRANCH  15  22
ATOM     22  N   LIG    1       24.949 -27.878   5.111  0.00  0.00    +0.094 NA
ATOM     23  N   LIG    1       25.121 -29.113   5.082  0.00  0.00    -0.014 NA
ATOM     24  N   LIG    1       25.284 -30.237   5.055  0.00  0.00    -0.328 NA
ENDBRANCH  15  22
ENDBRANCH  13  15
ENDBRANCH   6  11
BRANCH   3  25
ATOM     25  C   LIG    1       25.201 -32.627  12.453  0.00  0.00    +0.327 C 
ATOM     26  O   LIG    1       25.900 -31.921  13.166  0.00  0.00    -0.249 OA
BRANCH  25  27
ATOM     27  OXT LIG    1       24.730 -33.825  12.885  0.00  0.00    -0.479 OA
ATOM     28  HXT LIG    1       25.473 -34.446  13.029  0.00  0.00    +0.295 HD
ENDBRANCH  25  27
ENDBRANCH   3  25
TORSDOF 6
ENDMDL
MODEL 6
REMARK VINA RESULT:      -5.9      8.883     11.481
REMARK  Name = *****
REMARK                            x       y       z     vdW  Elec       q    Type
REMARK                         _______ _______ _______ _____ _____    ______ ____
ROOT
ATOM      1  C   LIG    1       22.221 -28.075  12.688  0.00  0.00    +0.025 C 
ATOM      2  C   LIG    1       22.358 -29.270  13.648  0.00  0.00    +0.042 C 
ATOM      3  CA  LIG    1       21.416 -30.424  13.218  0.00  0.00    +0.201 C 
ATOM      4  N   LIG    1       22.176 -31.305  12.315  0.00  0.00    -0.271 N 
ATOM      5  C   LIG    1       23.639 -31.388  12.521  0.00  0.00    +0.165 C 
ATOM      6  CA  LIG    1       23.804 -31.327  10.978  0.00  0.00    +0.190 C 
ATOM      7  C   LIG    1       22.300 -30.977  10.989  0.00  0.00    +0.240 C 
ATOM      8  O   LIG    1       21.510 -30.460  10.233  0.00  0.00    -0.273 OA
ATOM      9  S   LIG    1       24.084 -29.907  13.496  0.00  0.00    -0.127 S 
ATOM     10  C   LIG    1       22.196 -28.755  15.082  0.00  0.00    +0.025 C 
ENDROOT
BRANCH   6  11
ATOM     11  N   LIG    1       24.735 -30.313  10.421  0.00  0.00    -0.299 N 
ATOM     12  H   LIG    1       24.717 -29.346  10.736  0.00  0.00    +0.150 HD
ATOM     13  C   LIG    1       25.615 -30.647   9.411  0.00  0.00    +0.250 C 
ATOM     14  O   LIG    1       25.659 -31.789   8.952  0.00  0.00    -0.273 OA
BRANCH  13  15
ATOM     15  C   LIG    1       26.487 -29.499   8.858  0.00  0.00    +0.306 C 
BRANCH  15  16
ATOM     16  C   LIG    1       25.735 -28.712   7.794  0.00  0.00    -0.007 A 
ATOM     17  C   LIG    1       24.710 -29.284   7.024  0.00  0.00    +0.006 A 
ATOM     18  C   LIG    1       24.051 -28.538   6.044  0.00  0.00    +0.000 A 
ATOM     19  C   LIG    1       24.401 -27.208   5.820  0.00  0.00    +0.000 A 
ATOM     20  C   LIG    1       25.400 -26.617   6.586  0.00  0.00    +0.000 A 
ATOM     21  C   LIG    1       26.056 -27.359   7.571  0.00  0.00    +0.006 A 
ENDBRANCH  15  16
BRANCH  15  22
ATOM     22  N   LIG    1       26.936 -28.671  10.004  0.00  0.00    +0.094 NA
ATOM     23  N   LIG    1       27.813 -29.200  10.716  0.00  0.00    -0.014 NA
ATOM     24  N   LIG    1       28.608 -29.683  11.368  0.00  0.00    -0.328 NA
ENDBRANCH  15  22
ENDBRANCH  13  15
ENDBRANCH   6  11
BRANCH   3  25
ATOM     25  C   LIG    1       20.812 -31.270  14.347  0.00  0.00    +0.327 C 
ATOM     26  O   LIG    1       21.425 -32.106  14.995  0.00  0.00    -0.249 OA
BRANCH  25  27
ATOM     27  OXT LIG    1       19.523 -30.955  14.634  0.00  0.00    -0.479 OA
ATOM     28  HXT LIG    1       19.106 -31.680  15.144  0.00  0.00    +0.295 HD
ENDBRANCH  25  27
ENDBRANCH   3  25
TORSDOF 6
ENDMDL
MODEL 7
REMARK VINA RESULT:      -5.9      2.833      3.645
REMARK  Name = *****
REMARK                            x       y       z     vdW  Elec       q    Type
REMARK                         _______ _______ _______ _____ _____    ______ ____
ROOT
ATOM      1  C   LIG    1       25.108 -20.761   3.731  0.00  0.00    +0.025 C 
ATOM      2  C   LIG    1       23.960 -20.602   4.746  0.00  0.00    +0.042 C 
ATOM      3  CA  LIG    1       23.125 -21.905   4.828  0.00  0.00    +0.201 C 
ATOM      4  N   LIG    1       23.702 -22.737   5.898  0.00  0.00    -0.271 N 
ATOM      5  C   LIG    1       24.359 -22.035   7.023  0.00  0.00    +0.165 C 
ATOM      6  CA  LIG    1       25.488 -23.100   6.955  0.00  0.00    +0.190 C 
ATOM      7  C   LIG    1       24.801 -23.516   5.637  0.00  0.00    +0.240 C 
ATOM      8  O   LIG    1       25.102 -24.136   4.643  0.00  0.00    -0.273 OA
ATOM      9  S   LIG    1       24.722 -20.352   6.408  0.00  0.00    -0.127 S 
ATOM     10  C   LIG    1       23.194 -19.319   4.407  0.00  0.00    +0.025 C 
ENDROOT
BRANCH   6  11
ATOM     11  N   LIG    1       26.890 -22.617   6.869  0.00  0.00    -0.299 N 
ATOM     12  H   LIG    1       27.464 -22.795   6.048  0.00  0.00    +0.150 HD
ATOM     13  C   LIG    1       27.474 -21.959   7.934  0.00  0.00    +0.250 C 
ATOM     14  O   LIG    1       26.850 -21.749   8.975  0.00  0.00    -0.273 OA
BRANCH  13  15
ATOM     15  C   LIG    1       28.956 -21.564   7.763  0.00  0.00    +0.306 C 
BRANCH  15  16
ATOM     16  C   LIG    1       29.091 -20.340   6.868  0.00  0.00    -0.007 A 
ATOM     17  C   LIG    1       30.207 -19.491   6.923  0.00  0.00    +0.006 A 
ATOM     18  C   LIG    1       30.291 -18.366   6.100  0.00  0.00    +0.000 A 
ATOM     19  C   LIG    1       29.264 -18.073   5.204  0.00  0.00    +0.000 A 
ATOM     20  C   LIG    1       28.158 -18.913   5.120  0.00  0.00    +0.000 A 
ATOM     21  C   LIG    1       28.076 -20.042   5.938  0.00  0.00    +0.006 A 
ENDBRANCH  15  16
BRANCH  15  22
ATOM     22  N   LIG    1       29.541 -21.380   9.114  0.00  0.00    +0.094 NA
ATOM     23  N   LIG    1       30.740 -21.709   9.212  0.00  0.00    -0.014 NA
ATOM     24  N   LIG    1       31.830 -22.014   9.303  0.00  0.00    -0.328 NA
ENDBRANCH  15  22
ENDBRANCH  13  15
ENDBRANCH   6  11
BRANCH   3  25
ATOM     25  C   LIG    1       21.621 -21.737   5.086  0.00  0.00    +0.327 C 
ATOM     26  O   LIG    1       20.921 -20.867   4.588  0.00  0.00    -0.249 OA
BRANCH  25  27
ATOM     27  OXT LIG    1       21.092 -22.707   5.876  0.00  0.00    -0.479 OA
ATOM     28  HXT LIG    1       21.765 -23.394   6.059  0.00  0.00    +0.295 HD
ENDBRANCH  25  27
ENDBRANCH   3  25
TORSDOF 6
ENDMDL
MODEL 8
REMARK VINA RESULT:      -5.8      2.497      7.312
REMARK  Name = *****
REMARK                            x       y       z     vdW  Elec       q    Type
REMARK                         _______ _______ _______ _____ _____    ______ ____
ROOT
ATOM      1  C   LIG    1       27.982 -18.734   5.911  0.00  0.00    +0.025 C 
ATOM      2  C   LIG    1       29.242 -19.423   6.466  0.00  0.00    +0.042 C 
ATOM      3  CA  LIG    1       29.250 -19.374   8.015  0.00  0.00    +0.201 C 
ATOM      4  N   LIG    1       28.596 -20.600   8.502  0.00  0.00    -0.271 N 
ATOM      5  C   LIG    1       28.703 -21.809   7.654  0.00  0.00    +0.165 C 
ATOM      6  CA  LIG    1       27.204 -22.085   7.954  0.00  0.00    +0.190 C 
ATOM      7  C   LIG    1       27.226 -20.665   8.560  0.00  0.00    +0.240 C 
ATOM      8  O   LIG    1       26.414 -19.814   8.843  0.00  0.00    -0.273 OA
ATOM      9  S   LIG    1       29.153 -21.204   5.989  0.00  0.00    -0.127 S 
ATOM     10  C   LIG    1       30.464 -18.830   5.757  0.00  0.00    +0.025 C 
ENDROOT
BRANCH   6  11
ATOM     11  N   LIG    1       26.299 -22.318   6.800  0.00  0.00    -0.299 N 
ATOM     12  H   LIG    1       26.658 -22.396   5.851  0.00  0.00    +0.150 HD
ATOM     13  C   LIG    1       24.931 -22.376   6.980  0.00  0.00    +0.250 C 
ATOM     14  O   LIG    1       24.427 -22.246   8.096  0.00  0.00    -0.273 OA
BRANCH  13  15
ATOM     15  C   LIG    1       24.081 -22.552   5.703  0.00  0.00    +0.306 C 
BRANCH  15  16
ATOM     16  C   LIG    1       23.797 -21.205   5.052  0.00  0.00    -0.007 A 
ATOM     17  C   LIG    1       24.660 -20.636   4.103  0.00  0.00    +0.006 A 
ATOM     18  C   LIG    1       24.379 -19.390   3.537  0.00  0.00    +0.000 A 
ATOM     19  C   LIG    1       23.229 -18.695   3.906  0.00  0.00    +0.000 A 
ATOM     20  C   LIG    1       22.350 -19.252   4.831  0.00  0.00    +0.000 A 
ATOM     21  C   LIG    1       22.627 -20.500   5.392  0.00  0.00    +0.006 A 
ENDBRANCH  15  16
BRANCH  15  22
ATOM     22  N   LIG    1       24.785 -23.507   4.811  0.00  0.00    +0.094 NA
ATOM     23  N   LIG    1       25.164 -24.557   5.369  0.00  0.00    -0.014 NA
ATOM     24  N   LIG    1       25.515 -25.510   5.877  0.00  0.00    -0.328 NA
ENDBRANCH  15  22
ENDBRANCH  13  15
ENDBRANCH   6  11
BRANCH   3  25
ATOM     25  C   LIG    1       30.624 -19.243   8.687  0.00  0.00    +0.327 C 
ATOM     26  O   LIG    1       31.476 -20.119   8.706  0.00  0.00    -0.249 OA
BRANCH  25  27
ATOM     27  OXT LIG    1       30.859 -18.012   9.210  0.00  0.00    -0.479 OA
ATOM     28  HXT LIG    1       30.582 -17.988  10.149  0.00  0.00    +0.295 HD
ENDBRANCH  25  27
ENDBRANCH   3  25
TORSDOF 6
ENDMDL
MODEL 9
REMARK VINA RESULT:      -5.8      9.336     10.975
REMARK  Name = *****
REMARK                            x       y       z     vdW  Elec       q    Type
REMARK                         _______ _______ _______ _____ _____    ______ ____
ROOT
ATOM      1  C   LIG    1       24.850 -29.297   7.496  0.00  0.00    +0.025 C 
ATOM      2  C   LIG    1       24.780 -30.833   7.411  0.00  0.00    +0.042 C 
ATOM      3  CA  LIG    1       26.186 -31.452   7.616  0.00  0.00    +0.201 C 
ATOM      4  N   LIG    1       26.345 -31.729   9.054  0.00  0.00    -0.271 N 
ATOM      5  C   LIG    1       25.120 -32.040   9.824  0.00  0.00    +0.165 C 
ATOM      6  CA  LIG    1       25.668 -31.129  10.957  0.00  0.00    +0.190 C 
ATOM      7  C   LIG    1       26.719 -30.719   9.904  0.00  0.00    +0.240 C 
ATOM      8  O   LIG    1       27.487 -29.799   9.736  0.00  0.00    -0.273 OA
ATOM      9  S   LIG    1       23.731 -31.417   8.812  0.00  0.00    -0.127 S 
ATOM     10  C   LIG    1       24.050 -31.209   6.117  0.00  0.00    +0.025 C 
ENDROOT
BRANCH   6  11
ATOM     11  N   LIG    1       24.776 -30.063  11.480  0.00  0.00    -0.299 N 
ATOM     12  H   LIG    1       24.278 -29.434  10.855  0.00  0.00    +0.150 HD
ATOM     13  C   LIG    1       24.646 -29.860  12.840  0.00  0.00    +0.250 C 
ATOM     14  O   LIG    1       25.254 -30.559  13.652  0.00  0.00    -0.273 OA
BRANCH  13  15
ATOM     15  C   LIG    1       23.749 -28.680  13.272  0.00  0.00    +0.306 C 
BRANCH  15  16
ATOM     16  C   LIG    1       24.549 -27.386  13.334  0.00  0.00    -0.007 A 
ATOM     17  C   LIG    1       25.886 -27.313  12.915  0.00  0.00    +0.006 A 
ATOM     18  C   LIG    1       26.597 -26.113  13.001  0.00  0.00    +0.000 A 
ATOM     19  C   LIG    1       25.983 -24.967  13.502  0.00  0.00    +0.000 A 
ATOM     20  C   LIG    1       24.652 -25.015  13.904  0.00  0.00    +0.000 A 
ATOM     21  C   LIG    1       23.937 -26.211  13.812  0.00  0.00    +0.006 A 
ENDBRANCH  15  16
BRANCH  15  22
ATOM     22  N   LIG    1       22.592 -28.620  12.344  0.00  0.00    +0.094 NA
ATOM     23  N   LIG    1       21.988 -29.702  12.195  0.00  0.00    -0.014 NA
ATOM     24  N   LIG    1       21.441 -30.687  12.054  0.00  0.00    -0.328 NA
ENDBRANCH  15  22
ENDBRANCH  13  15
ENDBRANCH   6  11
BRANCH   3  25
ATOM     25  C   LIG    1       26.489 -32.734   6.827  0.00  0.00    +0.327 C 
ATOM     26  O   LIG    1       25.984 -33.825   7.049  0.00  0.00    -0.249 OA
BRANCH  25  27
ATOM     27  OXT LIG    1       27.332 -32.542   5.780  0.00  0.00    -0.479 OA
ATOM     28  HXT LIG    1       28.217 -32.907   5.990  0.00  0.00    +0.295 HD
ENDBRANCH  25  27
ENDBRANCH   3  25
TORSDOF 6
ENDMDL
