MODEL 1
REMARK VINA RESULT:      -6.5      0.000      0.000
REMARK  Name = *****
REMARK                            x       y       z     vdW  Elec       q    Type
REMARK                         _______ _______ _______ _____ _____    ______ ____
ROOT
ATOM      1  C   LIG    1       25.339 -30.364  10.564  0.00  0.00    +0.035 C 
ATOM      2  N   LIG    1       24.133 -30.622   9.936  0.00  0.00    -0.342 NA
ATOM      3  C   LIG    1       23.289 -31.323  10.797  0.00  0.00    +0.058 C 
ATOM      4  C   LIG    1       23.926 -31.391  12.042  0.00  0.00    +0.020 C 
ATOM      5  C   LIG    1       25.144 -30.641  11.916  0.00  0.00    +0.066 C 
ENDROOT
BRANCH   3   6
ATOM      6  C   LIG    1       21.942 -31.765  10.401  0.00  0.00    -0.001 C 
ATOM      7  C   LIG    1       21.757 -33.022   9.807  0.00  0.00    +0.013 C 
ATOM      8  C   LIG    1       20.484 -33.432   9.404  0.00  0.00    +0.039 C 
ATOM      9  C   LIG    1       19.399 -32.589   9.607  0.00  0.00    +0.123 C 
ATOM     10  F   LIG    1       18.177 -32.985   9.228  0.00  0.00    -0.205 F 
ATOM     11  C   LIG    1       19.562 -31.338  10.191  0.00  0.00    +0.039 C 
ATOM     12  C   LIG    1       20.836 -30.921  10.578  0.00  0.00    +0.013 C 
ENDBRANCH   3   6
BRANCH   4  13
ATOM     13  C   LIG    1       23.362 -32.045  13.235  0.00  0.00    -0.015 C 
ATOM     14  C   LIG    1       23.961 -33.182  13.796  0.00  0.00    +0.008 C 
ATOM     15  C   LIG    1       23.399 -33.822  14.907  0.00  0.00    +0.001 C 
ATOM     16  C   LIG    1       22.245 -33.316  15.498  0.00  0.00    +0.000 C 
ATOM     17  C   LIG    1       21.640 -32.184  14.964  0.00  0.00    +0.001 C 
ATOM     18  C   LIG    1       22.181 -31.574  13.830  0.00  0.00    +0.008 C 
ENDBRANCH   4  13
BRANCH   5  19
ATOM     19  C   LIG    1       26.076 -30.247  12.964  0.00  0.00    +0.251 C 
ATOM     20  N   LIG    1       25.890 -29.029  13.610  0.00  0.00    -0.281 N 
ATOM     21  H   LIG    1       26.678 -28.840  14.217  0.00  0.00    +0.155 HD
ATOM     22  O   LIG    1       27.034 -30.938  13.277  0.00  0.00    -0.270 OA
BRANCH  20  23
ATOM     23  C   LIG    1       24.863 -28.061  13.593  0.00  0.00    +0.034 C 
ATOM     24  C   LIG    1       25.235 -26.731  13.824  0.00  0.00    +0.023 C 
ATOM     25  C   LIG    1       24.288 -25.696  13.784  0.00  0.00    +0.002 C 
ATOM     26  C   LIG    1       22.955 -25.974  13.499  0.00  0.00    +0.000 C 
ATOM     27  C   LIG    1       22.565 -27.288  13.305  0.00  0.00    +0.002 C 
ATOM     28  C   LIG    1       23.508 -28.317  13.384  0.00  0.00    +0.023 C 
ENDBRANCH  20  23
ENDBRANCH   5  19
BRANCH   1  30
ATOM     29  C   LIG    1       27.183 -30.930   8.980  0.00  0.00    +0.014 C 
ATOM     30  C   LIG    1       26.627 -29.871   9.929  0.00  0.00    +0.030 C 
ATOM     31  C   LIG    1       26.581 -28.491   9.283  0.00  0.00    +0.014 C 
ENDBRANCH   1  30
BRANCH   2  32
ATOM     32  C   LIG    1       23.713 -30.083   8.641  0.00  0.00    +0.124 C 
BRANCH  32  33
ATOM     33  C   LIG    1       23.996 -31.070   7.506  0.00  0.00    +0.053 C 
BRANCH  33  34
ATOM     34  C   LIG    1       24.344 -30.411   6.171  0.00  0.00    +0.119 C 
BRANCH  34  35
ATOM     35  O   LIG    1       23.117 -29.934   5.615  0.00  0.00    -0.392 OA
ATOM     36  H   LIG    1       22.492 -29.757   6.339  0.00  0.00    +0.210 HD
ENDBRANCH  34  35
BRANCH  34  37
ATOM     37  C   LIG    1       25.305 -29.227   6.347  0.00  0.00    +0.063 C 
BRANCH  37  38
ATOM     38  C   LIG    1       25.008 -28.020   5.446  0.00  0.00    +0.128 C 
BRANCH  38  39
ATOM     39  O   LIG    1       23.860 -27.314   5.932  0.00  0.00    -0.391 OA
ATOM     40  H   LIG    1       24.165 -26.579   6.500  0.00  0.00    +0.210 HD
ENDBRANCH  38  39
BRANCH  38  41
ATOM     41  C   LIG    1       26.153 -27.021   5.299  0.00  0.00    +0.151 C 
BRANCH  41  42
ATOM     42  C   LIG    1       25.657 -25.606   5.432  0.00  0.00    +0.307 C 
ATOM     43  O   LIG    1       25.062 -25.018   4.554  0.00  0.00    -0.251 OA
BRANCH  42  44
ATOM     44  O   LIG    1       26.028 -25.011   6.596  0.00  0.00    -0.481 OA
ATOM     45  H   LIG    1       26.407 -24.120   6.482  0.00  0.00    +0.295 HD
ENDBRANCH  42  44
ENDBRANCH  41  42
ENDBRANCH  38  41
ENDBRANCH  37  38
ENDBRANCH  34  37
ENDBRANCH  33  34
ENDBRANCH  32  33
ENDBRANCH   2  32
TORSDOF 15
ENDMDL
MODEL 2
REMARK VINA RESULT:      -6.1      3.298      5.575
REMARK  Name = *****
REMARK                            x       y       z     vdW  Elec       q    Type
REMARK                         _______ _______ _______ _____ _____    ______ ____
ROOT
ATOM      1  C   LIG    1       24.267 -31.453  13.279  0.00  0.00    +0.035 C 
ATOM      2  N   LIG    1       24.782 -31.209  12.018  0.00  0.00    -0.342 NA
ATOM      3  C   LIG    1       23.801 -31.435  11.053  0.00  0.00    +0.058 C 
ATOM      4  C   LIG    1       22.603 -31.697  11.727  0.00  0.00    +0.020 C 
ATOM      5  C   LIG    1       22.885 -31.545  13.127  0.00  0.00    +0.066 C 
ENDROOT
BRANCH   3   6
ATOM      6  C   LIG    1       24.057 -31.284   9.611  0.00  0.00    -0.001 C 
ATOM      7  C   LIG    1       24.561 -32.360   8.866  0.00  0.00    +0.013 C 
ATOM      8  C   LIG    1       24.833 -32.211   7.504  0.00  0.00    +0.039 C 
ATOM      9  C   LIG    1       24.590 -30.989   6.889  0.00  0.00    +0.123 C 
ATOM     10  F   LIG    1       24.842 -30.848   5.582  0.00  0.00    -0.205 F 
ATOM     11  C   LIG    1       24.094 -29.909   7.611  0.00  0.00    +0.039 C 
ATOM     12  C   LIG    1       23.838 -30.053   8.975  0.00  0.00    +0.013 C 
ENDBRANCH   3   6
BRANCH   4  13
ATOM     13  C   LIG    1       21.316 -31.981  11.069  0.00  0.00    -0.015 C 
ATOM     14  C   LIG    1       20.993 -33.270  10.623  0.00  0.00    +0.008 C 
ATOM     15  C   LIG    1       19.785 -33.526   9.964  0.00  0.00    +0.001 C 
ATOM     16  C   LIG    1       18.864 -32.501   9.767  0.00  0.00    +0.000 C 
ATOM     17  C   LIG    1       19.159 -31.217  10.209  0.00  0.00    +0.001 C 
ATOM     18  C   LIG    1       20.384 -30.959  10.829  0.00  0.00    +0.008 C 
ENDBRANCH   4  13
BRANCH   5  19
ATOM     19  C   LIG    1       21.947 -31.526  14.242  0.00  0.00    +0.251 C 
ATOM     20  N   LIG    1       21.461 -30.303  14.695  0.00  0.00    -0.281 N 
ATOM     21  H   LIG    1       20.925 -30.442  15.543  0.00  0.00    +0.155 HD
ATOM     22  O   LIG    1       21.592 -32.547  14.812  0.00  0.00    -0.270 OA
BRANCH  20  23
ATOM     23  C   LIG    1       21.557 -28.978  14.221  0.00  0.00    +0.034 C 
ATOM     24  C   LIG    1       22.664 -28.228  14.635  0.00  0.00    +0.023 C 
ATOM     25  C   LIG    1       22.863 -26.917  14.181  0.00  0.00    +0.002 C 
ATOM     26  C   LIG    1       21.963 -26.336  13.293  0.00  0.00    +0.000 C 
ATOM     27  C   LIG    1       20.843 -27.050  12.902  0.00  0.00    +0.002 C 
ATOM     28  C   LIG    1       20.633 -28.344  13.391  0.00  0.00    +0.023 C 
ENDBRANCH  20  23
ENDBRANCH   5  19
BRANCH   1  30
ATOM     29  C   LIG    1       26.130 -32.646  14.436  0.00  0.00    +0.014 C 
ATOM     30  C   LIG    1       25.035 -31.592  14.581  0.00  0.00    +0.030 C 
ATOM     31  C   LIG    1       25.561 -30.302  15.200  0.00  0.00    +0.014 C 
ENDBRANCH   1  30
BRANCH   2  32
ATOM     32  C   LIG    1       26.089 -30.617  11.729  0.00  0.00    +0.124 C 
BRANCH  32  33
ATOM     33  C   LIG    1       25.992 -29.097  11.576  0.00  0.00    +0.053 C 
BRANCH  33  34
ATOM     34  C   LIG    1       26.844 -28.308  12.572  0.00  0.00    +0.119 C 
BRANCH  34  35
ATOM     35  O   LIG    1       28.130 -28.141  11.971  0.00  0.00    -0.392 OA
ATOM     36  H   LIG    1       28.589 -28.999  11.968  0.00  0.00    +0.210 HD
ENDBRANCH  34  35
BRANCH  34  37
ATOM     37  C   LIG    1       26.250 -26.924  12.869  0.00  0.00    +0.063 C 
BRANCH  37  38
ATOM     38  C   LIG    1       27.040 -26.091  13.886  0.00  0.00    +0.128 C 
BRANCH  38  39
ATOM     39  O   LIG    1       27.849 -25.122  13.206  0.00  0.00    -0.391 OA
ATOM     40  H   LIG    1       28.542 -25.594  12.704  0.00  0.00    +0.210 HD
ENDBRANCH  38  39
BRANCH  38  41
ATOM     41  C   LIG    1       26.195 -25.359  14.925  0.00  0.00    +0.151 C 
BRANCH  41  42
ATOM     42  C   LIG    1       25.903 -23.948  14.487  0.00  0.00    +0.307 C 
ATOM     43  O   LIG    1       25.111 -23.666  13.613  0.00  0.00    -0.251 OA
BRANCH  42  44
ATOM     44  O   LIG    1       26.689 -23.020  15.095  0.00  0.00    -0.481 OA
ATOM     45  H   LIG    1       26.458 -22.099  14.873  0.00  0.00    +0.295 HD
ENDBRANCH  42  44
ENDBRANCH  41  42
ENDBRANCH  38  41
ENDBRANCH  37  38
ENDBRANCH  34  37
ENDBRANCH  33  34
ENDBRANCH  32  33
ENDBRANCH   2  32
TORSDOF 15
ENDMDL
MODEL 3
REMARK VINA RESULT:      -6.0      3.335      6.825
REMARK  Name = *****
REMARK                            x       y       z     vdW  Elec       q    Type
REMARK                         _______ _______ _______ _____ _____    ______ ____
ROOT
ATOM      1  C   LIG    1       24.255 -31.095  13.010  0.00  0.00    +0.035 C 
ATOM      2  N   LIG    1       23.000 -30.534  13.171  0.00  0.00    -0.342 NA
ATOM      3  C   LIG    1       23.122 -29.181  13.487  0.00  0.00    +0.058 C 
ATOM      4  C   LIG    1       24.479 -28.850  13.393  0.00  0.00    +0.020 C 
ATOM      5  C   LIG    1       25.153 -30.032  12.934  0.00  0.00    +0.066 C 
ENDROOT
BRANCH   3   6
ATOM      6  C   LIG    1       21.957 -28.319  13.745  0.00  0.00    -0.001 C 
ATOM      7  C   LIG    1       21.320 -28.346  14.994  0.00  0.00    +0.013 C 
ATOM      8  C   LIG    1       20.197 -27.550  15.231  0.00  0.00    +0.039 C 
ATOM      9  C   LIG    1       19.721 -26.722  14.223  0.00  0.00    +0.123 C 
ATOM     10  F   LIG    1       18.649 -25.952  14.452  0.00  0.00    -0.205 F 
ATOM     11  C   LIG    1       20.336 -26.683  12.977  0.00  0.00    +0.039 C 
ATOM     12  C   LIG    1       21.448 -27.490  12.734  0.00  0.00    +0.013 C 
ENDBRANCH   3   6
BRANCH   4  13
ATOM     13  C   LIG    1       25.032 -27.508  13.642  0.00  0.00    -0.015 C 
ATOM     14  C   LIG    1       24.679 -26.774  14.784  0.00  0.00    +0.008 C 
ATOM     15  C   LIG    1       25.179 -25.484  14.997  0.00  0.00    +0.001 C 
ATOM     16  C   LIG    1       26.067 -24.917  14.087  0.00  0.00    +0.000 C 
ATOM     17  C   LIG    1       26.437 -25.630  12.953  0.00  0.00    +0.001 C 
ATOM     18  C   LIG    1       25.903 -26.901  12.724  0.00  0.00    +0.008 C 
ENDBRANCH   4  13
BRANCH   5  19
ATOM     19  C   LIG    1       26.536 -30.173  12.497  0.00  0.00    +0.251 C 
ATOM     20  N   LIG    1       26.828 -30.074  11.141  0.00  0.00    -0.281 N 
ATOM     21  H   LIG    1       27.799 -30.315  10.982  0.00  0.00    +0.155 HD
ATOM     22  O   LIG    1       27.445 -30.404  13.280  0.00  0.00    -0.270 OA
BRANCH  20  23
ATOM     23  C   LIG    1       26.077 -29.710  10.003  0.00  0.00    +0.034 C 
ATOM     24  C   LIG    1       26.504 -28.586   9.286  0.00  0.00    +0.023 C 
ATOM     25  C   LIG    1       25.845 -28.176   8.119  0.00  0.00    +0.002 C 
ATOM     26  C   LIG    1       24.752 -28.893   7.641  0.00  0.00    +0.000 C 
ATOM     27  C   LIG    1       24.294 -29.985   8.357  0.00  0.00    +0.002 C 
ATOM     28  C   LIG    1       24.935 -30.364   9.541  0.00  0.00    +0.023 C 
ENDBRANCH  20  23
ENDBRANCH   5  19
BRANCH   1  30
ATOM     29  C   LIG    1       23.905 -33.341  14.044  0.00  0.00    +0.014 C 
ATOM     30  C   LIG    1       24.604 -32.570  12.926  0.00  0.00    +0.030 C 
ATOM     31  C   LIG    1       24.417 -33.235  11.568  0.00  0.00    +0.014 C 
ENDBRANCH   1  30
BRANCH   2  32
ATOM     32  C   LIG    1       21.726 -31.189  12.868  0.00  0.00    +0.124 C 
BRANCH  32  33
ATOM     33  C   LIG    1       21.414 -31.138  11.370  0.00  0.00    +0.053 C 
BRANCH  33  34
ATOM     34  C   LIG    1       20.970 -32.475  10.774  0.00  0.00    +0.119 C 
BRANCH  34  35
ATOM     35  O   LIG    1       20.853 -33.392  11.864  0.00  0.00    -0.392 OA
ATOM     36  H   LIG    1       20.309 -32.985  12.560  0.00  0.00    +0.210 HD
ENDBRANCH  34  35
BRANCH  34  37
ATOM     37  C   LIG    1       19.612 -32.367  10.066  0.00  0.00    +0.063 C 
BRANCH  37  38
ATOM     38  C   LIG    1       18.688 -31.271  10.613  0.00  0.00    +0.128 C 
BRANCH  38  39
ATOM     39  O   LIG    1       18.084 -30.553   9.529  0.00  0.00    -0.391 OA
ATOM     40  H   LIG    1       17.184 -30.906   9.386  0.00  0.00    +0.210 HD
ENDBRANCH  38  39
BRANCH  38  41
ATOM     41  C   LIG    1       17.577 -31.758  11.538  0.00  0.00    +0.151 C 
BRANCH  41  42
ATOM     42  C   LIG    1       17.655 -31.080  12.880  0.00  0.00    +0.307 C 
ATOM     43  O   LIG    1       17.010 -31.428  13.847  0.00  0.00    -0.251 OA
BRANCH  42  44
ATOM     44  O   LIG    1       18.442 -29.972  12.881  0.00  0.00    -0.481 OA
ATOM     45  H   LIG    1       18.189 -29.307  13.548  0.00  0.00    +0.295 HD
ENDBRANCH  42  44
ENDBRANCH  41  42
ENDBRANCH  38  41
ENDBRANCH  37  38
ENDBRANCH  34  37
ENDBRANCH  33  34
ENDBRANCH  32  33
ENDBRANCH   2  32
TORSDOF 15
ENDMDL
MODEL 4
REMARK VINA RESULT:      -5.8      3.150      6.393
REMARK  Name = *****
REMARK                            x       y       z     vdW  Elec       q    Type
REMARK                         _______ _______ _______ _____ _____    ______ ____
ROOT
ATOM      1  C   LIG    1       24.641 -30.477   7.091  0.00  0.00    +0.035 C 
ATOM      2  N   LIG    1       25.285 -29.631   7.978  0.00  0.00    -0.342 NA
ATOM      3  C   LIG    1       25.050 -30.048   9.288  0.00  0.00    +0.058 C 
ATOM      4  C   LIG    1       24.353 -31.260   9.222  0.00  0.00    +0.020 C 
ATOM      5  C   LIG    1       24.247 -31.592   7.829  0.00  0.00    +0.066 C 
ENDROOT
BRANCH   3   6
ATOM      6  C   LIG    1       25.584 -29.329  10.456  0.00  0.00    -0.001 C 
ATOM      7  C   LIG    1       24.732 -28.955  11.506  0.00  0.00    +0.013 C 
ATOM      8  C   LIG    1       25.231 -28.247  12.601  0.00  0.00    +0.039 C 
ATOM      9  C   LIG    1       26.581 -27.926  12.650  0.00  0.00    +0.123 C 
ATOM     10  F   LIG    1       27.062 -27.255  13.705  0.00  0.00    -0.205 F 
ATOM     11  C   LIG    1       27.441 -28.285  11.619  0.00  0.00    +0.039 C 
ATOM     12  C   LIG    1       26.940 -28.977  10.516  0.00  0.00    +0.013 C 
ENDBRANCH   3   6
BRANCH   4  13
ATOM     13  C   LIG    1       23.918 -32.039  10.394  0.00  0.00    -0.015 C 
ATOM     14  C   LIG    1       22.606 -31.952  10.882  0.00  0.00    +0.008 C 
ATOM     15  C   LIG    1       22.209 -32.667  12.019  0.00  0.00    +0.001 C 
ATOM     16  C   LIG    1       23.109 -33.506  12.669  0.00  0.00    +0.000 C 
ATOM     17  C   LIG    1       24.412 -33.614  12.197  0.00  0.00    +0.001 C 
ATOM     18  C   LIG    1       24.815 -32.868  11.087  0.00  0.00    +0.008 C 
ENDBRANCH   4  13
BRANCH   5  19
ATOM     19  C   LIG    1       23.780 -32.834   7.227  0.00  0.00    +0.251 C 
ATOM     20  N   LIG    1       24.710 -33.711   6.679  0.00  0.00    -0.281 N 
ATOM     21  H   LIG    1       24.230 -34.459   6.194  0.00  0.00    +0.155 HD
ATOM     22  O   LIG    1       22.594 -33.120   7.164  0.00  0.00    -0.270 OA
BRANCH  20  23
ATOM     23  C   LIG    1       26.120 -33.763   6.676  0.00  0.00    +0.034 C 
ATOM     24  C   LIG    1       26.758 -33.773   5.429  0.00  0.00    +0.023 C 
ATOM     25  C   LIG    1       28.156 -33.781   5.330  0.00  0.00    +0.002 C 
ATOM     26  C   LIG    1       28.943 -33.767   6.478  0.00  0.00    +0.000 C 
ATOM     27  C   LIG    1       28.329 -33.795   7.718  0.00  0.00    +0.002 C 
ATOM     28  C   LIG    1       26.933 -33.825   7.808  0.00  0.00    +0.023 C 
ENDBRANCH  20  23
ENDBRANCH   5  19
BRANCH   1  30
ATOM     29  C   LIG    1       23.654 -28.944   5.386  0.00  0.00    +0.014 C 
ATOM     30  C   LIG    1       24.404 -30.256   5.608  0.00  0.00    +0.030 C 
ATOM     31  C   LIG    1       25.621 -30.380   4.701  0.00  0.00    +0.014 C 
ENDBRANCH   1  30
BRANCH   2  32
ATOM     32  C   LIG    1       26.232 -28.575   7.615  0.00  0.00    +0.124 C 
BRANCH  32  33
ATOM     33  C   LIG    1       25.517 -27.246   7.362  0.00  0.00    +0.053 C 
BRANCH  33  34
ATOM     34  C   LIG    1       26.217 -26.337   6.350  0.00  0.00    +0.119 C 
BRANCH  34  35
ATOM     35  O   LIG    1       27.103 -27.168   5.596  0.00  0.00    -0.392 OA
ATOM     36  H   LIG    1       27.802 -27.499   6.187  0.00  0.00    +0.210 HD
ENDBRANCH  34  35
BRANCH  34  37
ATOM     37  C   LIG    1       25.222 -25.670   5.391  0.00  0.00    +0.063 C 
BRANCH  37  38
ATOM     38  C   LIG    1       24.636 -24.344   5.894  0.00  0.00    +0.128 C 
BRANCH  38  39
ATOM     39  O   LIG    1       23.316 -24.556   6.412  0.00  0.00    -0.391 OA
ATOM     40  H   LIG    1       23.246 -24.106   7.277  0.00  0.00    +0.210 HD
ENDBRANCH  38  39
BRANCH  38  41
ATOM     41  C   LIG    1       25.458 -23.634   6.965  0.00  0.00    +0.151 C 
BRANCH  41  42
ATOM     42  C   LIG    1       24.874 -22.284   7.289  0.00  0.00    +0.307 C 
ATOM     43  O   LIG    1       24.824 -21.826   8.411  0.00  0.00    -0.251 OA
BRANCH  42  44
ATOM     44  O   LIG    1       24.312 -21.667   6.217  0.00  0.00    -0.481 OA
ATOM     45  H   LIG    1       23.338 -21.708   6.201  0.00  0.00    +0.295 HD
ENDBRANCH  42  44
ENDBRANCH  41  42
ENDBRANCH  38  41
ENDBRANCH  37  38
ENDBRANCH  34  37
ENDBRANCH  33  34
ENDBRANCH  32  33
ENDBRANCH   2  32
TORSDOF 15
ENDMDL
MODEL 5
REMARK VINA RESULT:      -5.7      2.807      5.222
REMARK  Name = *****
REMARK                            x       y       z     vdW  Elec       q    Type
REMARK                         _______ _______ _______ _____ _____    ______ ____
ROOT
ATOM      1  C   LIG    1       25.273 -30.854   9.107  0.00  0.00    +0.035 C 
ATOM      2  N   LIG    1       25.574 -29.601   9.614  0.00  0.00    -0.342 NA
ATOM      3  C   LIG    1       25.365 -29.583  10.992  0.00  0.00    +0.058 C 
ATOM      4  C   LIG    1       25.052 -30.890  11.385  0.00  0.00    +0.020 C 
ATOM      5  C   LIG    1       25.159 -31.703  10.206  0.00  0.00    +0.066 C 
ENDROOT
BRANCH   3   6
ATOM      6  C   LIG    1       25.574 -28.377  11.811  0.00  0.00    -0.001 C 
ATOM      7  C   LIG    1       26.841 -27.781  11.880  0.00  0.00    +0.013 C 
ATOM      8  C   LIG    1       27.049 -26.654  12.679  0.00  0.00    +0.039 C 
ATOM      9  C   LIG    1       25.986 -26.121  13.397  0.00  0.00    +0.123 C 
ATOM     10  F   LIG    1       26.182 -25.035  14.156  0.00  0.00    -0.205 F 
ATOM     11  C   LIG    1       24.723 -26.699  13.344  0.00  0.00    +0.039 C 
ATOM     12  C   LIG    1       24.519 -27.835  12.560  0.00  0.00    +0.013 C 
ENDBRANCH   3   6
BRANCH   4  13
ATOM     13  C   LIG    1       24.767 -31.302  12.770  0.00  0.00    -0.015 C 
ATOM     14  C   LIG    1       25.672 -32.086  13.499  0.00  0.00    +0.008 C 
ATOM     15  C   LIG    1       25.378 -32.506  14.802  0.00  0.00    +0.001 C 
ATOM     16  C   LIG    1       24.187 -32.122  15.410  0.00  0.00    +0.000 C 
ATOM     17  C   LIG    1       23.279 -31.338  14.709  0.00  0.00    +0.001 C 
ATOM     18  C   LIG    1       23.558 -30.955  13.395  0.00  0.00    +0.008 C 
ENDBRANCH   4  13
BRANCH   5  19
ATOM     19  C   LIG    1       25.117 -33.156  10.103  0.00  0.00    +0.251 C 
ATOM     20  N   LIG    1       23.949 -33.825  10.452  0.00  0.00    -0.281 N 
ATOM     21  H   LIG    1       24.113 -34.825  10.447  0.00  0.00    +0.155 HD
ATOM     22  O   LIG    1       26.085 -33.810   9.744  0.00  0.00    -0.270 OA
BRANCH  20  23
ATOM     23  C   LIG    1       22.644 -33.404  10.785  0.00  0.00    +0.034 C 
ATOM     24  C   LIG    1       22.132 -33.822  12.019  0.00  0.00    +0.023 C 
ATOM     25  C   LIG    1       20.861 -33.417  12.451  0.00  0.00    +0.002 C 
ATOM     26  C   LIG    1       20.084 -32.575  11.661  0.00  0.00    +0.000 C 
ATOM     27  C   LIG    1       20.560 -32.183  10.422  0.00  0.00    +0.002 C 
ATOM     28  C   LIG    1       21.813 -32.622   9.982  0.00  0.00    +0.023 C 
ENDBRANCH  20  23
ENDBRANCH   5  19
BRANCH   1  30
ATOM     29  C   LIG    1       26.381 -31.901   7.131  0.00  0.00    +0.014 C 
ATOM     30  C   LIG    1       25.103 -31.247   7.651  0.00  0.00    +0.030 C 
ATOM     31  C   LIG    1       23.862 -32.062   7.309  0.00  0.00    +0.014 C 
ENDBRANCH   1  30
BRANCH   2  32
ATOM     32  C   LIG    1       26.204 -28.509   8.870  0.00  0.00    +0.124 C 
BRANCH  32  33
ATOM     33  C   LIG    1       25.451 -28.209   7.572  0.00  0.00    +0.053 C 
BRANCH  33  34
ATOM     34  C   LIG    1       25.797 -26.859   6.941  0.00  0.00    +0.119 C 
BRANCH  34  35
ATOM     35  O   LIG    1       26.987 -27.057   6.175  0.00  0.00    -0.392 OA
ATOM     36  H   LIG    1       27.698 -26.510   6.552  0.00  0.00    +0.210 HD
ENDBRANCH  34  35
BRANCH  34  37
ATOM     37  C   LIG    1       24.684 -26.356   6.011  0.00  0.00    +0.063 C 
BRANCH  37  38
ATOM     38  C   LIG    1       24.467 -24.836   6.034  0.00  0.00    +0.128 C 
BRANCH  38  39
ATOM     39  O   LIG    1       23.133 -24.537   6.465  0.00  0.00    -0.391 OA
ATOM     40  H   LIG    1       22.772 -23.832   5.893  0.00  0.00    +0.210 HD
ENDBRANCH  38  39
BRANCH  38  41
ATOM     41  C   LIG    1       25.437 -24.053   6.914  0.00  0.00    +0.151 C 
BRANCH  41  42
ATOM     42  C   LIG    1       25.146 -22.577   6.859  0.00  0.00    +0.307 C 
ATOM     43  O   LIG    1       24.449 -22.000   7.667  0.00  0.00    -0.251 OA
BRANCH  42  44
ATOM     44  O   LIG    1       25.655 -21.966   5.757  0.00  0.00    -0.481 OA
ATOM     45  H   LIG    1       26.570 -21.647   5.869  0.00  0.00    +0.295 HD
ENDBRANCH  42  44
ENDBRANCH  41  42
ENDBRANCH  38  41
ENDBRANCH  37  38
ENDBRANCH  34  37
ENDBRANCH  33  34
ENDBRANCH  32  33
ENDBRANCH   2  32
TORSDOF 15
ENDMDL
MODEL 6
REMARK VINA RESULT:      -5.5      3.830      6.691
REMARK  Name = *****
REMARK                            x       y       z     vdW  Elec       q    Type
REMARK                         _______ _______ _______ _____ _____    ______ ____
ROOT
ATOM      1  C   LIG    1       22.620 -29.048  12.419  0.00  0.00    +0.035 C 
ATOM      2  N   LIG    1       23.069 -29.765  11.322  0.00  0.00    -0.342 NA
ATOM      3  C   LIG    1       24.423 -30.063  11.470  0.00  0.00    +0.058 C 
ATOM      4  C   LIG    1       24.806 -29.642  12.750  0.00  0.00    +0.020 C 
ATOM      5  C   LIG    1       23.616 -29.153  13.388  0.00  0.00    +0.066 C 
ENDROOT
BRANCH   3   6
ATOM      6  C   LIG    1       25.190 -30.795  10.450  0.00  0.00    -0.001 C 
ATOM      7  C   LIG    1       25.631 -30.139   9.291  0.00  0.00    +0.013 C 
ATOM      8  C   LIG    1       26.334 -30.838   8.308  0.00  0.00    +0.039 C 
ATOM      9  C   LIG    1       26.603 -32.189   8.491  0.00  0.00    +0.123 C 
ATOM     10  F   LIG    1       27.285 -32.858   7.552  0.00  0.00    -0.205 F 
ATOM     11  C   LIG    1       26.172 -32.858   9.630  0.00  0.00    +0.039 C 
ATOM     12  C   LIG    1       25.455 -32.163  10.605  0.00  0.00    +0.013 C 
ENDBRANCH   3   6
BRANCH   4  13
ATOM     13  C   LIG    1       26.162 -29.783  13.306  0.00  0.00    -0.015 C 
ATOM     14  C   LIG    1       27.265 -29.156  12.707  0.00  0.00    +0.008 C 
ATOM     15  C   LIG    1       28.557 -29.325  13.218  0.00  0.00    +0.001 C 
ATOM     16  C   LIG    1       28.766 -30.099  14.356  0.00  0.00    +0.000 C 
ATOM     17  C   LIG    1       27.686 -30.722  14.970  0.00  0.00    +0.001 C 
ATOM     18  C   LIG    1       26.404 -30.584  14.433  0.00  0.00    +0.008 C 
ENDBRANCH   4  13
BRANCH   5  19
ATOM     19  C   LIG    1       23.428 -28.774  14.783  0.00  0.00    +0.251 C 
ATOM     20  N   LIG    1       24.244 -27.790  15.331  0.00  0.00    -0.281 N 
ATOM     21  H   LIG    1       24.080 -27.726  16.328  0.00  0.00    +0.155 HD
ATOM     22  O   LIG    1       22.594 -29.311  15.496  0.00  0.00    -0.270 OA
BRANCH  20  23
ATOM     23  C   LIG    1       25.200 -26.902  14.793  0.00  0.00    +0.034 C 
ATOM     24  C   LIG    1       26.465 -26.884  15.393  0.00  0.00    +0.023 C 
ATOM     25  C   LIG    1       27.490 -26.064  14.899  0.00  0.00    +0.002 C 
ATOM     26  C   LIG    1       27.270 -25.256  13.787  0.00  0.00    +0.000 C 
ATOM     27  C   LIG    1       26.014 -25.235  13.205  0.00  0.00    +0.002 C 
ATOM     28  C   LIG    1       24.987 -26.027  13.728  0.00  0.00    +0.023 C 
ENDBRANCH  20  23
ENDBRANCH   5  19
BRANCH   1  30
ATOM     29  C   LIG    1       20.308 -29.134  13.355  0.00  0.00    +0.014 C 
ATOM     30  C   LIG    1       21.309 -28.298  12.561  0.00  0.00    +0.030 C 
ATOM     31  C   LIG    1       21.398 -26.867  13.079  0.00  0.00    +0.014 C 
ENDBRANCH   1  30
BRANCH   2  32
ATOM     32  C   LIG    1       22.226 -30.306  10.254  0.00  0.00    +0.124 C 
BRANCH  32  33
ATOM     33  C   LIG    1       21.635 -31.663  10.643  0.00  0.00    +0.053 C 
BRANCH  33  34
ATOM     34  C   LIG    1       20.134 -31.634  10.941  0.00  0.00    +0.119 C 
BRANCH  34  35
ATOM     35  O   LIG    1       19.586 -30.554  10.181  0.00  0.00    -0.392 OA
ATOM     36  H   LIG    1       19.286 -30.896   9.321  0.00  0.00    +0.210 HD
ENDBRANCH  34  35
BRANCH  34  37
ATOM     37  C   LIG    1       19.439 -32.938  10.527  0.00  0.00    +0.063 C 
BRANCH  37  38
ATOM     38  C   LIG    1       18.444 -33.490  11.556  0.00  0.00    +0.128 C 
BRANCH  38  39
ATOM     39  O   LIG    1       18.813 -33.065  12.874  0.00  0.00    -0.391 OA
ATOM     40  H   LIG    1       19.745 -32.771  12.856  0.00  0.00    +0.210 HD
ENDBRANCH  38  39
BRANCH  38  41
ATOM     41  C   LIG    1       16.986 -33.103  11.324  0.00  0.00    +0.151 C 
BRANCH  41  42
ATOM     42  C   LIG    1       16.579 -31.965  12.221  0.00  0.00    +0.307 C 
ATOM     43  O   LIG    1       15.933 -32.109  13.237  0.00  0.00    -0.251 OA
BRANCH  42  44
ATOM     44  O   LIG    1       16.915 -30.743  11.730  0.00  0.00    -0.481 OA
ATOM     45  H   LIG    1       16.534 -30.550  10.854  0.00  0.00    +0.295 HD
ENDBRANCH  42  44
ENDBRANCH  41  42
ENDBRANCH  38  41
ENDBRANCH  37  38
ENDBRANCH  34  37
ENDBRANCH  33  34
ENDBRANCH  32  33
ENDBRANCH   2  32
TORSDOF 15
ENDMDL
MODEL 7
REMARK VINA RESULT:      -5.2      3.344      6.392
REMARK  Name = *****
REMARK                            x       y       z     vdW  Elec       q    Type
REMARK                         _______ _______ _______ _____ _____    ______ ____
ROOT
ATOM      1  C   LIG    1       22.836 -32.222  12.717  0.00  0.00    +0.035 C 
ATOM      2  N   LIG    1       23.218 -32.471  11.410  0.00  0.00    -0.342 NA
ATOM      3  C   LIG    1       24.252 -31.611  11.044  0.00  0.00    +0.058 C 
ATOM      4  C   LIG    1       24.622 -30.892  12.188  0.00  0.00    +0.020 C 
ATOM      5  C   LIG    1       23.826 -31.409  13.266  0.00  0.00    +0.066 C 
ENDROOT
BRANCH   3   6
ATOM      6  C   LIG    1       24.853 -31.618   9.700  0.00  0.00    -0.001 C 
ATOM      7  C   LIG    1       25.994 -32.390   9.440  0.00  0.00    +0.013 C 
ATOM      8  C   LIG    1       26.583 -32.376   8.174  0.00  0.00    +0.039 C 
ATOM      9  C   LIG    1       26.022 -31.598   7.168  0.00  0.00    +0.123 C 
ATOM     10  F   LIG    1       26.581 -31.591   5.951  0.00  0.00    -0.205 F 
ATOM     11  C   LIG    1       24.893 -30.824   7.407  0.00  0.00    +0.039 C 
ATOM     12  C   LIG    1       24.314 -30.824   8.677  0.00  0.00    +0.013 C 
ENDBRANCH   3   6
BRANCH   4  13
ATOM     13  C   LIG    1       25.690 -29.880  12.230  0.00  0.00    -0.015 C 
ATOM     14  C   LIG    1       25.595 -28.687  11.499  0.00  0.00    +0.008 C 
ATOM     15  C   LIG    1       26.630 -27.745  11.513  0.00  0.00    +0.001 C 
ATOM     16  C   LIG    1       27.767 -27.964  12.286  0.00  0.00    +0.000 C 
ATOM     17  C   LIG    1       27.879 -29.135  13.026  0.00  0.00    +0.001 C 
ATOM     18  C   LIG    1       26.861 -30.091  12.976  0.00  0.00    +0.008 C 
ENDBRANCH   4  13
BRANCH   5  19
ATOM     19  C   LIG    1       23.949 -31.138  14.692  0.00  0.00    +0.251 C 
ATOM     20  N   LIG    1       23.787 -29.834  15.148  0.00  0.00    -0.281 N 
ATOM     21  H   LIG    1       24.023 -29.784  16.132  0.00  0.00    +0.155 HD
ATOM     22  O   LIG    1       24.216 -32.015  15.500  0.00  0.00    -0.270 OA
BRANCH  20  23
ATOM     23  C   LIG    1       23.371 -28.630  14.540  0.00  0.00    +0.034 C 
ATOM     24  C   LIG    1       24.226 -27.527  14.652  0.00  0.00    +0.023 C 
ATOM     25  C   LIG    1       23.913 -26.303  14.043  0.00  0.00    +0.002 C 
ATOM     26  C   LIG    1       22.745 -26.165  13.301  0.00  0.00    +0.000 C 
ATOM     27  C   LIG    1       21.870 -27.235  13.212  0.00  0.00    +0.002 C 
ATOM     28  C   LIG    1       22.172 -28.440  13.853  0.00  0.00    +0.023 C 
ENDBRANCH  20  23
ENDBRANCH   5  19
BRANCH   1  30
ATOM     29  C   LIG    1       21.970 -33.825  14.423  0.00  0.00    +0.014 C 
ATOM     30  C   LIG    1       21.595 -32.726  13.431  0.00  0.00    +0.030 C 
ATOM     31  C   LIG    1       20.697 -31.669  14.060  0.00  0.00    +0.014 C 
ENDBRANCH   1  30
BRANCH   2  32
ATOM     32  C   LIG    1       22.758 -33.590  10.585  0.00  0.00    +0.124 C 
BRANCH  32  33
ATOM     33  C   LIG    1       21.563 -33.190   9.717  0.00  0.00    +0.053 C 
BRANCH  33  34
ATOM     34  C   LIG    1       20.651 -32.137  10.348  0.00  0.00    +0.119 C 
BRANCH  34  35
ATOM     35  O   LIG    1       21.110 -30.865   9.885  0.00  0.00    -0.392 OA
ATOM     36  H   LIG    1       21.692 -31.001   9.118  0.00  0.00    +0.210 HD
ENDBRANCH  34  35
BRANCH  34  37
ATOM     37  C   LIG    1       19.185 -32.319   9.931  0.00  0.00    +0.063 C 
BRANCH  37  38
ATOM     38  C   LIG    1       18.211 -31.305  10.546  0.00  0.00    +0.128 C 
BRANCH  38  39
ATOM     39  O   LIG    1       17.620 -30.504   9.515  0.00  0.00    -0.391 OA
ATOM     40  H   LIG    1       18.336 -30.074   9.007  0.00  0.00    +0.210 HD
ENDBRANCH  38  39
BRANCH  38  41
ATOM     41  C   LIG    1       17.086 -31.908  11.383  0.00  0.00    +0.151 C 
BRANCH  41  42
ATOM     42  C   LIG    1       16.960 -31.203  12.707  0.00  0.00    +0.307 C 
ATOM     43  O   LIG    1       16.149 -31.510  13.556  0.00  0.00    -0.251 OA
BRANCH  42  44
ATOM     44  O   LIG    1       17.773 -30.120  12.823  0.00  0.00    -0.481 OA
ATOM     45  H   LIG    1       18.205 -29.859  11.990  0.00  0.00    +0.295 HD
ENDBRANCH  42  44
ENDBRANCH  41  42
ENDBRANCH  38  41
ENDBRANCH  37  38
ENDBRANCH  34  37
ENDBRANCH  33  34
ENDBRANCH  32  33
ENDBRANCH   2  32
TORSDOF 15
ENDMDL
MODEL 8
REMARK VINA RESULT:      -5.1      3.540      6.178
REMARK  Name = *****
REMARK                            x       y       z     vdW  Elec       q    Type
REMARK                         _______ _______ _______ _____ _____    ______ ____
ROOT
ATOM      1  C   LIG    1       24.044 -31.737  13.430  0.00  0.00    +0.035 C 
ATOM      2  N   LIG    1       24.624 -31.494  12.196  0.00  0.00    -0.342 NA
ATOM      3  C   LIG    1       23.672 -31.634  11.187  0.00  0.00    +0.058 C 
ATOM      4  C   LIG    1       22.433 -31.838  11.807  0.00  0.00    +0.020 C 
ATOM      5  C   LIG    1       22.666 -31.738  13.221  0.00  0.00    +0.066 C 
ENDROOT
BRANCH   3   6
ATOM      6  C   LIG    1       23.996 -31.465   9.761  0.00  0.00    -0.001 C 
ATOM      7  C   LIG    1       24.564 -32.521   9.035  0.00  0.00    +0.013 C 
ATOM      8  C   LIG    1       24.900 -32.353   7.690  0.00  0.00    +0.039 C 
ATOM      9  C   LIG    1       24.655 -31.133   7.072  0.00  0.00    +0.123 C 
ATOM     10  F   LIG    1       24.968 -30.974   5.780  0.00  0.00    -0.205 F 
ATOM     11  C   LIG    1       24.095 -30.073   7.775  0.00  0.00    +0.039 C 
ATOM     12  C   LIG    1       23.776 -30.235   9.124  0.00  0.00    +0.013 C 
ENDBRANCH   3   6
BRANCH   4  13
ATOM     13  C   LIG    1       21.160 -32.024  11.091  0.00  0.00    -0.015 C 
ATOM     14  C   LIG    1       20.311 -30.942  10.819  0.00  0.00    +0.008 C 
ATOM     15  C   LIG    1       19.083 -31.131  10.172  0.00  0.00    +0.001 C 
ATOM     16  C   LIG    1       18.699 -32.403   9.756  0.00  0.00    +0.000 C 
ATOM     17  C   LIG    1       19.529 -33.488  10.008  0.00  0.00    +0.001 C 
ATOM     18  C   LIG    1       20.734 -33.301  10.691  0.00  0.00    +0.008 C 
ENDBRANCH   4  13
BRANCH   5  19
ATOM     19  C   LIG    1       21.687 -31.687  14.298  0.00  0.00    +0.251 C 
ATOM     20  N   LIG    1       21.216 -30.450  14.726  0.00  0.00    -0.281 N 
ATOM     21  H   LIG    1       20.644 -30.569  15.553  0.00  0.00    +0.155 HD
ATOM     22  O   LIG    1       21.283 -32.696  14.858  0.00  0.00    -0.270 OA
BRANCH  20  23
ATOM     23  C   LIG    1       21.365 -29.130  14.250  0.00  0.00    +0.034 C 
ATOM     24  C   LIG    1       22.560 -28.469  14.560  0.00  0.00    +0.023 C 
ATOM     25  C   LIG    1       22.813 -27.171  14.093  0.00  0.00    +0.002 C 
ATOM     26  C   LIG    1       21.879 -26.516  13.297  0.00  0.00    +0.000 C 
ATOM     27  C   LIG    1       20.677 -27.141  13.012  0.00  0.00    +0.002 C 
ATOM     28  C   LIG    1       20.417 -28.421  13.513  0.00  0.00    +0.023 C 
ENDBRANCH  20  23
ENDBRANCH   5  19
BRANCH   1  30
ATOM     29  C   LIG    1       25.805 -33.049  14.617  0.00  0.00    +0.014 C 
ATOM     30  C   LIG    1       24.748 -31.954  14.757  0.00  0.00    +0.030 C 
ATOM     31  C   LIG    1       25.299 -30.711  15.445  0.00  0.00    +0.014 C 
ENDBRANCH   1  30
BRANCH   2  32
ATOM     32  C   LIG    1       25.976 -30.977  11.976  0.00  0.00    +0.124 C 
BRANCH  32  33
ATOM     33  C   LIG    1       25.955 -29.484  11.638  0.00  0.00    +0.053 C 
BRANCH  33  34
ATOM     34  C   LIG    1       26.983 -28.651  12.408  0.00  0.00    +0.119 C 
BRANCH  34  35
ATOM     35  O   LIG    1       26.393 -28.335  13.670  0.00  0.00    -0.392 OA
ATOM     36  H   LIG    1       27.092 -28.309  14.346  0.00  0.00    +0.210 HD
ENDBRANCH  34  35
BRANCH  34  37
ATOM     37  C   LIG    1       28.287 -29.424  12.647  0.00  0.00    +0.063 C 
BRANCH  37  38
ATOM     38  C   LIG    1       28.686 -29.570  14.122  0.00  0.00    +0.128 C 
BRANCH  38  39
ATOM     39  O   LIG    1       28.643 -30.949  14.508  0.00  0.00    -0.391 OA
ATOM     40  H   LIG    1       27.727 -31.273  14.401  0.00  0.00    +0.210 HD
ENDBRANCH  38  39
BRANCH  38  41
ATOM     41  C   LIG    1       30.063 -29.018  14.481  0.00  0.00    +0.151 C 
BRANCH  41  42
ATOM     42  C   LIG    1       31.123 -30.079  14.344  0.00  0.00    +0.307 C 
ATOM     43  O   LIG    1       31.674 -30.345  13.297  0.00  0.00    -0.251 OA
BRANCH  42  44
ATOM     44  O   LIG    1       31.333 -30.784  15.487  0.00  0.00    -0.481 OA
ATOM     45  H   LIG    1       31.043 -30.323  16.295  0.00  0.00    +0.295 HD
ENDBRANCH  42  44
ENDBRANCH  41  42
ENDBRANCH  38  41
ENDBRANCH  37  38
ENDBRANCH  34  37
ENDBRANCH  33  34
ENDBRANCH  32  33
ENDBRANCH   2  32
TORSDOF 15
ENDMDL
MODEL 9
REMARK VINA RESULT:      -4.7      2.954      5.071
REMARK  Name = *****
REMARK                            x       y       z     vdW  Elec       q    Type
REMARK                         _______ _______ _______ _____ _____    ______ ____
ROOT
ATOM      1  C   LIG    1       22.148 -32.321  12.341  0.00  0.00    +0.035 C 
ATOM      2  N   LIG    1       22.958 -32.670  11.273  0.00  0.00    -0.342 NA
ATOM      3  C   LIG    1       24.245 -32.174  11.471  0.00  0.00    +0.058 C 
ATOM      4  C   LIG    1       24.285 -31.614  12.754  0.00  0.00    +0.020 C 
ATOM      5  C   LIG    1       23.000 -31.862  13.344  0.00  0.00    +0.066 C 
ENDROOT
BRANCH   3   6
ATOM      6  C   LIG    1       25.327 -32.360  10.490  0.00  0.00    -0.001 C 
ATOM      7  C   LIG    1       25.928 -31.250   9.880  0.00  0.00    +0.013 C 
ATOM      8  C   LIG    1       26.934 -31.425   8.928  0.00  0.00    +0.039 C 
ATOM      9  C   LIG    1       27.344 -32.711   8.596  0.00  0.00    +0.123 C 
ATOM     10  F   LIG    1       28.314 -32.879   7.689  0.00  0.00    -0.205 F 
ATOM     11  C   LIG    1       26.759 -33.824   9.187  0.00  0.00    +0.039 C 
ATOM     12  C   LIG    1       25.741 -33.650  10.126  0.00  0.00    +0.013 C 
ENDBRANCH   3   6
BRANCH   4  13
ATOM     13  C   LIG    1       25.473 -30.986  13.356  0.00  0.00    -0.015 C 
ATOM     14  C   LIG    1       26.283 -31.679  14.267  0.00  0.00    +0.008 C 
ATOM     15  C   LIG    1       27.389 -31.064  14.865  0.00  0.00    +0.001 C 
ATOM     16  C   LIG    1       27.724 -29.753  14.538  0.00  0.00    +0.000 C 
ATOM     17  C   LIG    1       26.941 -29.050  13.631  0.00  0.00    +0.001 C 
ATOM     18  C   LIG    1       25.814 -29.655  13.068  0.00  0.00    +0.008 C 
ENDBRANCH   4  13
BRANCH   5  19
ATOM     19  C   LIG    1       22.582 -31.651  14.724  0.00  0.00    +0.251 C 
ATOM     20  N   LIG    1       22.406 -30.351  15.185  0.00  0.00    -0.281 N 
ATOM     21  H   LIG    1       22.239 -30.362  16.184  0.00  0.00    +0.155 HD
ATOM     22  O   LIG    1       22.406 -32.579  15.499  0.00  0.00    -0.270 OA
BRANCH  20  23
ATOM     23  C   LIG    1       22.404 -29.085  14.563  0.00  0.00    +0.034 C 
ATOM     24  C   LIG    1       23.279 -28.119  15.074  0.00  0.00    +0.023 C 
ATOM     25  C   LIG    1       23.377 -26.847  14.492  0.00  0.00    +0.002 C 
ATOM     26  C   LIG    1       22.608 -26.523  13.378  0.00  0.00    +0.000 C 
ATOM     27  C   LIG    1       21.711 -27.454  12.882  0.00  0.00    +0.002 C 
ATOM     28  C   LIG    1       21.593 -28.707  13.493  0.00  0.00    +0.023 C 
ENDBRANCH  20  23
ENDBRANCH   5  19
BRANCH   1  30
ATOM     29  C   LIG    1       19.992 -31.388  11.498  0.00  0.00    +0.014 C 
ATOM     30  C   LIG    1       20.636 -32.417  12.425  0.00  0.00    +0.030 C 
ATOM     31  C   LIG    1       20.032 -33.805  12.247  0.00  0.00    +0.014 C 
ENDBRANCH   1  30
BRANCH   2  32
ATOM     32  C   LIG    1       22.593 -33.584  10.189  0.00  0.00    +0.124 C 
BRANCH  32  33
ATOM     33  C   LIG    1       22.159 -32.820   8.936  0.00  0.00    +0.053 C 
BRANCH  33  34
ATOM     34  C   LIG    1       23.193 -32.819   7.809  0.00  0.00    +0.119 C 
BRANCH  34  35
ATOM     35  O   LIG    1       22.566 -33.420   6.675  0.00  0.00    -0.392 OA
ATOM     36  H   LIG    1       21.732 -32.954   6.493  0.00  0.00    +0.210 HD
ENDBRANCH  34  35
BRANCH  34  37
ATOM     37  C   LIG    1       23.638 -31.398   7.438  0.00  0.00    +0.063 C 
BRANCH  37  38
ATOM     38  C   LIG    1       23.804 -31.150   5.932  0.00  0.00    +0.128 C 
BRANCH  38  39
ATOM     39  O   LIG    1       23.257 -29.873   5.582  0.00  0.00    -0.391 OA
ATOM     40  H   LIG    1       22.331 -29.836   5.893  0.00  0.00    +0.210 HD
ENDBRANCH  38  39
BRANCH  38  41
ATOM     41  C   LIG    1       25.240 -31.209   5.418  0.00  0.00    +0.151 C 
BRANCH  41  42
ATOM     42  C   LIG    1       25.404 -32.303   4.397  0.00  0.00    +0.307 C 
ATOM     43  O   LIG    1       26.347 -32.377   3.638  0.00  0.00    -0.251 OA
BRANCH  42  44
ATOM     44  O   LIG    1       24.342 -33.148   4.335  0.00  0.00    -0.481 OA
ATOM     45  H   LIG    1       23.521 -32.730   4.018  0.00  0.00    +0.295 HD
ENDBRANCH  42  44
ENDBRANCH  41  42
ENDBRANCH  38  41
ENDBRANCH  37  38
ENDBRANCH  34  37
ENDBRANCH  33  34
ENDBRANCH  32  33
ENDBRANCH   2  32
TORSDOF 15
ENDMDL
