MODEL 1
REMARK VINA RESULT:      -9.3      0.000      0.000
REMARK  Name = *****
REMARK                            x       y       z     vdW  Elec       q    Type
REMARK                         _______ _______ _______ _____ _____    ______ ____
ROOT
ATOM      1  C   LIG    1       24.630 -22.394   7.290  0.00  0.00    +0.139 C 
ENDROOT
BRANCH   1   2
ATOM      2  C   LIG    1       24.793 -23.838   6.830  0.00  0.00    -0.028 A 
ATOM      3  C   LIG    1       23.697 -24.619   6.432  0.00  0.00    +0.005 A 
ATOM      4  C   LIG    1       23.872 -25.920   5.960  0.00  0.00    +0.000 A 
ATOM      5  C   LIG    1       25.148 -26.465   5.872  0.00  0.00    +0.000 A 
ATOM      6  C   LIG    1       26.251 -25.713   6.268  0.00  0.00    +0.000 A 
ATOM      7  C   LIG    1       26.074 -24.414   6.752  0.00  0.00    +0.005 A 
ENDBRANCH   1   2
BRANCH   1   8
ATOM      8  C   LIG    1       24.157 -21.431   6.193  0.00  0.00    -0.028 A 
ATOM      9  C   LIG    1       23.130 -20.506   6.464  0.00  0.00    +0.005 A 
ATOM     10  C   LIG    1       22.686 -19.614   5.481  0.00  0.00    +0.000 A 
ATOM     11  C   LIG    1       23.253 -19.632   4.210  0.00  0.00    +0.000 A 
ATOM     12  C   LIG    1       24.265 -20.540   3.921  0.00  0.00    +0.000 A 
ATOM     13  C   LIG    1       24.712 -21.429   4.902  0.00  0.00    +0.005 A 
ENDBRANCH   1   8
BRANCH   1  14
ATOM     14  S   LIG    1       26.107 -21.716   8.198  0.00  0.00    +0.043 S 
ATOM     15  O   LIG    1       25.673 -21.109   9.503  0.00  0.00    -0.256 OA
BRANCH  14  16
ATOM     16  C   LIG    1       26.556 -20.349   7.097  0.00  0.00    +0.200 C 
BRANCH  16  20
ATOM     17  N   LIG    1       28.067 -19.982   5.219  0.00  0.00    -0.329 N 
ATOM     18  H   LIG    1       27.383 -19.380   4.774  0.00  0.00    +0.145 HD
ATOM     19  H   LIG    1       28.976 -20.078   4.783  0.00  0.00    +0.145 HD
ATOM     20  C   LIG    1       27.905 -20.533   6.451  0.00  0.00    +0.223 C 
ATOM     21  O   LIG    1       28.845 -21.144   6.959  0.00  0.00    -0.275 OA
ENDBRANCH  16  20
ENDBRANCH  14  16
ENDBRANCH   1  14
TORSDOF 5
ENDMDL
MODEL 2
REMARK VINA RESULT:      -8.7      1.072      4.499
REMARK  Name = *****
REMARK                            x       y       z     vdW  Elec       q    Type
REMARK                         _______ _______ _______ _____ _____    ______ ____
ROOT
ATOM      1  C   LIG    1       25.738 -21.839   6.462  0.00  0.00    +0.139 C 
ENDROOT
BRANCH   1   2
ATOM      2  C   LIG    1       24.850 -20.867   5.694  0.00  0.00    -0.028 A 
ATOM      3  C   LIG    1       25.280 -20.244   4.512  0.00  0.00    +0.005 A 
ATOM      4  C   LIG    1       24.434 -19.402   3.792  0.00  0.00    +0.000 A 
ATOM      5  C   LIG    1       23.137 -19.169   4.237  0.00  0.00    +0.000 A 
ATOM      6  C   LIG    1       22.690 -19.769   5.411  0.00  0.00    +0.000 A 
ATOM      7  C   LIG    1       23.542 -20.604   6.138  0.00  0.00    +0.005 A 
ENDBRANCH   1   2
BRANCH   1   8
ATOM      8  C   LIG    1       25.250 -23.293   6.441  0.00  0.00    -0.028 A 
ATOM      9  C   LIG    1       26.182 -24.349   6.438  0.00  0.00    +0.005 A 
ATOM     10  C   LIG    1       25.760 -25.684   6.424  0.00  0.00    +0.000 A 
ATOM     11  C   LIG    1       24.401 -25.989   6.408  0.00  0.00    +0.000 A 
ATOM     12  C   LIG    1       23.465 -24.962   6.406  0.00  0.00    +0.000 A 
ATOM     13  C   LIG    1       23.886 -23.629   6.423  0.00  0.00    +0.005 A 
ENDBRANCH   1   8
BRANCH   1  14
ATOM     14  S   LIG    1       26.149 -21.286   8.192  0.00  0.00    +0.043 S 
ATOM     15  O   LIG    1       25.042 -20.424   8.731  0.00  0.00    -0.256 OA
BRANCH  14  16
ATOM     16  C   LIG    1       27.555 -20.196   7.850  0.00  0.00    +0.200 C 
BRANCH  16  20
ATOM     17  N   LIG    1       29.248 -21.092   6.341  0.00  0.00    -0.329 N 
ATOM     18  H   LIG    1       28.798 -20.639   5.553  0.00  0.00    +0.145 HD
ATOM     19  H   LIG    1       30.124 -21.575   6.181  0.00  0.00    +0.145 HD
ATOM     20  C   LIG    1       28.843 -20.949   7.631  0.00  0.00    +0.223 C 
ATOM     21  O   LIG    1       29.530 -21.434   8.529  0.00  0.00    -0.275 OA
ENDBRANCH  16  20
ENDBRANCH  14  16
ENDBRANCH   1  14
TORSDOF 5
ENDMDL
MODEL 3
REMARK VINA RESULT:      -8.5      2.262      4.702
REMARK  Name = *****
REMARK                            x       y       z     vdW  Elec       q    Type
REMARK                         _______ _______ _______ _____ _____    ______ ____
ROOT
ATOM      1  C   LIG    1       25.875 -21.318   6.162  0.00  0.00    +0.139 C 
ENDROOT
BRANCH   1   2
ATOM      2  C   LIG    1       27.113 -20.510   6.535  0.00  0.00    -0.028 A 
ATOM      3  C   LIG    1       27.526 -20.359   7.868  0.00  0.00    +0.005 A 
ATOM      4  C   LIG    1       28.693 -19.664   8.186  0.00  0.00    +0.000 A 
ATOM      5  C   LIG    1       29.473 -19.109   7.176  0.00  0.00    +0.000 A 
ATOM      6  C   LIG    1       29.079 -19.239   5.847  0.00  0.00    +0.000 A 
ATOM      7  C   LIG    1       27.904 -19.925   5.530  0.00  0.00    +0.005 A 
ENDBRANCH   1   2
BRANCH   1   8
ATOM      8  C   LIG    1       24.776 -20.504   5.465  0.00  0.00    -0.028 A 
ATOM      9  C   LIG    1       23.509 -20.375   6.064  0.00  0.00    +0.005 A 
ATOM     10  C   LIG    1       22.493 -19.634   5.449  0.00  0.00    +0.000 A 
ATOM     11  C   LIG    1       22.722 -19.013   4.224  0.00  0.00    +0.000 A 
ATOM     12  C   LIG    1       23.965 -19.131   3.614  0.00  0.00    +0.000 A 
ATOM     13  C   LIG    1       24.980 -19.869   4.228  0.00  0.00    +0.005 A 
ENDBRANCH   1   8
BRANCH   1  14
ATOM     14  S   LIG    1       25.183 -22.335   7.559  0.00  0.00    +0.043 S 
ATOM     15  O   LIG    1       26.100 -22.266   8.748  0.00  0.00    -0.256 OA
BRANCH  14  16
ATOM     16  C   LIG    1       25.348 -23.996   6.854  0.00  0.00    +0.200 C 
BRANCH  16  20
ATOM     17  N   LIG    1       24.113 -25.449   5.334  0.00  0.00    -0.329 N 
ATOM     18  H   LIG    1       24.983 -25.826   4.973  0.00  0.00    +0.145 HD
ATOM     19  H   LIG    1       23.243 -25.851   5.006  0.00  0.00    +0.145 HD
ATOM     20  C   LIG    1       24.040 -24.556   6.357  0.00  0.00    +0.223 C 
ATOM     21  O   LIG    1       22.935 -24.256   6.808  0.00  0.00    -0.275 OA
ENDBRANCH  16  20
ENDBRANCH  14  16
ENDBRANCH   1  14
TORSDOF 5
ENDMDL
MODEL 4
REMARK VINA RESULT:      -8.5      2.634      4.780
REMARK  Name = *****
REMARK                            x       y       z     vdW  Elec       q    Type
REMARK                         _______ _______ _______ _____ _____    ______ ____
ROOT
ATOM      1  C   LIG    1       25.809 -21.393   5.629  0.00  0.00    +0.139 C 
ENDROOT
BRANCH   1   2
ATOM      2  C   LIG    1       26.920 -20.680   6.391  0.00  0.00    -0.028 A 
ATOM      3  C   LIG    1       26.911 -20.573   7.790  0.00  0.00    +0.005 A 
ATOM      4  C   LIG    1       27.965 -19.965   8.473  0.00  0.00    +0.000 A 
ATOM      5  C   LIG    1       29.052 -19.456   7.770  0.00  0.00    +0.000 A 
ATOM      6  C   LIG    1       29.080 -19.543   6.381  0.00  0.00    +0.000 A 
ATOM      7  C   LIG    1       28.018 -20.141   5.696  0.00  0.00    +0.005 A 
ENDBRANCH   1   2
BRANCH   1   8
ATOM      8  C   LIG    1       24.668 -20.477   5.171  0.00  0.00    -0.028 A 
ATOM      9  C   LIG    1       24.822 -19.684   4.017  0.00  0.00    +0.005 A 
ATOM     10  C   LIG    1       23.792 -18.844   3.576  0.00  0.00    +0.000 A 
ATOM     11  C   LIG    1       22.594 -18.776   4.281  0.00  0.00    +0.000 A 
ATOM     12  C   LIG    1       22.423 -19.546   5.425  0.00  0.00    +0.000 A 
ATOM     13  C   LIG    1       23.449 -20.387   5.864  0.00  0.00    +0.005 A 
ENDBRANCH   1   8
BRANCH   1  14
ATOM     14  S   LIG    1       25.157 -22.912   6.486  0.00  0.00    +0.043 S 
ATOM     15  O   LIG    1       26.274 -23.614   7.207  0.00  0.00    -0.256 OA
BRANCH  14  16
ATOM     16  C   LIG    1       24.730 -23.928   5.048  0.00  0.00    +0.200 C 
BRANCH  16  20
ATOM     17  N   LIG    1       24.272 -26.010   6.232  0.00  0.00    -0.329 N 
ATOM     18  H   LIG    1       23.504 -25.570   6.727  0.00  0.00    +0.145 HD
ATOM     19  H   LIG    1       24.427 -27.001   6.372  0.00  0.00    +0.145 HD
ATOM     20  C   LIG    1       25.002 -25.395   5.263  0.00  0.00    +0.223 C 
ATOM     21  O   LIG    1       25.828 -26.053   4.632  0.00  0.00    -0.275 OA
ENDBRANCH  16  20
ENDBRANCH  14  16
ENDBRANCH   1  14
TORSDOF 5
ENDMDL
MODEL 5
REMARK VINA RESULT:      -7.9      2.269      5.116
REMARK  Name = *****
REMARK                            x       y       z     vdW  Elec       q    Type
REMARK                         _______ _______ _______ _____ _____    ______ ____
ROOT
ATOM      1  C   LIG    1       25.447 -20.969   7.182  0.00  0.00    +0.139 C 
ENDROOT
BRANCH   1   2
ATOM      2  C   LIG    1       24.523 -20.615   6.023  0.00  0.00    -0.028 A 
ATOM      3  C   LIG    1       23.240 -20.085   6.231  0.00  0.00    +0.005 A 
ATOM      4  C   LIG    1       22.430 -19.714   5.157  0.00  0.00    +0.000 A 
ATOM      5  C   LIG    1       22.890 -19.862   3.852  0.00  0.00    +0.000 A 
ATOM      6  C   LIG    1       24.155 -20.393   3.620  0.00  0.00    +0.000 A 
ATOM      7  C   LIG    1       24.962 -20.776   4.696  0.00  0.00    +0.005 A 
ENDBRANCH   1   2
BRANCH   1   8
ATOM      8  C   LIG    1       26.867 -20.403   7.054  0.00  0.00    -0.028 A 
ATOM      9  C   LIG    1       27.347 -19.985   5.799  0.00  0.00    +0.005 A 
ATOM     10  C   LIG    1       28.638 -19.460   5.659  0.00  0.00    +0.000 A 
ATOM     11  C   LIG    1       29.473 -19.347   6.767  0.00  0.00    +0.000 A 
ATOM     12  C   LIG    1       29.019 -19.758   8.015  0.00  0.00    +0.000 A 
ATOM     13  C   LIG    1       27.730 -20.280   8.156  0.00  0.00    +0.005 A 
ENDBRANCH   1   8
BRANCH   1  14
ATOM     14  S   LIG    1       25.475 -22.782   7.604  0.00  0.00    +0.043 S 
ATOM     15  O   LIG    1       26.603 -23.460   6.878  0.00  0.00    -0.256 OA
BRANCH  14  16
ATOM     16  C   LIG    1       23.935 -23.316   6.812  0.00  0.00    +0.200 C 
BRANCH  16  20
ATOM     17  N   LIG    1       24.704 -24.454   4.797  0.00  0.00    -0.329 N 
ATOM     18  H   LIG    1       25.137 -23.598   4.468  0.00  0.00    +0.145 HD
ATOM     19  H   LIG    1       24.840 -25.299   4.256  0.00  0.00    +0.145 HD
ATOM     20  C   LIG    1       24.096 -24.580   6.007  0.00  0.00    +0.223 C 
ATOM     21  O   LIG    1       23.714 -25.692   6.369  0.00  0.00    -0.275 OA
ENDBRANCH  16  20
ENDBRANCH  14  16
ENDBRANCH   1  14
TORSDOF 5
ENDMDL
MODEL 6
REMARK VINA RESULT:      -7.6      2.456      5.066
REMARK  Name = *****
REMARK                            x       y       z     vdW  Elec       q    Type
REMARK                         _______ _______ _______ _____ _____    ______ ____
ROOT
ATOM      1  C   LIG    1       25.529 -21.879   7.632  0.00  0.00    +0.139 C 
ENDROOT
BRANCH   1   2
ATOM      2  C   LIG    1       26.883 -21.304   7.233  0.00  0.00    -0.028 A 
ATOM      3  C   LIG    1       27.031 -20.454   6.127  0.00  0.00    +0.005 A 
ATOM      4  C   LIG    1       28.268 -19.892   5.809  0.00  0.00    +0.000 A 
ATOM      5  C   LIG    1       29.382 -20.167   6.596  0.00  0.00    +0.000 A 
ATOM      6  C   LIG    1       29.262 -21.014   7.694  0.00  0.00    +0.000 A 
ATOM      7  C   LIG    1       28.025 -21.586   8.004  0.00  0.00    +0.005 A 
ENDBRANCH   1   2
BRANCH   1   8
ATOM      8  C   LIG    1       25.239 -23.272   7.057  0.00  0.00    -0.028 A 
ATOM      9  C   LIG    1       23.909 -23.696   6.878  0.00  0.00    +0.005 A 
ATOM     10  C   LIG    1       23.620 -24.961   6.350  0.00  0.00    +0.000 A 
ATOM     11  C   LIG    1       24.653 -25.825   5.997  0.00  0.00    +0.000 A 
ATOM     12  C   LIG    1       25.974 -25.427   6.170  0.00  0.00    +0.000 A 
ATOM     13  C   LIG    1       26.262 -24.164   6.694  0.00  0.00    +0.005 A 
ENDBRANCH   1   8
BRANCH   1  14
ATOM     14  S   LIG    1       24.100 -20.719   7.353  0.00  0.00    +0.043 S 
ATOM     15  O   LIG    1       22.843 -21.305   7.934  0.00  0.00    -0.256 OA
BRANCH  14  16
ATOM     16  C   LIG    1       23.953 -20.824   5.551  0.00  0.00    +0.200 C 
BRANCH  16  20
ATOM     17  N   LIG    1       21.720 -21.569   4.917  0.00  0.00    -0.329 N 
ATOM     18  H   LIG    1       21.937 -22.511   5.222  0.00  0.00    +0.145 HD
ATOM     19  H   LIG    1       20.776 -21.371   4.607  0.00  0.00    +0.145 HD
ATOM     20  C   LIG    1       22.564 -20.513   5.055  0.00  0.00    +0.223 C 
ATOM     21  O   LIG    1       22.160 -19.386   4.771  0.00  0.00    -0.275 OA
ENDBRANCH  16  20
ENDBRANCH  14  16
ENDBRANCH   1  14
TORSDOF 5
ENDMDL
MODEL 7
REMARK VINA RESULT:      -7.6      2.610      5.304
REMARK  Name = *****
REMARK                            x       y       z     vdW  Elec       q    Type
REMARK                         _______ _______ _______ _____ _____    ______ ____
ROOT
ATOM      1  C   LIG    1       24.286 -22.383   6.716  0.00  0.00    +0.139 C 
ENDROOT
BRANCH   1   2
ATOM      2  C   LIG    1       25.479 -21.503   7.073  0.00  0.00    -0.028 A 
ATOM      3  C   LIG    1       25.736 -21.101   8.392  0.00  0.00    +0.005 A 
ATOM      4  C   LIG    1       26.863 -20.342   8.709  0.00  0.00    +0.000 A 
ATOM      5  C   LIG    1       27.759 -19.974   7.710  0.00  0.00    +0.000 A 
ATOM      6  C   LIG    1       27.521 -20.353   6.392  0.00  0.00    +0.000 A 
ATOM      7  C   LIG    1       26.385 -21.103   6.074  0.00  0.00    +0.005 A 
ENDBRANCH   1   2
BRANCH   1   8
ATOM      8  C   LIG    1       24.621 -23.874   6.577  0.00  0.00    -0.028 A 
ATOM      9  C   LIG    1       25.900 -24.344   6.931  0.00  0.00    +0.005 A 
ATOM     10  C   LIG    1       26.226 -25.701   6.818  0.00  0.00    +0.000 A 
ATOM     11  C   LIG    1       25.285 -26.611   6.344  0.00  0.00    +0.000 A 
ATOM     12  C   LIG    1       24.018 -26.167   5.985  0.00  0.00    +0.000 A 
ATOM     13  C   LIG    1       23.691 -24.813   6.100  0.00  0.00    +0.005 A 
ENDBRANCH   1   8
BRANCH   1  14
ATOM     14  S   LIG    1       23.299 -21.771   5.261  0.00  0.00    +0.043 S 
ATOM     15  O   LIG    1       24.160 -21.751   4.029  0.00  0.00    -0.256 OA
BRANCH  14  16
ATOM     16  C   LIG    1       23.039 -20.048   5.757  0.00  0.00    +0.200 C 
BRANCH  16  20
ATOM     17  N   LIG    1       23.915 -18.965   3.756  0.00  0.00    -0.329 N 
ATOM     18  H   LIG    1       24.769 -19.506   3.825  0.00  0.00    +0.145 HD
ATOM     19  H   LIG    1       23.792 -18.363   2.950  0.00  0.00    +0.145 HD
ATOM     20  C   LIG    1       22.848 -19.121   4.584  0.00  0.00    +0.223 C 
ATOM     21  O   LIG    1       21.809 -18.509   4.340  0.00  0.00    -0.275 OA
ENDBRANCH  16  20
ENDBRANCH  14  16
ENDBRANCH   1  14
TORSDOF 5
ENDMDL
MODEL 8
REMARK VINA RESULT:      -7.5      2.477      5.308
REMARK  Name = *****
REMARK                            x       y       z     vdW  Elec       q    Type
REMARK                         _______ _______ _______ _____ _____    ______ ____
ROOT
ATOM      1  C   LIG    1       25.108 -20.882   6.990  0.00  0.00    +0.139 C 
ENDROOT
BRANCH   1   2
ATOM      2  C   LIG    1       24.320 -20.285   5.829  0.00  0.00    -0.028 A 
ATOM      3  C   LIG    1       24.935 -19.931   4.619  0.00  0.00    +0.005 A 
ATOM      4  C   LIG    1       24.189 -19.439   3.548  0.00  0.00    +0.000 A 
ATOM      5  C   LIG    1       22.810 -19.295   3.665  0.00  0.00    +0.000 A 
ATOM      6  C   LIG    1       22.178 -19.631   4.859  0.00  0.00    +0.000 A 
ATOM      7  C   LIG    1       22.928 -20.113   5.936  0.00  0.00    +0.005 A 
ENDBRANCH   1   2
BRANCH   1   8
ATOM      8  C   LIG    1       26.595 -20.506   7.003  0.00  0.00    -0.028 A 
ATOM      9  C   LIG    1       27.290 -20.341   5.790  0.00  0.00    +0.005 A 
ATOM     10  C   LIG    1       28.646 -19.993   5.778  0.00  0.00    +0.000 A 
ATOM     11  C   LIG    1       29.334 -19.808   6.974  0.00  0.00    +0.000 A 
ATOM     12  C   LIG    1       28.667 -19.971   8.183  0.00  0.00    +0.000 A 
ATOM     13  C   LIG    1       27.312 -20.315   8.196  0.00  0.00    +0.005 A 
ENDBRANCH   1   8
BRANCH   1  14
ATOM     14  S   LIG    1       24.869 -22.715   7.206  0.00  0.00    +0.043 S 
ATOM     15  O   LIG    1       26.071 -23.313   7.883  0.00  0.00    -0.256 OA
BRANCH  14  16
ATOM     16  C   LIG    1       24.913 -23.247   5.475  0.00  0.00    +0.200 C 
BRANCH  16  20
ATOM     17  N   LIG    1       24.193 -25.432   6.283  0.00  0.00    -0.329 N 
ATOM     18  H   LIG    1       23.653 -24.992   7.019  0.00  0.00    +0.145 HD
ATOM     19  H   LIG    1       24.132 -26.438   6.178  0.00  0.00    +0.145 HD
ATOM     20  C   LIG    1       24.863 -24.745   5.319  0.00  0.00    +0.223 C 
ATOM     21  O   LIG    1       25.383 -25.369   4.395  0.00  0.00    -0.275 OA
ENDBRANCH  16  20
ENDBRANCH  14  16
ENDBRANCH   1  14
TORSDOF 5
ENDMDL
MODEL 9
REMARK VINA RESULT:      -7.4      2.945      5.502
REMARK  Name = *****
REMARK                            x       y       z     vdW  Elec       q    Type
REMARK                         _______ _______ _______ _____ _____    ______ ____
ROOT
ATOM      1  C   LIG    1       24.873 -20.915   6.233  0.00  0.00    +0.139 C 
ENDROOT
BRANCH   1   2
ATOM      2  C   LIG    1       26.322 -20.518   6.490  0.00  0.00    -0.028 A 
ATOM      3  C   LIG    1       27.188 -20.152   5.448  0.00  0.00    +0.005 A 
ATOM      4  C   LIG    1       28.494 -19.737   5.707  0.00  0.00    +0.000 A 
ATOM      5  C   LIG    1       28.960 -19.676   7.017  0.00  0.00    +0.000 A 
ATOM      6  C   LIG    1       28.123 -20.043   8.067  0.00  0.00    +0.000 A 
ATOM      7  C   LIG    1       26.818 -20.469   7.805  0.00  0.00    +0.005 A 
ENDBRANCH   1   2
BRANCH   1   8
ATOM      8  C   LIG    1       24.599 -22.420   6.354  0.00  0.00    -0.028 A 
ATOM      9  C   LIG    1       25.663 -23.338   6.268  0.00  0.00    +0.005 A 
ATOM     10  C   LIG    1       25.438 -24.715   6.381  0.00  0.00    +0.000 A 
ATOM     11  C   LIG    1       24.148 -25.201   6.576  0.00  0.00    +0.000 A 
ATOM     12  C   LIG    1       23.083 -24.311   6.659  0.00  0.00    +0.000 A 
ATOM     13  C   LIG    1       23.307 -22.936   6.550  0.00  0.00    +0.005 A 
ENDBRANCH   1   8
BRANCH   1  14
ATOM     14  S   LIG    1       24.164 -20.221   4.658  0.00  0.00    +0.043 S 
ATOM     15  O   LIG    1       24.962 -19.024   4.220  0.00  0.00    -0.256 OA
BRANCH  14  16
ATOM     16  C   LIG    1       22.574 -19.606   5.271  0.00  0.00    +0.200 C 
BRANCH  16  20
ATOM     17  N   LIG    1       22.576 -17.277   4.545  0.00  0.00    -0.329 N 
ATOM     18  H   LIG    1       23.412 -17.099   5.091  0.00  0.00    +0.145 HD
ATOM     19  H   LIG    1       22.217 -16.533   3.960  0.00  0.00    +0.145 HD
ATOM     20  C   LIG    1       22.002 -18.503   4.416  0.00  0.00    +0.223 C 
ATOM     21  O   LIG    1       21.065 -18.643   3.630  0.00  0.00    -0.275 OA
ENDBRANCH  16  20
ENDBRANCH  14  16
ENDBRANCH   1  14
TORSDOF 5
ENDMDL
