MODEL 1
REMARK VINA RESULT:      -9.0      0.000      0.000
REMARK  Name = *****
REMARK                            x       y       z     vdW  Elec       q    Type
REMARK                         _______ _______ _______ _____ _____    ______ ____
ROOT
ATOM      1  C   LIG    1       26.184 -21.949   6.308  0.00  0.00    +0.170 C 
ENDROOT
BRANCH   1   7
ATOM      2 CL   LIG    1       21.771 -18.506   3.986  0.00  0.00    -0.084 Cl
ATOM      3  C   LIG    1       23.037 -19.431   4.692  0.00  0.00    +0.042 A 
ATOM      4  C   LIG    1       22.864 -20.006   5.950  0.00  0.00    +0.040 A 
ATOM      5  C   LIG    1       23.872 -20.811   6.495  0.00  0.00    +0.048 A 
ATOM      6 CL   LIG    1       23.567 -21.540   8.029  0.00  0.00    -0.083 Cl
ATOM      7  C   LIG    1       25.078 -21.016   5.804  0.00  0.00    +0.001 A 
ATOM      8  C   LIG    1       25.257 -20.345   4.575  0.00  0.00    +0.009 A 
ATOM      9  C   LIG    1       24.228 -19.601   4.000  0.00  0.00    +0.020 A 
ENDBRANCH   1   7
BRANCH   1  10
ATOM     10  C   LIG    1       25.528 -23.122   7.077  0.00  0.00    +0.159 C 
BRANCH  10  11
ATOM     11  N   LIG    1       25.499 -24.377   6.350  0.00  0.00    -0.334 N 
ATOM     12  C   LIG    1       25.025 -24.558   5.082  0.00  0.00    +0.199 A 
ATOM     13  N   LIG    1       25.176 -25.787   4.671  0.00  0.00    -0.244 NA
ATOM     14  C   LIG    1       25.797 -26.432   5.700  0.00  0.00    +0.130 A 
ATOM     15  C   LIG    1       26.053 -25.567   6.736  0.00  0.00    +0.107 A 
ENDBRANCH  10  11
ENDBRANCH   1  10
BRANCH   1  16
ATOM     16  O   LIG    1       27.075 -21.230   7.195  0.00  0.00    -0.365 OA
BRANCH  16  17
ATOM     17  C   LIG    1       28.417 -21.750   7.238  0.00  0.00    +0.199 C 
BRANCH  17  18
ATOM     18  C   LIG    1       29.389 -20.617   7.491  0.00  0.00    +0.015 A 
ATOM     19  C   LIG    1       29.348 -19.415   6.753  0.00  0.00    +0.048 A 
ATOM     20 CL   LIG    1       28.282 -19.175   5.410  0.00  0.00    -0.083 Cl
ATOM     21  C   LIG    1       30.198 -18.343   7.061  0.00  0.00    +0.020 A 
ATOM     22  C   LIG    1       31.118 -18.450   8.096  0.00  0.00    +0.003 A 
ATOM     23  C   LIG    1       31.216 -19.647   8.798  0.00  0.00    +0.020 A 
ATOM     24  C   LIG    1       30.368 -20.722   8.496  0.00  0.00    +0.048 A 
ATOM     25 CL   LIG    1       30.602 -22.182   9.391  0.00  0.00    -0.083 Cl
ENDBRANCH  17  18
ENDBRANCH  16  17
ENDBRANCH   1  16
TORSDOF 6
ENDMDL
MODEL 2
REMARK VINA RESULT:      -8.7      0.122      1.833
REMARK  Name = *****
REMARK                            x       y       z     vdW  Elec       q    Type
REMARK                         _______ _______ _______ _____ _____    ______ ____
ROOT
ATOM      1  C   LIG    1       26.179 -22.000   6.261  0.00  0.00    +0.170 C 
ENDROOT
BRANCH   1   7
ATOM      2 CL   LIG    1       21.785 -18.487   4.009  0.00  0.00    -0.084 Cl
ATOM      3  C   LIG    1       23.046 -19.433   4.695  0.00  0.00    +0.042 A 
ATOM      4  C   LIG    1       22.879 -20.015   5.950  0.00  0.00    +0.040 A 
ATOM      5  C   LIG    1       23.882 -20.836   6.479  0.00  0.00    +0.048 A 
ATOM      6 CL   LIG    1       23.584 -21.574   8.011  0.00  0.00    -0.083 Cl
ATOM      7  C   LIG    1       25.079 -21.050   5.774  0.00  0.00    +0.001 A 
ATOM      8  C   LIG    1       25.254 -20.372   4.549  0.00  0.00    +0.009 A 
ATOM      9  C   LIG    1       24.229 -19.612   3.990  0.00  0.00    +0.020 A 
ENDBRANCH   1   7
BRANCH   1  10
ATOM     10  C   LIG    1       25.517 -23.163   7.041  0.00  0.00    +0.159 C 
BRANCH  10  11
ATOM     11  N   LIG    1       25.497 -24.429   6.333  0.00  0.00    -0.334 N 
ATOM     12  C   LIG    1       25.053 -24.627   5.057  0.00  0.00    +0.199 A 
ATOM     13  N   LIG    1       25.205 -25.862   4.668  0.00  0.00    -0.244 NA
ATOM     14  C   LIG    1       25.797 -26.495   5.722  0.00  0.00    +0.130 A 
ATOM     15  C   LIG    1       26.034 -25.616   6.750  0.00  0.00    +0.107 A 
ENDBRANCH  10  11
ENDBRANCH   1  10
BRANCH   1  16
ATOM     16  O   LIG    1       27.095 -21.295   7.132  0.00  0.00    -0.365 OA
BRANCH  16  17
ATOM     17  C   LIG    1       28.442 -21.804   7.114  0.00  0.00    +0.199 C 
BRANCH  17  18
ATOM     18  C   LIG    1       29.409 -20.683   7.432  0.00  0.00    +0.015 A 
ATOM     19  C   LIG    1       30.362 -20.785   8.468  0.00  0.00    +0.048 A 
ATOM     20 CL   LIG    1       30.425 -22.134   9.553  0.00  0.00    -0.083 Cl
ATOM     21  C   LIG    1       31.308 -19.774   8.689  0.00  0.00    +0.020 A 
ATOM     22  C   LIG    1       31.315 -18.633   7.898  0.00  0.00    +0.003 A 
ATOM     23  C   LIG    1       30.347 -18.484   6.909  0.00  0.00    +0.020 A 
ATOM     24  C   LIG    1       29.401 -19.493   6.682  0.00  0.00    +0.048 A 
ATOM     25 CL   LIG    1       28.210 -19.192   5.465  0.00  0.00    -0.083 Cl
ENDBRANCH  17  18
ENDBRANCH  16  17
ENDBRANCH   1  16
TORSDOF 6
ENDMDL
MODEL 3
REMARK VINA RESULT:      -8.4      2.331      4.646
REMARK  Name = *****
REMARK                            x       y       z     vdW  Elec       q    Type
REMARK                         _______ _______ _______ _____ _____    ______ ____
ROOT
ATOM      1  C   LIG    1       25.560 -22.703   6.554  0.00  0.00    +0.170 C 
ENDROOT
BRANCH   1   7
ATOM      2 CL   LIG    1       24.913 -28.720   6.271  0.00  0.00    -0.084 Cl
ATOM      3  C   LIG    1       25.069 -27.008   6.285  0.00  0.00    +0.042 A 
ATOM      4  C   LIG    1       23.936 -26.205   6.392  0.00  0.00    +0.040 A 
ATOM      5  C   LIG    1       24.071 -24.813   6.468  0.00  0.00    +0.048 A 
ATOM      6 CL   LIG    1       22.631 -23.881   6.660  0.00  0.00    -0.083 Cl
ATOM      7  C   LIG    1       25.339 -24.210   6.396  0.00  0.00    +0.001 A 
ATOM      8  C   LIG    1       26.457 -25.049   6.196  0.00  0.00    +0.009 A 
ATOM      9  C   LIG    1       26.330 -26.436   6.191  0.00  0.00    +0.020 A 
ENDBRANCH   1   7
BRANCH   1  10
ATOM     10  C   LIG    1       25.249 -22.014   5.203  0.00  0.00    +0.159 C 
BRANCH  10  11
ATOM     11  N   LIG    1       24.154 -21.064   5.247  0.00  0.00    -0.334 N 
ATOM     12  C   LIG    1       23.511 -20.634   6.374  0.00  0.00    +0.199 A 
ATOM     13  N   LIG    1       22.600 -19.739   6.109  0.00  0.00    -0.244 NA
ATOM     14  C   LIG    1       22.665 -19.555   4.759  0.00  0.00    +0.130 A 
ATOM     15  C   LIG    1       23.655 -20.329   4.207  0.00  0.00    +0.107 A 
ENDBRANCH  10  11
ENDBRANCH   1  10
BRANCH   1  16
ATOM     16  O   LIG    1       26.934 -22.438   6.926  0.00  0.00    -0.365 OA
BRANCH  16  17
ATOM     17  C   LIG    1       27.121 -21.227   7.683  0.00  0.00    +0.199 C 
BRANCH  17  18
ATOM     18  C   LIG    1       28.384 -20.532   7.220  0.00  0.00    +0.015 A 
ATOM     19  C   LIG    1       28.396 -19.654   6.116  0.00  0.00    +0.048 A 
ATOM     20 CL   LIG    1       27.010 -19.394   5.110  0.00  0.00    -0.083 Cl
ATOM     21  C   LIG    1       29.555 -18.951   5.757  0.00  0.00    +0.020 A 
ATOM     22  C   LIG    1       30.731 -19.121   6.477  0.00  0.00    +0.003 A 
ATOM     23  C   LIG    1       30.758 -20.027   7.533  0.00  0.00    +0.020 A 
ATOM     24  C   LIG    1       29.601 -20.730   7.897  0.00  0.00    +0.048 A 
ATOM     25 CL   LIG    1       29.750 -21.869   9.189  0.00  0.00    -0.083 Cl
ENDBRANCH  17  18
ENDBRANCH  16  17
ENDBRANCH   1  16
TORSDOF 6
ENDMDL
MODEL 4
REMARK VINA RESULT:      -8.2      2.476      4.969
REMARK  Name = *****
REMARK                            x       y       z     vdW  Elec       q    Type
REMARK                         _______ _______ _______ _____ _____    ______ ____
ROOT
ATOM      1  C   LIG    1       24.977 -21.854   6.275  0.00  0.00    +0.170 C 
ENDROOT
BRANCH   1   7
ATOM      2 CL   LIG    1       25.046 -27.902   6.643  0.00  0.00    -0.084 Cl
ATOM      3  C   LIG    1       24.999 -26.191   6.473  0.00  0.00    +0.042 A 
ATOM      4  C   LIG    1       23.779 -25.519   6.516  0.00  0.00    +0.040 A 
ATOM      5  C   LIG    1       23.749 -24.121   6.441  0.00  0.00    +0.048 A 
ATOM      6 CL   LIG    1       22.209 -23.350   6.561  0.00  0.00    -0.083 Cl
ATOM      7  C   LIG    1       24.936 -23.386   6.282  0.00  0.00    +0.001 A 
ATOM      8  C   LIG    1       26.144 -24.104   6.150  0.00  0.00    +0.009 A 
ATOM      9  C   LIG    1       26.183 -25.488   6.295  0.00  0.00    +0.020 A 
ENDBRANCH   1   7
BRANCH   1  10
ATOM     10  C   LIG    1       24.831 -21.362   4.814  0.00  0.00    +0.159 C 
BRANCH  10  11
ATOM     11  N   LIG    1       23.890 -20.274   4.636  0.00  0.00    -0.334 N 
ATOM     12  C   LIG    1       22.815 -20.004   5.435  0.00  0.00    +0.199 A 
ATOM     13  N   LIG    1       22.178 -18.930   5.058  0.00  0.00    -0.244 NA
ATOM     14  C   LIG    1       22.879 -18.460   3.986  0.00  0.00    +0.130 A 
ATOM     15  C   LIG    1       23.974 -19.249   3.734  0.00  0.00    +0.107 A 
ENDBRANCH  10  11
ENDBRANCH   1  10
BRANCH   1  16
ATOM     16  O   LIG    1       26.237 -21.388   6.817  0.00  0.00    -0.365 OA
BRANCH  16  17
ATOM     17  C   LIG    1       26.859 -20.337   6.054  0.00  0.00    +0.199 C 
BRANCH  17  18
ATOM     18  C   LIG    1       28.257 -20.092   6.580  0.00  0.00    +0.015 A 
ATOM     19  C   LIG    1       28.804 -20.846   7.639  0.00  0.00    +0.048 A 
ATOM     20 CL   LIG    1       27.889 -22.022   8.522  0.00  0.00    -0.083 Cl
ATOM     21  C   LIG    1       30.132 -20.665   8.052  0.00  0.00    +0.020 A 
ATOM     22  C   LIG    1       30.937 -19.717   7.433  0.00  0.00    +0.003 A 
ATOM     23  C   LIG    1       30.401 -18.921   6.426  0.00  0.00    +0.020 A 
ATOM     24  C   LIG    1       29.075 -19.100   6.008  0.00  0.00    +0.048 A 
ATOM     25 CL   LIG    1       28.487 -18.028   4.786  0.00  0.00    -0.083 Cl
ENDBRANCH  17  18
ENDBRANCH  16  17
ENDBRANCH   1  16
TORSDOF 6
ENDMDL
MODEL 5
REMARK VINA RESULT:      -8.1      1.278      1.621
REMARK  Name = *****
REMARK                            x       y       z     vdW  Elec       q    Type
REMARK                         _______ _______ _______ _____ _____    ______ ____
ROOT
ATOM      1  C   LIG    1       26.083 -21.725   6.321  0.00  0.00    +0.170 C 
ENDROOT
BRANCH   1   7
ATOM      2 CL   LIG    1       21.603 -18.170   4.318  0.00  0.00    -0.084 Cl
ATOM      3  C   LIG    1       22.861 -19.224   4.832  0.00  0.00    +0.042 A 
ATOM      4  C   LIG    1       24.046 -19.304   4.104  0.00  0.00    +0.040 A 
ATOM      5  C   LIG    1       25.093 -20.114   4.560  0.00  0.00    +0.048 A 
ATOM      6 CL   LIG    1       26.555 -20.119   3.642  0.00  0.00    -0.083 Cl
ATOM      7  C   LIG    1       24.949 -20.883   5.727  0.00  0.00    +0.001 A 
ATOM      8  C   LIG    1       23.703 -20.849   6.390  0.00  0.00    +0.009 A 
ATOM      9  C   LIG    1       22.687 -19.990   5.977  0.00  0.00    +0.020 A 
ENDBRANCH   1   7
BRANCH   1  10
ATOM     10  C   LIG    1       25.494 -22.646   7.418  0.00  0.00    +0.159 C 
BRANCH  10  11
ATOM     11  N   LIG    1       25.107 -23.964   6.954  0.00  0.00    -0.334 N 
ATOM     12  C   LIG    1       23.837 -24.367   6.652  0.00  0.00    +0.199 A 
ATOM     13  N   LIG    1       23.802 -25.594   6.210  0.00  0.00    -0.244 NA
ATOM     14  C   LIG    1       25.103 -26.004   6.196  0.00  0.00    +0.130 A 
ATOM     15  C   LIG    1       25.938 -24.994   6.607  0.00  0.00    +0.107 A 
ENDBRANCH  10  11
ENDBRANCH   1  10
BRANCH   1  16
ATOM     16  O   LIG    1       27.089 -20.862   6.905  0.00  0.00    -0.365 OA
BRANCH  16  17
ATOM     17  C   LIG    1       28.409 -21.435   6.950  0.00  0.00    +0.199 C 
BRANCH  17  18
ATOM     18  C   LIG    1       29.403 -20.380   7.386  0.00  0.00    +0.015 A 
ATOM     19  C   LIG    1       29.472 -19.113   6.768  0.00  0.00    +0.048 A 
ATOM     20 CL   LIG    1       28.530 -18.697   5.377  0.00  0.00    -0.083 Cl
ATOM     21  C   LIG    1       30.337 -18.117   7.245  0.00  0.00    +0.020 A 
ATOM     22  C   LIG    1       31.164 -18.367   8.333  0.00  0.00    +0.003 A 
ATOM     23  C   LIG    1       31.155 -19.628   8.920  0.00  0.00    +0.020 A 
ATOM     24  C   LIG    1       30.291 -20.626   8.449  0.00  0.00    +0.048 A 
ATOM     25 CL   LIG    1       30.390 -22.174   9.213  0.00  0.00    -0.083 Cl
ENDBRANCH  17  18
ENDBRANCH  16  17
ENDBRANCH   1  16
TORSDOF 6
ENDMDL
MODEL 6
REMARK VINA RESULT:      -7.9      2.081      5.426
REMARK  Name = *****
REMARK                            x       y       z     vdW  Elec       q    Type
REMARK                         _______ _______ _______ _____ _____    ______ ____
ROOT
ATOM      1  C   LIG    1       25.319 -23.397   7.105  0.00  0.00    +0.170 C 
ENDROOT
BRANCH   1   7
ATOM      2 CL   LIG    1       29.367 -18.978   7.996  0.00  0.00    -0.084 Cl
ATOM      3  C   LIG    1       28.214 -20.240   7.814  0.00  0.00    +0.042 A 
ATOM      4  C   LIG    1       26.879 -20.020   8.146  0.00  0.00    +0.040 A 
ATOM      5  C   LIG    1       25.931 -21.029   7.937  0.00  0.00    +0.048 A 
ATOM      6 CL   LIG    1       24.286 -20.668   8.315  0.00  0.00    -0.083 Cl
ATOM      7  C   LIG    1       26.317 -22.282   7.431  0.00  0.00    +0.001 A 
ATOM      8  C   LIG    1       27.691 -22.502   7.192  0.00  0.00    +0.009 A 
ATOM      9  C   LIG    1       28.623 -21.476   7.332  0.00  0.00    +0.020 A 
ENDBRANCH   1   7
BRANCH   1  10
ATOM     10  C   LIG    1       26.023 -24.446   6.209  0.00  0.00    +0.159 C 
BRANCH  10  11
ATOM     11  N   LIG    1       25.479 -25.786   6.308  0.00  0.00    -0.334 N 
ATOM     12  C   LIG    1       24.410 -26.271   5.608  0.00  0.00    +0.199 A 
ATOM     13  N   LIG    1       24.182 -27.528   5.867  0.00  0.00    -0.244 NA
ATOM     14  C   LIG    1       25.154 -27.891   6.752  0.00  0.00    +0.130 A 
ATOM     15  C   LIG    1       26.002 -26.841   7.004  0.00  0.00    +0.107 A 
ENDBRANCH  10  11
ENDBRANCH   1  10
BRANCH   1  16
ATOM     16  O   LIG    1       24.177 -22.851   6.400  0.00  0.00    -0.365 OA
BRANCH  16  17
ATOM     17  C   LIG    1       24.453 -22.446   5.046  0.00  0.00    +0.199 C 
BRANCH  17  18
ATOM     18  C   LIG    1       23.865 -21.074   4.799  0.00  0.00    +0.015 A 
ATOM     19  C   LIG    1       24.670 -19.955   4.497  0.00  0.00    +0.048 A 
ATOM     20 CL   LIG    1       26.400 -20.014   4.512  0.00  0.00    -0.083 Cl
ATOM     21  C   LIG    1       24.101 -18.712   4.183  0.00  0.00    +0.020 A 
ATOM     22  C   LIG    1       22.721 -18.551   4.183  0.00  0.00    +0.003 A 
ATOM     23  C   LIG    1       21.910 -19.625   4.536  0.00  0.00    +0.020 A 
ATOM     24  C   LIG    1       22.473 -20.870   4.848  0.00  0.00    +0.048 A 
ATOM     25 CL   LIG    1       21.385 -22.127   5.323  0.00  0.00    -0.083 Cl
ENDBRANCH  17  18
ENDBRANCH  16  17
ENDBRANCH   1  16
TORSDOF 6
ENDMDL
MODEL 7
REMARK VINA RESULT:      -7.8      1.311      2.448
REMARK  Name = *****
REMARK                            x       y       z     vdW  Elec       q    Type
REMARK                         _______ _______ _______ _____ _____    ______ ____
ROOT
ATOM      1  C   LIG    1       26.089 -21.690   6.295  0.00  0.00    +0.170 C 
ENDROOT
BRANCH   1   7
ATOM      2 CL   LIG    1       21.619 -18.113   4.311  0.00  0.00    -0.084 Cl
ATOM      3  C   LIG    1       22.874 -19.172   4.819  0.00  0.00    +0.042 A 
ATOM      4  C   LIG    1       24.065 -19.239   4.099  0.00  0.00    +0.040 A 
ATOM      5  C   LIG    1       25.110 -20.055   4.551  0.00  0.00    +0.048 A 
ATOM      6 CL   LIG    1       26.578 -20.044   3.643  0.00  0.00    -0.083 Cl
ATOM      7  C   LIG    1       24.958 -20.841   5.706  0.00  0.00    +0.001 A 
ATOM      8  C   LIG    1       23.706 -20.819   6.359  0.00  0.00    +0.009 A 
ATOM      9  C   LIG    1       22.692 -19.955   5.951  0.00  0.00    +0.020 A 
ENDBRANCH   1   7
BRANCH   1  10
ATOM     10  C   LIG    1       25.502 -22.588   7.411  0.00  0.00    +0.159 C 
BRANCH  10  11
ATOM     11  N   LIG    1       25.109 -23.914   6.974  0.00  0.00    -0.334 N 
ATOM     12  C   LIG    1       23.840 -24.313   6.665  0.00  0.00    +0.199 A 
ATOM     13  N   LIG    1       23.799 -25.550   6.251  0.00  0.00    -0.244 NA
ATOM     14  C   LIG    1       25.097 -25.971   6.265  0.00  0.00    +0.130 A 
ATOM     15  C   LIG    1       25.935 -24.959   6.662  0.00  0.00    +0.107 A 
ENDBRANCH  10  11
ENDBRANCH   1  10
BRANCH   1  16
ATOM     16  O   LIG    1       27.113 -20.833   6.855  0.00  0.00    -0.365 OA
BRANCH  16  17
ATOM     17  C   LIG    1       28.457 -21.316   6.672  0.00  0.00    +0.199 C 
BRANCH  17  18
ATOM     18  C   LIG    1       29.436 -20.323   7.261  0.00  0.00    +0.015 A 
ATOM     19  C   LIG    1       30.230 -20.629   8.386  0.00  0.00    +0.048 A 
ATOM     20 CL   LIG    1       30.066 -22.106   9.275  0.00  0.00    -0.083 Cl
ATOM     21  C   LIG    1       31.195 -19.730   8.862  0.00  0.00    +0.020 A 
ATOM     22  C   LIG    1       31.377 -18.500   8.242  0.00  0.00    +0.003 A 
ATOM     23  C   LIG    1       30.563 -18.153   7.168  0.00  0.00    +0.020 A 
ATOM     24  C   LIG    1       29.599 -19.049   6.686  0.00  0.00    +0.048 A 
ATOM     25 CL   LIG    1       28.605 -18.505   5.380  0.00  0.00    -0.083 Cl
ENDBRANCH  17  18
ENDBRANCH  16  17
ENDBRANCH   1  16
TORSDOF 6
ENDMDL
MODEL 8
REMARK VINA RESULT:      -7.7      2.090      6.000
REMARK  Name = *****
REMARK                            x       y       z     vdW  Elec       q    Type
REMARK                         _______ _______ _______ _____ _____    ______ ____
ROOT
ATOM      1  C   LIG    1       25.867 -20.846   5.779  0.00  0.00    +0.170 C 
ENDROOT
BRANCH   1   7
ATOM      2 CL   LIG    1       30.783 -18.399   8.339  0.00  0.00    -0.084 Cl
ATOM      3  C   LIG    1       29.411 -19.158   7.633  0.00  0.00    +0.042 A 
ATOM      4  C   LIG    1       28.410 -19.686   8.446  0.00  0.00    +0.040 A 
ATOM      5  C   LIG    1       27.264 -20.247   7.868  0.00  0.00    +0.048 A 
ATOM      6 CL   LIG    1       26.037 -20.827   8.934  0.00  0.00    -0.083 Cl
ATOM      7  C   LIG    1       27.128 -20.320   6.471  0.00  0.00    +0.001 A 
ATOM      8  C   LIG    1       28.202 -19.859   5.679  0.00  0.00    +0.009 A 
ATOM      9  C   LIG    1       29.310 -19.238   6.251  0.00  0.00    +0.020 A 
ENDBRANCH   1   7
BRANCH   1  10
ATOM     10  C   LIG    1       25.868 -22.393   5.859  0.00  0.00    +0.159 C 
BRANCH  10  11
ATOM     11  N   LIG    1       24.593 -22.978   6.225  0.00  0.00    -0.334 N 
ATOM     12  C   LIG    1       24.306 -24.313   6.263  0.00  0.00    +0.199 A 
ATOM     13  N   LIG    1       23.091 -24.544   6.680  0.00  0.00    -0.244 NA
ATOM     14  C   LIG    1       22.569 -23.313   6.951  0.00  0.00    +0.130 A 
ATOM     15  C   LIG    1       23.498 -22.327   6.724  0.00  0.00    +0.107 A 
ENDBRANCH  10  11
ENDBRANCH   1  10
BRANCH   1  16
ATOM     16  O   LIG    1       25.853 -20.435   4.391  0.00  0.00    -0.365 OA
BRANCH  16  17
ATOM     17  C   LIG    1       24.571 -20.563   3.746  0.00  0.00    +0.199 C 
BRANCH  17  18
ATOM     18  C   LIG    1       23.764 -19.304   3.974  0.00  0.00    +0.015 A 
ATOM     19  C   LIG    1       22.415 -19.341   4.387  0.00  0.00    +0.048 A 
ATOM     20 CL   LIG    1       21.523 -20.818   4.539  0.00  0.00    -0.083 Cl
ATOM     21  C   LIG    1       21.710 -18.165   4.680  0.00  0.00    +0.020 A 
ATOM     22  C   LIG    1       22.325 -16.926   4.550  0.00  0.00    +0.003 A 
ATOM     23  C   LIG    1       23.636 -16.862   4.088  0.00  0.00    +0.020 A 
ATOM     24  C   LIG    1       24.346 -18.035   3.796  0.00  0.00    +0.048 A 
ATOM     25 CL   LIG    1       25.951 -17.849   3.180  0.00  0.00    -0.083 Cl
ENDBRANCH  17  18
ENDBRANCH  16  17
ENDBRANCH   1  16
TORSDOF 6
ENDMDL
MODEL 9
REMARK VINA RESULT:      -7.7      2.086      5.889
REMARK  Name = *****
REMARK                            x       y       z     vdW  Elec       q    Type
REMARK                         _______ _______ _______ _____ _____    ______ ____
ROOT
ATOM      1  C   LIG    1       25.869 -20.913   5.717  0.00  0.00    +0.170 C 
ENDROOT
BRANCH   1   7
ATOM      2 CL   LIG    1       30.698 -18.406   8.384  0.00  0.00    -0.084 Cl
ATOM      3  C   LIG    1       29.350 -19.182   7.650  0.00  0.00    +0.042 A 
ATOM      4  C   LIG    1       28.325 -19.697   8.440  0.00  0.00    +0.040 A 
ATOM      5  C   LIG    1       27.199 -20.272   7.837  0.00  0.00    +0.048 A 
ATOM      6 CL   LIG    1       25.940 -20.836   8.874  0.00  0.00    -0.083 Cl
ATOM      7  C   LIG    1       27.107 -20.371   6.438  0.00  0.00    +0.001 A 
ATOM      8  C   LIG    1       28.204 -19.922   5.672  0.00  0.00    +0.009 A 
ATOM      9  C   LIG    1       29.292 -19.288   6.267  0.00  0.00    +0.020 A 
ENDBRANCH   1   7
BRANCH   1  10
ATOM     10  C   LIG    1       25.884 -22.459   5.805  0.00  0.00    +0.159 C 
BRANCH  10  11
ATOM     11  N   LIG    1       24.617 -23.053   6.185  0.00  0.00    -0.334 N 
ATOM     12  C   LIG    1       24.331 -24.389   6.204  0.00  0.00    +0.199 A 
ATOM     13  N   LIG    1       23.126 -24.629   6.640  0.00  0.00    -0.244 NA
ATOM     14  C   LIG    1       22.608 -23.404   6.943  0.00  0.00    +0.130 A 
ATOM     15  C   LIG    1       23.531 -22.413   6.716  0.00  0.00    +0.107 A 
ENDBRANCH  10  11
ENDBRANCH   1  10
BRANCH   1  16
ATOM     16  O   LIG    1       25.887 -20.509   4.326  0.00  0.00    -0.365 OA
BRANCH  16  17
ATOM     17  C   LIG    1       24.596 -20.521   3.688  0.00  0.00    +0.199 C 
BRANCH  17  18
ATOM     18  C   LIG    1       23.873 -19.226   3.986  0.00  0.00    +0.015 A 
ATOM     19  C   LIG    1       24.477 -17.966   3.788  0.00  0.00    +0.048 A 
ATOM     20 CL   LIG    1       26.134 -17.785   3.319  0.00  0.00    -0.083 Cl
ATOM     21  C   LIG    1       23.761 -16.776   3.984  0.00  0.00    +0.020 A 
ATOM     22  C   LIG    1       22.436 -16.814   4.400  0.00  0.00    +0.003 A 
ATOM     23  C   LIG    1       21.838 -18.043   4.659  0.00  0.00    +0.020 A 
ATOM     24  C   LIG    1       22.548 -19.236   4.462  0.00  0.00    +0.048 A 
ATOM     25 CL   LIG    1       21.735 -20.708   4.859  0.00  0.00    -0.083 Cl
ENDBRANCH  17  18
ENDBRANCH  16  17
ENDBRANCH   1  16
TORSDOF 6
ENDMDL
