MODEL 1
REMARK VINA RESULT:      -8.7      0.000      0.000
REMARK  Name = *****
REMARK                            x       y       z     vdW  Elec       q    Type
REMARK                         _______ _______ _______ _____ _____    ______ ____
ROOT
ATOM      1  O   LIG    1       28.952 -20.330   7.999  0.00  0.00    -0.350 OA
ENDROOT
BRANCH   1   2
ATOM      2  C   LIG    1       29.335 -19.239   7.150  0.00  0.00    +0.183 C 
BRANCH   2   3
ATOM      3  C   LIG    1       30.879 -19.241   7.038  0.00  0.00    +0.266 C 
BRANCH   3   4
ATOM      4  O   LIG    1       31.405 -18.127   7.790  0.00  0.00    -0.461 OA
BRANCH   4   5
ATOM      5  C   LIG    1       31.906 -18.461   9.028  0.00  0.00    +0.324 C 
ATOM      6  O   LIG    1       32.149 -19.606   9.373  0.00  0.00    -0.249 OA
BRANCH   5   7
ATOM      7  C   LIG    1       32.257 -17.162   9.798  0.00  0.00    +0.163 C 
BRANCH   7   9
ATOM      8  C   LIG    1       31.745 -16.243  12.119  0.00  0.00    +0.009 C 
ATOM      9  C   LIG    1       31.197 -16.584  10.720  0.00  0.00    +0.011 C 
ATOM     10  C   LIG    1       30.071 -17.607  10.871  0.00  0.00    +0.009 C 
ENDBRANCH   7   9
BRANCH   7  11
ATOM     11  N   LIG    1       32.681 -16.202   8.787  0.00  0.00    -0.318 NA
ATOM     12  H   LIG    1       33.282 -15.664   9.407  0.00  0.00    +0.119 HD
ATOM     13  H   LIG    1       31.943 -15.523   8.593  0.00  0.00    +0.119 HD
ENDBRANCH   7  11
ENDBRANCH   5   7
ENDBRANCH   4   5
ENDBRANCH   3   4
ENDBRANCH   2   3
BRANCH   2  14
ATOM     14  C   LIG    1       28.630 -19.340   5.795  0.00  0.00    +0.191 C 
BRANCH  14  15
ATOM     15  O   LIG    1       28.993 -18.324   4.867  0.00  0.00    -0.392 OA
ATOM     16  H   LIG    1       29.559 -17.661   5.300  0.00  0.00    +0.209 HD
ENDBRANCH  14  15
ENDBRANCH   2  14
ENDBRANCH   1   2
BRANCH   1  17
ATOM     17  C   LIG    1       28.361 -21.454   7.340  0.00  0.00    +0.287 C 
BRANCH  17  18
ATOM     18  N   LIG    1       26.955 -21.552   7.704  0.00  0.00    -0.291 N 
ATOM     19  C   LIG    1       26.068 -22.519   7.314  0.00  0.00    +0.171 A 
ATOM     20  N   LIG    1       26.344 -23.635   6.599  0.00  0.00    -0.196 NA
ATOM     21  C   LIG    1       25.302 -24.208   6.081  0.00  0.00    +0.195 C 
ATOM     22  N   LIG    1       24.003 -23.781   6.302  0.00  0.00    -0.293 N 
ATOM     23  H   LIG    1       23.258 -24.251   5.862  0.00  0.00    +0.172 HD
ATOM     24  C   LIG    1       23.698 -22.673   7.065  0.00  0.00    +0.280 C 
ATOM     25  O   LIG    1       22.513 -22.303   7.183  0.00  0.00    -0.265 OA
ATOM     26  C   LIG    1       24.832 -21.993   7.620  0.00  0.00    +0.172 A 
ATOM     27  N   LIG    1       24.940 -20.817   8.321  0.00  0.00    -0.229 NA
ATOM     28  C   LIG    1       26.236 -20.580   8.364  0.00  0.00    +0.203 A 
BRANCH  21  29
ATOM     29  N   LIG    1       25.389 -25.280   5.249  0.00  0.00    -0.329 N 
ATOM     30  H   LIG    1       25.256 -25.138   4.263  0.00  0.00    +0.145 HD
ATOM     31  H   LIG    1       26.183 -25.899   5.363  0.00  0.00    +0.145 HD
ENDBRANCH  21  29
ENDBRANCH  17  18
ENDBRANCH   1  17
TORSDOF 12
ENDMDL
MODEL 2
REMARK VINA RESULT:      -8.6      2.547      8.405
REMARK  Name = *****
REMARK                            x       y       z     vdW  Elec       q    Type
REMARK                         _______ _______ _______ _____ _____    ______ ____
ROOT
ATOM      1  O   LIG    1       26.140 -20.693   5.904  0.00  0.00    -0.350 OA
ENDROOT
BRANCH   1   2
ATOM      2  C   LIG    1       25.048 -21.594   5.676  0.00  0.00    +0.183 C 
BRANCH   2   3
ATOM      3  C   LIG    1       24.661 -22.227   7.036  0.00  0.00    +0.266 C 
BRANCH   3   4
ATOM      4  O   LIG    1       24.857 -23.655   6.960  0.00  0.00    -0.461 OA
BRANCH   4   5
ATOM      5  C   LIG    1       23.737 -24.365   6.593  0.00  0.00    +0.324 C 
ATOM      6  O   LIG    1       22.597 -23.982   6.793  0.00  0.00    -0.249 OA
BRANCH   5   7
ATOM      7  C   LIG    1       24.172 -25.596   5.755  0.00  0.00    +0.163 C 
BRANCH   7   9
ATOM      8  C   LIG    1       26.498 -26.602   6.026  0.00  0.00    +0.009 C 
ATOM      9  C   LIG    1       25.017 -26.653   6.447  0.00  0.00    +0.011 C 
ATOM     10  C   LIG    1       24.456 -28.032   6.100  0.00  0.00    +0.009 C 
ENDBRANCH   7   9
BRANCH   7  11
ATOM     11  N   LIG    1       24.832 -25.060   4.572  0.00  0.00    -0.318 NA
ATOM     12  H   LIG    1       24.033 -24.520   4.249  0.00  0.00    +0.119 HD
ATOM     13  H   LIG    1       24.900 -25.766   3.838  0.00  0.00    +0.119 HD
ENDBRANCH   7  11
ENDBRANCH   5   7
ENDBRANCH   4   5
ENDBRANCH   3   4
ENDBRANCH   2   3
BRANCH   2  14
ATOM     14  C   LIG    1       23.885 -20.867   4.995  0.00  0.00    +0.191 C 
BRANCH  14  15
ATOM     15  O   LIG    1       22.635 -21.539   5.095  0.00  0.00    -0.392 OA
ATOM     16  H   LIG    1       21.947 -21.039   4.622  0.00  0.00    +0.209 HD
ENDBRANCH  14  15
ENDBRANCH   2  14
ENDBRANCH   1   2
BRANCH   1  17
ATOM     17  C   LIG    1       27.147 -21.151   6.810  0.00  0.00    +0.287 C 
BRANCH  17  18
ATOM     18  N   LIG    1       28.360 -20.365   6.634  0.00  0.00    -0.291 N 
ATOM     19  C   LIG    1       29.534 -20.496   7.325  0.00  0.00    +0.171 A 
ATOM     20  N   LIG    1       29.841 -21.450   8.235  0.00  0.00    -0.196 NA
ATOM     21  C   LIG    1       30.865 -21.168   8.980  0.00  0.00    +0.195 C 
ATOM     22  N   LIG    1       31.644 -20.035   8.814  0.00  0.00    -0.293 N 
ATOM     23  H   LIG    1       32.398 -19.872   9.426  0.00  0.00    +0.172 HD
ATOM     24  C   LIG    1       31.376 -19.073   7.861  0.00  0.00    +0.280 C 
ATOM     25  O   LIG    1       32.081 -18.046   7.795  0.00  0.00    -0.265 OA
ATOM     26  C   LIG    1       30.226 -19.336   7.048  0.00  0.00    +0.172 A 
ATOM     27  N   LIG    1       29.588 -18.581   6.095  0.00  0.00    -0.229 NA
ATOM     28  C   LIG    1       28.466 -19.232   5.858  0.00  0.00    +0.203 A 
BRANCH  21  29
ATOM     29  N   LIG    1       31.262 -21.955  10.015  0.00  0.00    -0.329 N 
ATOM     30  H   LIG    1       32.226 -22.233  10.069  0.00  0.00    +0.145 HD
ATOM     31  H   LIG    1       30.970 -21.685  10.947  0.00  0.00    +0.145 HD
ENDBRANCH  21  29
ENDBRANCH  17  18
ENDBRANCH   1  17
TORSDOF 12
ENDMDL
MODEL 3
REMARK VINA RESULT:      -8.6      2.738      7.895
REMARK  Name = *****
REMARK                            x       y       z     vdW  Elec       q    Type
REMARK                         _______ _______ _______ _____ _____    ______ ____
ROOT
ATOM      1  O   LIG    1       26.208 -19.907   5.846  0.00  0.00    -0.350 OA
ENDROOT
BRANCH   1   2
ATOM      2  C   LIG    1       25.256 -20.487   4.943  0.00  0.00    +0.183 C 
BRANCH   2   3
ATOM      3  C   LIG    1       23.841 -20.256   5.528  0.00  0.00    +0.266 C 
BRANCH   3   4
ATOM      4  O   LIG    1       23.242 -21.536   5.822  0.00  0.00    -0.461 OA
BRANCH   4   5
ATOM      5  C   LIG    1       23.573 -22.049   7.055  0.00  0.00    +0.324 C 
ATOM      6  O   LIG    1       23.754 -21.364   8.048  0.00  0.00    -0.249 OA
BRANCH   5   7
ATOM      7  C   LIG    1       23.497 -23.597   6.994  0.00  0.00    +0.163 C 
BRANCH   7   9
ATOM      8  C   LIG    1       24.187 -25.800   5.915  0.00  0.00    +0.009 C 
ATOM      9  C   LIG    1       24.532 -24.317   6.146  0.00  0.00    +0.011 C 
ATOM     10  C   LIG    1       25.886 -24.233   6.852  0.00  0.00    +0.009 C 
ENDBRANCH   7   9
BRANCH   7  11
ATOM     11  N   LIG    1       22.138 -23.914   6.578  0.00  0.00    -0.318 NA
ATOM     12  H   LIG    1       21.752 -22.998   6.797  0.00  0.00    +0.119 HD
ATOM     13  H   LIG    1       21.667 -24.495   7.274  0.00  0.00    +0.119 HD
ENDBRANCH   7  11
ENDBRANCH   5   7
ENDBRANCH   4   5
ENDBRANCH   3   4
ENDBRANCH   2   3
BRANCH   2  14
ATOM     14  C   LIG    1       25.431 -19.909   3.536  0.00  0.00    +0.191 C 
BRANCH  14  15
ATOM     15  O   LIG    1       25.904 -18.568   3.508  0.00  0.00    -0.392 OA
ATOM     16  H   LIG    1       26.869 -18.555   3.380  0.00  0.00    +0.209 HD
ENDBRANCH  14  15
ENDBRANCH   2  14
ENDBRANCH   1   2
BRANCH   1  17
ATOM     17  C   LIG    1       27.234 -20.785   6.318  0.00  0.00    +0.287 C 
BRANCH  17  18
ATOM     18  N   LIG    1       28.515 -20.093   6.305  0.00  0.00    -0.291 N 
ATOM     19  C   LIG    1       29.605 -20.361   7.089  0.00  0.00    +0.171 A 
ATOM     20  N   LIG    1       29.749 -21.389   7.957  0.00  0.00    -0.196 NA
ATOM     21  C   LIG    1       30.716 -21.238   8.808  0.00  0.00    +0.195 C 
ATOM     22  N   LIG    1       31.592 -20.166   8.789  0.00  0.00    -0.293 N 
ATOM     23  H   LIG    1       32.294 -20.102   9.477  0.00  0.00    +0.172 HD
ATOM     24  C   LIG    1       31.491 -19.131   7.882  0.00  0.00    +0.280 C 
ATOM     25  O   LIG    1       32.276 -18.164   7.949  0.00  0.00    -0.265 OA
ATOM     26  C   LIG    1       30.407 -19.249   6.953  0.00  0.00    +0.172 A 
ATOM     27  N   LIG    1       29.922 -18.388   5.999  0.00  0.00    -0.229 NA
ATOM     28  C   LIG    1       28.782 -18.929   5.618  0.00  0.00    +0.203 A 
BRANCH  21  29
ATOM     29  N   LIG    1       30.950 -22.115   9.821  0.00  0.00    -0.329 N 
ATOM     30  H   LIG    1       31.156 -21.754  10.735  0.00  0.00    +0.145 HD
ATOM     31  H   LIG    1       30.299 -22.882   9.936  0.00  0.00    +0.145 HD
ENDBRANCH  21  29
ENDBRANCH  17  18
ENDBRANCH   1  17
TORSDOF 12
ENDMDL
MODEL 4
REMARK VINA RESULT:      -8.3      1.336      2.003
REMARK  Name = *****
REMARK                            x       y       z     vdW  Elec       q    Type
REMARK                         _______ _______ _______ _____ _____    ______ ____
ROOT
ATOM      1  O   LIG    1       28.488 -20.437   7.345  0.00  0.00    -0.350 OA
ENDROOT
BRANCH   1   2
ATOM      2  C   LIG    1       29.175 -19.236   6.970  0.00  0.00    +0.183 C 
BRANCH   2   3
ATOM      3  C   LIG    1       30.694 -19.482   7.142  0.00  0.00    +0.266 C 
BRANCH   3   4
ATOM      4  O   LIG    1       31.282 -18.337   7.796  0.00  0.00    -0.461 OA
BRANCH   4   5
ATOM      5  C   LIG    1       31.840 -18.608   9.025  0.00  0.00    +0.324 C 
ATOM      6  O   LIG    1       32.125 -19.731   9.406  0.00  0.00    -0.249 OA
BRANCH   5   7
ATOM      7  C   LIG    1       32.190 -17.270   9.727  0.00  0.00    +0.163 C 
BRANCH   7   9
ATOM      8  C   LIG    1       31.687 -16.293  12.026  0.00  0.00    +0.009 C 
ATOM      9  C   LIG    1       31.136 -16.657  10.635  0.00  0.00    +0.011 C 
ATOM     10  C   LIG    1       29.996 -17.662  10.806  0.00  0.00    +0.009 C 
ENDBRANCH   7   9
BRANCH   7  11
ATOM     11  N   LIG    1       32.590 -16.356   8.665  0.00  0.00    -0.318 NA
ATOM     12  H   LIG    1       32.737 -15.555   9.274  0.00  0.00    +0.119 HD
ATOM     13  H   LIG    1       31.782 -16.044   8.124  0.00  0.00    +0.119 HD
ENDBRANCH   7  11
ENDBRANCH   5   7
ENDBRANCH   4   5
ENDBRANCH   3   4
ENDBRANCH   2   3
BRANCH   2  14
ATOM     14  C   LIG    1       28.788 -18.816   5.550  0.00  0.00    +0.191 C 
BRANCH  14  15
ATOM     15  O   LIG    1       29.777 -18.047   4.875  0.00  0.00    -0.392 OA
ATOM     16  H   LIG    1       29.586 -18.017   3.921  0.00  0.00    +0.209 HD
ENDBRANCH  14  15
ENDBRANCH   2  14
ENDBRANCH   1   2
BRANCH   1  17
ATOM     17  C   LIG    1       27.111 -20.282   7.701  0.00  0.00    +0.287 C 
BRANCH  17  18
ATOM     18  N   LIG    1       26.372 -21.483   7.336  0.00  0.00    -0.291 N 
ATOM     19  C   LIG    1       25.189 -21.546   6.650  0.00  0.00    +0.171 A 
ATOM     20  N   LIG    1       24.524 -20.515   6.079  0.00  0.00    -0.196 NA
ATOM     21  C   LIG    1       23.287 -20.775   5.785  0.00  0.00    +0.195 C 
ATOM     22  N   LIG    1       22.706 -22.021   5.952  0.00  0.00    -0.293 N 
ATOM     23  H   LIG    1       21.756 -22.146   5.725  0.00  0.00    +0.172 HD
ATOM     24  C   LIG    1       23.382 -23.098   6.488  0.00  0.00    +0.280 C 
ATOM     25  O   LIG    1       22.789 -24.181   6.665  0.00  0.00    -0.265 OA
ATOM     26  C   LIG    1       24.740 -22.832   6.861  0.00  0.00    +0.172 A 
ATOM     27  N   LIG    1       25.675 -23.596   7.514  0.00  0.00    -0.229 NA
ATOM     28  C   LIG    1       26.655 -22.755   7.782  0.00  0.00    +0.203 A 
BRANCH  21  29
ATOM     29  N   LIG    1       22.432 -19.835   5.301  0.00  0.00    -0.329 N 
ATOM     30  H   LIG    1       22.227 -19.829   4.317  0.00  0.00    +0.145 HD
ATOM     31  H   LIG    1       21.559 -19.697   5.795  0.00  0.00    +0.145 HD
ENDBRANCH  21  29
ENDBRANCH  17  18
ENDBRANCH   1  17
TORSDOF 12
ENDMDL
MODEL 5
REMARK VINA RESULT:      -8.3      2.140      2.922
REMARK  Name = *****
REMARK                            x       y       z     vdW  Elec       q    Type
REMARK                         _______ _______ _______ _____ _____    ______ ____
ROOT
ATOM      1  O   LIG    1       28.811 -20.990   8.537  0.00  0.00    -0.350 OA
ENDROOT
BRANCH   1   2
ATOM      2  C   LIG    1       30.115 -21.310   8.032  0.00  0.00    +0.183 C 
BRANCH   2   3
ATOM      3  C   LIG    1       30.675 -20.052   7.325  0.00  0.00    +0.266 C 
BRANCH   3   4
ATOM      4  O   LIG    1       31.567 -19.365   8.229  0.00  0.00    -0.461 OA
BRANCH   4   5
ATOM      5  C   LIG    1       31.307 -18.022   8.375  0.00  0.00    +0.324 C 
ATOM      6  O   LIG    1       30.350 -17.459   7.870  0.00  0.00    -0.249 OA
BRANCH   5   7
ATOM      7  C   LIG    1       32.307 -17.422   9.398  0.00  0.00    +0.163 C 
BRANCH   7   9
ATOM      8  C   LIG    1       30.352 -17.390  11.032  0.00  0.00    +0.009 C 
ATOM      9  C   LIG    1       31.882 -17.387  10.856  0.00  0.00    +0.011 C 
ATOM     10  C   LIG    1       32.448 -16.120  11.499  0.00  0.00    +0.009 C 
ENDBRANCH   7   9
BRANCH   7  11
ATOM     11  N   LIG    1       32.643 -16.096   8.896  0.00  0.00    -0.318 NA
ATOM     12  H   LIG    1       31.708 -15.708   9.010  0.00  0.00    +0.119 HD
ATOM     13  H   LIG    1       32.730 -16.099   7.879  0.00  0.00    +0.119 HD
ENDBRANCH   7  11
ENDBRANCH   5   7
ENDBRANCH   4   5
ENDBRANCH   3   4
ENDBRANCH   2   3
BRANCH   2  14
ATOM     14  C   LIG    1       31.016 -21.821   9.160  0.00  0.00    +0.191 C 
BRANCH  14  15
ATOM     15  O   LIG    1       32.246 -22.383   8.719  0.00  0.00    -0.392 OA
ATOM     16  H   LIG    1       32.175 -23.352   8.672  0.00  0.00    +0.209 HD
ENDBRANCH  14  15
ENDBRANCH   2  14
ENDBRANCH   1   2
BRANCH   1  17
ATOM     17  C   LIG    1       28.046 -20.073   7.749  0.00  0.00    +0.287 C 
BRANCH  17  18
ATOM     18  N   LIG    1       26.714 -20.614   7.522  0.00  0.00    -0.291 N 
ATOM     19  C   LIG    1       25.988 -20.560   6.362  0.00  0.00    +0.171 A 
ATOM     20  N   LIG    1       26.405 -20.089   5.164  0.00  0.00    -0.196 NA
ATOM     21  C   LIG    1       25.447 -19.841   4.326  0.00  0.00    +0.195 C 
ATOM     22  N   LIG    1       24.113 -20.111   4.584  0.00  0.00    -0.293 N 
ATOM     23  H   LIG    1       23.433 -19.881   3.910  0.00  0.00    +0.172 HD
ATOM     24  C   LIG    1       23.674 -20.635   5.782  0.00  0.00    +0.280 C 
ATOM     25  O   LIG    1       22.454 -20.806   5.979  0.00  0.00    -0.265 OA
ATOM     26  C   LIG    1       24.705 -20.884   6.746  0.00  0.00    +0.172 A 
ATOM     27  N   LIG    1       24.653 -21.283   8.059  0.00  0.00    -0.229 NA
ATOM     28  C   LIG    1       25.884 -21.118   8.500  0.00  0.00    +0.203 A 
BRANCH  21  29
ATOM     29  N   LIG    1       25.661 -19.267   3.111  0.00  0.00    -0.329 N 
ATOM     30  H   LIG    1       25.839 -19.862   2.321  0.00  0.00    +0.145 HD
ATOM     31  H   LIG    1       25.013 -18.548   2.812  0.00  0.00    +0.145 HD
ENDBRANCH  21  29
ENDBRANCH  17  18
ENDBRANCH   1  17
TORSDOF 12
ENDMDL
MODEL 6
REMARK VINA RESULT:      -8.3      2.970      7.798
REMARK  Name = *****
REMARK                            x       y       z     vdW  Elec       q    Type
REMARK                         _______ _______ _______ _____ _____    ______ ____
ROOT
ATOM      1  O   LIG    1       26.488 -23.666   7.093  0.00  0.00    -0.350 OA
ENDROOT
BRANCH   1   2
ATOM      2  C   LIG    1       25.189 -24.263   6.974  0.00  0.00    +0.183 C 
BRANCH   2   3
ATOM      3  C   LIG    1       24.354 -23.396   6.000  0.00  0.00    +0.266 C 
BRANCH   3   4
ATOM      4  O   LIG    1       23.249 -22.813   6.724  0.00  0.00    -0.461 OA
BRANCH   4   5
ATOM      5  C   LIG    1       23.183 -21.440   6.651  0.00  0.00    +0.324 C 
ATOM      6  O   LIG    1       23.366 -20.702   7.605  0.00  0.00    -0.249 OA
BRANCH   5   7
ATOM      7  C   LIG    1       23.020 -21.020   5.167  0.00  0.00    +0.163 C 
BRANCH   7   9
ATOM      8  C   LIG    1       22.144 -18.720   4.509  0.00  0.00    +0.009 C 
ATOM      9  C   LIG    1       23.381 -19.591   4.798  0.00  0.00    +0.011 C 
ATOM     10  C   LIG    1       24.265 -19.618   3.551  0.00  0.00    +0.009 C 
ENDBRANCH   7   9
BRANCH   7  11
ATOM     11  N   LIG    1       21.645 -21.344   4.811  0.00  0.00    -0.318 NA
ATOM     12  H   LIG    1       21.796 -21.319   3.804  0.00  0.00    +0.119 HD
ATOM     13  H   LIG    1       21.033 -20.536   4.936  0.00  0.00    +0.119 HD
ENDBRANCH   7  11
ENDBRANCH   5   7
ENDBRANCH   4   5
ENDBRANCH   3   4
ENDBRANCH   2   3
BRANCH   2  14
ATOM     14  C   LIG    1       25.308 -25.724   6.533  0.00  0.00    +0.191 C 
BRANCH  14  15
ATOM     15  O   LIG    1       26.260 -25.949   5.499  0.00  0.00    -0.392 OA
ATOM     16  H   LIG    1       26.942 -25.255   5.514  0.00  0.00    +0.209 HD
ENDBRANCH  14  15
ENDBRANCH   2  14
ENDBRANCH   1   2
BRANCH   1  17
ATOM     17  C   LIG    1       26.535 -22.405   7.766  0.00  0.00    +0.287 C 
BRANCH  17  18
ATOM     18  N   LIG    1       27.311 -21.458   6.978  0.00  0.00    -0.291 N 
ATOM     19  C   LIG    1       28.611 -21.084   7.185  0.00  0.00    +0.171 A 
ATOM     20  N   LIG    1       29.470 -21.598   8.096  0.00  0.00    -0.196 NA
ATOM     21  C   LIG    1       30.516 -20.863   8.318  0.00  0.00    +0.195 C 
ATOM     22  N   LIG    1       30.792 -19.694   7.627  0.00  0.00    -0.293 N 
ATOM     23  H   LIG    1       31.595 -19.174   7.858  0.00  0.00    +0.172 HD
ATOM     24  C   LIG    1       29.952 -19.178   6.662  0.00  0.00    +0.280 C 
ATOM     25  O   LIG    1       30.225 -18.092   6.112  0.00  0.00    -0.265 OA
ATOM     26  C   LIG    1       28.766 -19.947   6.421  0.00  0.00    +0.172 A 
ATOM     27  N   LIG    1       27.663 -19.706   5.640  0.00  0.00    -0.229 NA
ATOM     28  C   LIG    1       26.803 -20.641   5.992  0.00  0.00    +0.203 A 
BRANCH  21  29
ATOM     29  N   LIG    1       31.438 -21.162   9.271  0.00  0.00    -0.329 N 
ATOM     30  H   LIG    1       32.197 -21.776   9.034  0.00  0.00    +0.145 HD
ATOM     31  H   LIG    1       31.823 -20.395   9.808  0.00  0.00    +0.145 HD
ENDBRANCH  21  29
ENDBRANCH  17  18
ENDBRANCH   1  17
TORSDOF 12
ENDMDL
MODEL 7
REMARK VINA RESULT:      -8.2      1.750      2.075
REMARK  Name = *****
REMARK                            x       y       z     vdW  Elec       q    Type
REMARK                         _______ _______ _______ _____ _____    ______ ____
ROOT
ATOM      1  O   LIG    1       28.855 -19.504   7.664  0.00  0.00    -0.350 OA
ENDROOT
BRANCH   1   2
ATOM      2  C   LIG    1       29.693 -18.739   6.787  0.00  0.00    +0.183 C 
BRANCH   2   3
ATOM      3  C   LIG    1       31.164 -19.140   7.063  0.00  0.00    +0.266 C 
BRANCH   3   4
ATOM      4  O   LIG    1       31.808 -18.076   7.796  0.00  0.00    -0.461 OA
BRANCH   4   5
ATOM      5  C   LIG    1       32.056 -18.364   9.118  0.00  0.00    +0.324 C 
ATOM      6  O   LIG    1       32.120 -19.498   9.563  0.00  0.00    -0.249 OA
BRANCH   5   7
ATOM      7  C   LIG    1       32.400 -17.049   9.866  0.00  0.00    +0.163 C 
BRANCH   7   9
ATOM      8  C   LIG    1       31.945 -16.670  12.344  0.00  0.00    +0.009 C 
ATOM      9  C   LIG    1       31.409 -16.553  10.905  0.00  0.00    +0.011 C 
ATOM     10  C   LIG    1       30.127 -17.378  10.790  0.00  0.00    +0.009 C 
ENDBRANCH   7   9
BRANCH   7  11
ATOM     11  N   LIG    1       32.646 -16.055   8.830  0.00  0.00    -0.318 NA
ATOM     12  H   LIG    1       31.697 -16.057   8.464  0.00  0.00    +0.119 HD
ATOM     13  H   LIG    1       33.158 -16.462   8.045  0.00  0.00    +0.119 HD
ENDBRANCH   7  11
ENDBRANCH   5   7
ENDBRANCH   4   5
ENDBRANCH   3   4
ENDBRANCH   2   3
BRANCH   2  14
ATOM     14  C   LIG    1       29.274 -18.945   5.329  0.00  0.00    +0.191 C 
BRANCH  14  15
ATOM     15  O   LIG    1       28.648 -17.815   4.733  0.00  0.00    -0.392 OA
ATOM     16  H   LIG    1       28.208 -17.277   5.415  0.00  0.00    +0.209 HD
ENDBRANCH  14  15
ENDBRANCH   2  14
ENDBRANCH   1   2
BRANCH   1  17
ATOM     17  C   LIG    1       28.671 -20.878   7.308  0.00  0.00    +0.287 C 
BRANCH  17  18
ATOM     18  N   LIG    1       27.252 -21.201   7.320  0.00  0.00    -0.291 N 
ATOM     19  C   LIG    1       26.337 -20.934   6.338  0.00  0.00    +0.171 A 
ATOM     20  N   LIG    1       26.587 -20.411   5.114  0.00  0.00    -0.196 NA
ATOM     21  C   LIG    1       25.538 -19.951   4.506  0.00  0.00    +0.195 C 
ATOM     22  N   LIG    1       24.252 -20.055   5.010  0.00  0.00    -0.293 N 
ATOM     23  H   LIG    1       23.501 -19.667   4.505  0.00  0.00    +0.172 HD
ATOM     24  C   LIG    1       23.972 -20.626   6.235  0.00  0.00    +0.280 C 
ATOM     25  O   LIG    1       22.799 -20.642   6.662  0.00  0.00    -0.265 OA
ATOM     26  C   LIG    1       25.115 -21.109   6.950  0.00  0.00    +0.172 A 
ATOM     27  N   LIG    1       25.252 -21.623   8.216  0.00  0.00    -0.229 NA
ATOM     28  C   LIG    1       26.555 -21.676   8.409  0.00  0.00    +0.203 A 
BRANCH  21  29
ATOM     29  N   LIG    1       25.604 -19.298   3.315  0.00  0.00    -0.329 N 
ATOM     30  H   LIG    1       26.507 -19.125   2.908  0.00  0.00    +0.145 HD
ATOM     31  H   LIG    1       24.991 -19.613   2.573  0.00  0.00    +0.145 HD
ENDBRANCH  21  29
ENDBRANCH  17  18
ENDBRANCH   1  17
TORSDOF 12
ENDMDL
MODEL 8
REMARK VINA RESULT:      -8.0      3.229      5.798
REMARK  Name = *****
REMARK                            x       y       z     vdW  Elec       q    Type
REMARK                         _______ _______ _______ _____ _____    ______ ____
ROOT
ATOM      1  O   LIG    1       27.696 -20.317   7.114  0.00  0.00    -0.350 OA
ENDROOT
BRANCH   1   2
ATOM      2  C   LIG    1       28.456 -19.975   5.947  0.00  0.00    +0.183 C 
BRANCH   2   3
ATOM      3  C   LIG    1       27.521 -19.216   4.973  0.00  0.00    +0.266 C 
BRANCH   3   4
ATOM      4  O   LIG    1       26.282 -19.948   4.850  0.00  0.00    -0.461 OA
BRANCH   4   5
ATOM      5  C   LIG    1       25.356 -19.362   4.018  0.00  0.00    +0.324 C 
ATOM      6  O   LIG    1       25.584 -18.375   3.339  0.00  0.00    -0.249 OA
BRANCH   5   7
ATOM      7  C   LIG    1       24.087 -20.253   3.969  0.00  0.00    +0.163 C 
BRANCH   7   9
ATOM      8  C   LIG    1       21.844 -20.979   4.935  0.00  0.00    +0.009 C 
ATOM      9  C   LIG    1       22.949 -19.907   4.915  0.00  0.00    +0.011 C 
ATOM     10  C   LIG    1       22.336 -18.578   4.474  0.00  0.00    +0.009 C 
ENDBRANCH   7   9
BRANCH   7  11
ATOM     11  N   LIG    1       24.553 -21.621   4.156  0.00  0.00    -0.318 NA
ATOM     12  H   LIG    1       25.186 -21.405   4.924  0.00  0.00    +0.119 HD
ATOM     13  H   LIG    1       25.217 -21.885   3.426  0.00  0.00    +0.119 HD
ENDBRANCH   7  11
ENDBRANCH   5   7
ENDBRANCH   4   5
ENDBRANCH   3   4
ENDBRANCH   2   3
BRANCH   2  14
ATOM     14  C   LIG    1       29.703 -19.175   6.334  0.00  0.00    +0.191 C 
BRANCH  14  15
ATOM     15  O   LIG    1       30.008 -18.101   5.451  0.00  0.00    -0.392 OA
ATOM     16  H   LIG    1       29.720 -17.256   5.838  0.00  0.00    +0.209 HD
ENDBRANCH  14  15
ENDBRANCH   2  14
ENDBRANCH   1   2
BRANCH   1  17
ATOM     17  C   LIG    1       27.603 -21.713   7.410  0.00  0.00    +0.287 C 
BRANCH  17  18
ATOM     18  N   LIG    1       26.210 -22.079   7.616  0.00  0.00    -0.291 N 
ATOM     19  C   LIG    1       25.595 -23.238   7.225  0.00  0.00    +0.171 A 
ATOM     20  N   LIG    1       26.182 -24.321   6.663  0.00  0.00    -0.196 NA
ATOM     21  C   LIG    1       25.356 -25.138   6.088  0.00  0.00    +0.195 C 
ATOM     22  N   LIG    1       23.980 -24.980   6.112  0.00  0.00    -0.293 N 
ATOM     23  H   LIG    1       23.410 -25.628   5.639  0.00  0.00    +0.172 HD
ATOM     24  C   LIG    1       23.360 -23.908   6.720  0.00  0.00    +0.280 C 
ATOM     25  O   LIG    1       22.119 -23.790   6.662  0.00  0.00    -0.265 OA
ATOM     26  C   LIG    1       24.249 -22.965   7.331  0.00  0.00    +0.172 A 
ATOM     27  N   LIG    1       24.024 -21.744   7.919  0.00  0.00    -0.229 NA
ATOM     28  C   LIG    1       25.228 -21.235   8.088  0.00  0.00    +0.203 A 
BRANCH  21  29
ATOM     29  N   LIG    1       25.766 -26.226   5.383  0.00  0.00    -0.329 N 
ATOM     30  H   LIG    1       25.398 -27.128   5.628  0.00  0.00    +0.145 HD
ATOM     31  H   LIG    1       25.760 -26.158   4.372  0.00  0.00    +0.145 HD
ENDBRANCH  21  29
ENDBRANCH  17  18
ENDBRANCH   1  17
TORSDOF 12
ENDMDL
MODEL 9
REMARK VINA RESULT:      -7.8      2.847      7.860
REMARK  Name = *****
REMARK                            x       y       z     vdW  Elec       q    Type
REMARK                         _______ _______ _______ _____ _____    ______ ____
ROOT
ATOM      1  O   LIG    1       27.344 -21.549   6.919  0.00  0.00    -0.350 OA
ENDROOT
BRANCH   1   2
ATOM      2  C   LIG    1       26.018 -21.813   7.400  0.00  0.00    +0.183 C 
BRANCH   2   3
ATOM      3  C   LIG    1       25.566 -23.179   6.827  0.00  0.00    +0.266 C 
BRANCH   3   4
ATOM      4  O   LIG    1       24.694 -22.947   5.700  0.00  0.00    -0.461 OA
BRANCH   4   5
ATOM      5  C   LIG    1       23.480 -22.387   6.025  0.00  0.00    +0.324 C 
ATOM      6  O   LIG    1       22.928 -22.545   7.101  0.00  0.00    -0.249 OA
BRANCH   5   7
ATOM      7  C   LIG    1       23.051 -21.420   4.891  0.00  0.00    +0.163 C 
BRANCH   7   9
ATOM      8  C   LIG    1       22.391 -18.959   4.832  0.00  0.00    +0.009 C 
ATOM      9  C   LIG    1       23.534 -19.982   4.975  0.00  0.00    +0.011 C 
ATOM     10  C   LIG    1       24.549 -19.742   3.858  0.00  0.00    +0.009 C 
ENDBRANCH   7   9
BRANCH   7  11
ATOM     11  N   LIG    1       21.598 -21.503   4.826  0.00  0.00    -0.318 NA
ATOM     12  H   LIG    1       21.535 -22.441   5.217  0.00  0.00    +0.119 HD
ATOM     13  H   LIG    1       21.282 -21.670   3.869  0.00  0.00    +0.119 HD
ENDBRANCH   7  11
ENDBRANCH   5   7
ENDBRANCH   4   5
ENDBRANCH   3   4
ENDBRANCH   2   3
BRANCH   2  14
ATOM     14  C   LIG    1       25.981 -21.756   8.929  0.00  0.00    +0.191 C 
BRANCH  14  15
ATOM     15  O   LIG    1       26.002 -20.439   9.468  0.00  0.00    -0.392 OA
ATOM     16  H   LIG    1       26.686 -20.369  10.156  0.00  0.00    +0.209 HD
ENDBRANCH  14  15
ENDBRANCH   2  14
ENDBRANCH   1   2
BRANCH   1  17
ATOM     17  C   LIG    1       27.453 -20.531   5.920  0.00  0.00    +0.287 C 
BRANCH  17  18
ATOM     18  N   LIG    1       28.710 -19.815   6.085  0.00  0.00    -0.291 N 
ATOM     19  C   LIG    1       29.724 -20.119   6.953  0.00  0.00    +0.171 A 
ATOM     20  N   LIG    1       29.809 -21.206   7.755  0.00  0.00    -0.196 NA
ATOM     21  C   LIG    1       30.684 -21.100   8.707  0.00  0.00    +0.195 C 
ATOM     22  N   LIG    1       31.529 -20.012   8.854  0.00  0.00    -0.293 N 
ATOM     23  H   LIG    1       32.158 -19.986   9.611  0.00  0.00    +0.172 HD
ATOM     24  C   LIG    1       31.489 -18.915   8.018  0.00  0.00    +0.280 C 
ATOM     25  O   LIG    1       32.237 -17.940   8.233  0.00  0.00    -0.265 OA
ATOM     26  C   LIG    1       30.505 -18.984   6.979  0.00  0.00    +0.172 A 
ATOM     27  N   LIG    1       30.094 -18.064   6.046  0.00  0.00    -0.229 NA
ATOM     28  C   LIG    1       29.012 -18.598   5.515  0.00  0.00    +0.203 A 
BRANCH  21  29
ATOM     29  N   LIG    1       30.841 -22.045   9.672  0.00  0.00    -0.329 N 
ATOM     30  H   LIG    1       31.462 -22.816   9.497  0.00  0.00    +0.145 HD
ATOM     31  H   LIG    1       31.010 -21.725  10.618  0.00  0.00    +0.145 HD
ENDBRANCH  21  29
ENDBRANCH  17  18
ENDBRANCH   1  17
TORSDOF 12
ENDMDL
