MODEL 1
REMARK VINA RESULT:      -4.7      0.000      0.000
REMARK  Name = *****
REMARK                            x       y       z     vdW  Elec       q    Type
REMARK                         _______ _______ _______ _____ _____    ______ ____
ROOT
ATOM      1  N   LIG    1       25.899 -18.948   4.119  0.00  0.00    -0.310 N 
ENDROOT
BRANCH   1   2
ATOM      2  C   LIG    1       26.767 -19.504   5.083  0.00  0.00    +0.121 A 
ATOM      3  N   LIG    1       28.055 -19.103   5.136  0.00  0.00    -0.240 NA
ATOM      4  C   LIG    1       28.862 -19.654   6.069  0.00  0.00    +0.113 A 
ATOM      5  C   LIG    1       28.448 -20.593   7.000  0.00  0.00    +0.020 A 
ATOM      6  C   LIG    1       27.127 -21.000   6.954  0.00  0.00    +0.005 A 
ATOM      7  C   LIG    1       26.278 -20.461   5.984  0.00  0.00    +0.043 A 
ENDBRANCH   1   2
BRANCH   1   8
ATOM      8  C   LIG    1       26.580 -17.942   3.283  0.00  0.00    +0.141 C 
BRANCH   8  12
ATOM      9  C   LIG    1       25.193 -13.914   4.108  0.00  0.00    +0.120 A 
ATOM     10  C   LIG    1       24.269 -14.954   4.034  0.00  0.00    +0.046 A 
ATOM     11  C   LIG    1       24.714 -16.256   3.733  0.00  0.00    +0.009 A 
ATOM     12  C   LIG    1       26.075 -16.533   3.540  0.00  0.00    -0.030 A 
ATOM     13  C   LIG    1       26.980 -15.474   3.592  0.00  0.00    +0.009 A 
ATOM     14  C   LIG    1       26.543 -14.182   3.861  0.00  0.00    +0.046 A 
BRANCH   9  16
ATOM     15  C   LIG    1       23.924 -12.063   3.396  0.00  0.00    +0.277 C 
ATOM     16  O   LIG    1       24.712 -12.672   4.423  0.00  0.00    -0.495 OA
ENDBRANCH   9  16
ENDBRANCH   8  12
ENDBRANCH   1   8
BRANCH   1  17
ATOM     17  C   LIG    1       25.117 -19.997   3.419  0.00  0.00    +0.122 C 
BRANCH  17  18
ATOM     18  C   LIG    1       23.577 -19.782   3.442  0.00  0.00    +0.103 C 
BRANCH  18  19
ATOM     19  N   LIG    1       23.044 -19.244   4.718  0.00  0.00    -0.307 NA
ATOM     20  C   LIG    1       22.586 -20.348   5.570  0.00  0.00    +0.104 C 
ATOM     21  C   LIG    1       21.941 -18.302   4.512  0.00  0.00    +0.104 C 
ENDBRANCH  18  19
ENDBRANCH  17  18
ENDBRANCH   1  17
TORSDOF 7
ENDMDL
MODEL 2
REMARK VINA RESULT:      -3.9      3.017      6.864
REMARK  Name = *****
REMARK                            x       y       z     vdW  Elec       q    Type
REMARK                         _______ _______ _______ _____ _____    ______ ____
ROOT
ATOM      1  N   LIG    1       26.106 -16.060   3.782  0.00  0.00    -0.310 N 
ENDROOT
BRANCH   1   2
ATOM      2  C   LIG    1       25.394 -14.922   3.349  0.00  0.00    +0.121 A 
ATOM      3  N   LIG    1       25.747 -14.306   2.200  0.00  0.00    -0.240 NA
ATOM      4  C   LIG    1       25.048 -13.218   1.812  0.00  0.00    +0.113 A 
ATOM      5  C   LIG    1       23.966 -12.700   2.506  0.00  0.00    +0.020 A 
ATOM      6  C   LIG    1       23.596 -13.332   3.679  0.00  0.00    +0.005 A 
ATOM      7  C   LIG    1       24.318 -14.447   4.112  0.00  0.00    +0.043 A 
ENDBRANCH   1   2
BRANCH   1   8
ATOM      8  C   LIG    1       25.831 -17.235   2.933  0.00  0.00    +0.141 C 
BRANCH   8  12
ATOM      9  C   LIG    1       23.744 -20.438   4.984  0.00  0.00    +0.120 A 
ATOM     10  C   LIG    1       23.020 -19.355   4.491  0.00  0.00    +0.046 A 
ATOM     11  C   LIG    1       23.700 -18.299   3.854  0.00  0.00    +0.009 A 
ATOM     12  C   LIG    1       25.090 -18.331   3.677  0.00  0.00    -0.030 A 
ATOM     13  C   LIG    1       25.800 -19.411   4.201  0.00  0.00    +0.009 A 
ATOM     14  C   LIG    1       25.137 -20.444   4.855  0.00  0.00    +0.046 A 
BRANCH   9  16
ATOM     15  C   LIG    1       23.138 -21.489   7.002  0.00  0.00    +0.277 C 
ATOM     16  O   LIG    1       23.035 -21.448   5.575  0.00  0.00    -0.495 OA
ENDBRANCH   9  16
ENDBRANCH   8  12
ENDBRANCH   1   8
BRANCH   1  17
ATOM     17  C   LIG    1       27.528 -15.741   4.062  0.00  0.00    +0.122 C 
BRANCH  17  18
ATOM     18  C   LIG    1       27.954 -14.294   3.687  0.00  0.00    +0.103 C 
BRANCH  18  19
ATOM     19  N   LIG    1       28.351 -13.444   4.837  0.00  0.00    -0.307 NA
ATOM     20  C   LIG    1       27.171 -13.132   5.654  0.00  0.00    +0.104 C 
ATOM     21  C   LIG    1       28.993 -12.197   4.417  0.00  0.00    +0.104 C 
ENDBRANCH  18  19
ENDBRANCH  17  18
ENDBRANCH   1  17
TORSDOF 7
ENDMDL
MODEL 3
REMARK VINA RESULT:      -3.6      3.027      6.974
REMARK  Name = *****
REMARK                            x       y       z     vdW  Elec       q    Type
REMARK                         _______ _______ _______ _____ _____    ______ ____
ROOT
ATOM      1  N   LIG    1       25.993 -15.854   3.808  0.00  0.00    -0.310 N 
ENDROOT
BRANCH   1   2
ATOM      2  C   LIG    1       25.298 -14.660   3.521  0.00  0.00    +0.121 A 
ATOM      3  N   LIG    1       24.518 -14.093   4.467  0.00  0.00    -0.240 NA
ATOM      4  C   LIG    1       23.865 -12.951   4.162  0.00  0.00    +0.113 A 
ATOM      5  C   LIG    1       23.961 -12.301   2.941  0.00  0.00    +0.020 A 
ATOM      6  C   LIG    1       24.765 -12.874   1.973  0.00  0.00    +0.005 A 
ATOM      7  C   LIG    1       25.434 -14.067   2.257  0.00  0.00    +0.043 A 
ENDBRANCH   1   2
BRANCH   1   8
ATOM      8  C   LIG    1       25.614 -16.944   2.890  0.00  0.00    +0.141 C 
BRANCH   8  12
ATOM      9  C   LIG    1       23.747 -20.330   4.860  0.00  0.00    +0.120 A 
ATOM     10  C   LIG    1       22.972 -19.224   4.518  0.00  0.00    +0.046 A 
ATOM     11  C   LIG    1       23.583 -18.111   3.909  0.00  0.00    +0.009 A 
ATOM     12  C   LIG    1       24.952 -18.107   3.608  0.00  0.00    -0.030 A 
ATOM     13  C   LIG    1       25.716 -19.212   3.982  0.00  0.00    +0.009 A 
ATOM     14  C   LIG    1       25.123 -20.303   4.608  0.00  0.00    +0.046 A 
BRANCH   9  16
ATOM     15  C   LIG    1       23.231 -21.472   6.853  0.00  0.00    +0.277 C 
ATOM     16  O   LIG    1       23.102 -21.394   5.430  0.00  0.00    -0.495 OA
ENDBRANCH   9  16
ENDBRANCH   8  12
ENDBRANCH   1   8
BRANCH   1  17
ATOM     17  C   LIG    1       27.442 -15.606   4.010  0.00  0.00    +0.122 C 
BRANCH  17  18
ATOM     18  C   LIG    1       27.919 -14.183   3.605  0.00  0.00    +0.103 C 
BRANCH  18  19
ATOM     19  N   LIG    1       28.477 -13.374   4.717  0.00  0.00    -0.307 NA
ATOM     20  C   LIG    1       27.434 -13.123   5.719  0.00  0.00    +0.104 C 
ATOM     21  C   LIG    1       29.027 -12.096   4.261  0.00  0.00    +0.104 C 
ENDBRANCH  18  19
ENDBRANCH  17  18
ENDBRANCH   1  17
TORSDOF 7
ENDMDL
MODEL 4
REMARK VINA RESULT:      -3.1      3.056      6.222
REMARK  Name = *****
REMARK                            x       y       z     vdW  Elec       q    Type
REMARK                         _______ _______ _______ _____ _____    ______ ____
ROOT
ATOM      1  N   LIG    1       25.747 -15.500   3.362  0.00  0.00    -0.310 N 
ENDROOT
BRANCH   1   2
ATOM      2  C   LIG    1       26.725 -14.541   3.701  0.00  0.00    +0.121 A 
ATOM      3  N   LIG    1       27.504 -14.007   2.736  0.00  0.00    -0.240 NA
ATOM      4  C   LIG    1       28.431 -13.092   3.090  0.00  0.00    +0.113 A 
ATOM      5  C   LIG    1       28.623 -12.640   4.387  0.00  0.00    +0.020 A 
ATOM      6  C   LIG    1       27.822 -13.178   5.377  0.00  0.00    +0.005 A 
ATOM      7  C   LIG    1       26.870 -14.142   5.038  0.00  0.00    +0.043 A 
ENDBRANCH   1   2
BRANCH   1   8
ATOM      8  C   LIG    1       26.313 -16.860   3.293  0.00  0.00    +0.141 C 
BRANCH   8  12
ATOM      9  C   LIG    1       23.381 -19.869   4.379  0.00  0.00    +0.120 A 
ATOM     10  C   LIG    1       24.729 -20.217   4.317  0.00  0.00    +0.046 A 
ATOM     11  C   LIG    1       25.678 -19.250   3.932  0.00  0.00    +0.009 A 
ATOM     12  C   LIG    1       25.297 -17.933   3.643  0.00  0.00    -0.030 A 
ATOM     13  C   LIG    1       23.940 -17.611   3.685  0.00  0.00    +0.009 A 
ATOM     14  C   LIG    1       22.996 -18.569   4.037  0.00  0.00    +0.046 A 
BRANCH   9  16
ATOM     15  C   LIG    1       22.835 -21.465   6.021  0.00  0.00    +0.277 C 
ATOM     16  O   LIG    1       22.503 -20.839   4.778  0.00  0.00    -0.495 OA
ENDBRANCH   9  16
ENDBRANCH   8  12
ENDBRANCH   1   8
BRANCH   1  17
ATOM     17  C   LIG    1       24.507 -15.318   4.157  0.00  0.00    +0.122 C 
BRANCH  17  18
ATOM     18  C   LIG    1       23.620 -14.121   3.711  0.00  0.00    +0.103 C 
BRANCH  18  19
ATOM     19  N   LIG    1       24.324 -12.817   3.646  0.00  0.00    -0.307 NA
ATOM     20  C   LIG    1       23.791 -11.913   4.673  0.00  0.00    +0.104 C 
ATOM     21  C   LIG    1       24.206 -12.179   2.333  0.00  0.00    +0.104 C 
ENDBRANCH  18  19
ENDBRANCH  17  18
ENDBRANCH   1  17
TORSDOF 7
ENDMDL
