MODEL 1
REMARK VINA RESULT:      -0.7      0.000      0.000
REMARK  Name = *****
REMARK                            x       y       z     vdW  Elec       q    Type
REMARK                         _______ _______ _______ _____ _____    ______ ____
ROOT
ATOM      1  C   LIG    1       24.072 -19.206   3.208  0.00  0.00    -0.016 C 
ATOM      2  C   LIG    1       24.855 -18.455   4.010  0.00  0.00    -0.011 C 
ATOM      3  C   LIG    1       26.038 -18.999   4.730  0.00  0.00    +0.024 A 
ATOM      4  C   LIG    1       27.321 -18.427   4.656  0.00  0.00    +0.129 A 
ATOM      5  C   LIG    1       28.374 -18.991   5.397  0.00  0.00    +0.046 A 
ATOM      6  C   LIG    1       28.166 -20.095   6.222  0.00  0.00    +0.004 A 
ATOM      7  C   LIG    1       26.893 -20.633   6.341  0.00  0.00    +0.001 A 
ATOM      8  O   LIG    1       27.707 -17.303   3.970  0.00  0.00    -0.487 OA
ATOM      9  C   LIG    1       26.864 -16.787   2.942  0.00  0.00    +0.265 C 
ATOM     10  C   LIG    1       25.597 -16.161   3.472  0.00  0.00    -0.003 A 
ATOM     11  C   LIG    1       25.395 -14.776   3.446  0.00  0.00    +0.007 A 
ATOM     12  C   LIG    1       24.209 -14.229   3.939  0.00  0.00    +0.000 A 
ATOM     13  C   LIG    1       23.221 -15.060   4.465  0.00  0.00    +0.001 A 
ATOM     14  C   LIG    1       23.412 -16.442   4.496  0.00  0.00    +0.009 A 
ATOM     15  C   LIG    1       25.838 -20.082   5.611  0.00  0.00    +0.012 A 
ATOM     16  C   LIG    1       24.596 -16.996   3.995  0.00  0.00    -0.011 A 
ENDROOT
BRANCH   1  17
ATOM     17  C   LIG    1       24.218 -20.670   2.848  0.00  0.00    +0.043 C 
BRANCH  17  18
ATOM     18  C   LIG    1       23.509 -21.572   3.880  0.00  0.00    +0.088 C 
BRANCH  18  20
ATOM     19  C   LIG    1       21.238 -21.014   4.458  0.00  0.00    +0.104 C 
ATOM     20  N   LIG    1       22.647 -20.840   4.831  0.00  0.00    -0.308 NA
ATOM     21  C   LIG    1       22.839 -21.304   6.209  0.00  0.00    +0.104 C 
ENDBRANCH  18  20
ENDBRANCH  17  18
ENDBRANCH   1  17
TORSDOF 3
ENDMDL
MODEL 2
REMARK VINA RESULT:      -0.3      2.460      5.310
REMARK  Name = *****
REMARK                            x       y       z     vdW  Elec       q    Type
REMARK                         _______ _______ _______ _____ _____    ______ ____
ROOT
ATOM      1  C   LIG    1       25.751 -17.850   3.553  0.00  0.00    -0.016 C 
ATOM      2  C   LIG    1       25.816 -19.078   4.111  0.00  0.00    -0.011 C 
ATOM      3  C   LIG    1       26.921 -19.500   5.013  0.00  0.00    +0.024 A 
ATOM      4  C   LIG    1       26.709 -20.052   6.290  0.00  0.00    +0.129 A 
ATOM      5  C   LIG    1       27.813 -20.453   7.062  0.00  0.00    +0.046 A 
ATOM      6  C   LIG    1       29.115 -20.335   6.577  0.00  0.00    +0.004 A 
ATOM      7  C   LIG    1       29.329 -19.840   5.298  0.00  0.00    +0.001 A 
ATOM      8  O   LIG    1       25.514 -20.322   6.907  0.00  0.00    -0.487 OA
ATOM      9  C   LIG    1       24.321 -19.714   6.416  0.00  0.00    +0.265 C 
ATOM     10  C   LIG    1       23.881 -20.265   5.082  0.00  0.00    -0.003 A 
ATOM     11  C   LIG    1       22.750 -21.083   4.961  0.00  0.00    +0.007 A 
ATOM     12  C   LIG    1       22.367 -21.572   3.711  0.00  0.00    +0.000 A 
ATOM     13  C   LIG    1       23.111 -21.252   2.576  0.00  0.00    +0.001 A 
ATOM     14  C   LIG    1       24.239 -20.438   2.685  0.00  0.00    +0.009 A 
ATOM     15  C   LIG    1       28.240 -19.439   4.521  0.00  0.00    +0.012 A 
ATOM     16  C   LIG    1       24.624 -19.939   3.935  0.00  0.00    -0.011 A 
ENDROOT
BRANCH   1  17
ATOM     17  C   LIG    1       26.700 -16.683   3.726  0.00  0.00    +0.043 C 
BRANCH  17  18
ATOM     18  C   LIG    1       26.003 -15.345   3.402  0.00  0.00    +0.088 C 
BRANCH  18  20
ATOM     19  C   LIG    1       26.136 -13.107   2.522  0.00  0.00    +0.104 C 
ATOM     20  N   LIG    1       26.910 -14.302   2.880  0.00  0.00    -0.308 NA
ATOM     21  C   LIG    1       27.938 -13.933   3.859  0.00  0.00    +0.104 C 
ENDBRANCH  18  20
ENDBRANCH  17  18
ENDBRANCH   1  17
TORSDOF 3
ENDMDL
MODEL 3
REMARK VINA RESULT:       0.4      2.275      4.659
REMARK  Name = *****
REMARK                            x       y       z     vdW  Elec       q    Type
REMARK                         _______ _______ _______ _____ _____    ______ ____
ROOT
ATOM      1  C   LIG    1       27.327 -15.463   4.117  0.00  0.00    -0.016 C 
ATOM      2  C   LIG    1       26.072 -15.510   3.622  0.00  0.00    -0.011 C 
ATOM      3  C   LIG    1       25.240 -16.743   3.637  0.00  0.00    +0.024 A 
ATOM      4  C   LIG    1       23.937 -16.791   4.166  0.00  0.00    +0.129 A 
ATOM      5  C   LIG    1       23.212 -17.993   4.109  0.00  0.00    +0.046 A 
ATOM      6  C   LIG    1       23.750 -19.135   3.518  0.00  0.00    +0.004 A 
ATOM      7  C   LIG    1       25.015 -19.081   2.947  0.00  0.00    +0.001 A 
ATOM      8  O   LIG    1       23.207 -15.766   4.712  0.00  0.00    -0.487 OA
ATOM      9  C   LIG    1       23.875 -14.574   5.124  0.00  0.00    +0.265 C 
ATOM     10  C   LIG    1       24.378 -13.746   3.968  0.00  0.00    -0.003 A 
ATOM     11  C   LIG    1       23.781 -12.527   3.622  0.00  0.00    +0.007 A 
ATOM     12  C   LIG    1       24.273 -11.782   2.550  0.00  0.00    +0.000 A 
ATOM     13  C   LIG    1       25.360 -12.251   1.812  0.00  0.00    +0.001 A 
ATOM     14  C   LIG    1       25.962 -13.464   2.147  0.00  0.00    +0.009 A 
ATOM     15  C   LIG    1       25.745 -17.892   2.996  0.00  0.00    +0.012 A 
ATOM     16  C   LIG    1       25.477 -14.211   3.227  0.00  0.00    -0.011 A 
ENDROOT
BRANCH   1  17
ATOM     17  C   LIG    1       28.119 -16.566   4.788  0.00  0.00    +0.043 C 
BRANCH  17  18
ATOM     18  C   LIG    1       27.536 -17.954   4.452  0.00  0.00    +0.088 C 
BRANCH  18  20
ATOM     19  C   LIG    1       29.347 -18.595   5.905  0.00  0.00    +0.104 C 
ATOM     20  N   LIG    1       28.343 -19.086   4.954  0.00  0.00    -0.308 NA
ATOM     21  C   LIG    1       27.512 -20.098   5.614  0.00  0.00    +0.104 C 
ENDBRANCH  18  20
ENDBRANCH  17  18
ENDBRANCH   1  17
TORSDOF 3
ENDMDL
MODEL 4
REMARK VINA RESULT:       1.5      1.883      3.902
REMARK  Name = *****
REMARK                            x       y       z     vdW  Elec       q    Type
REMARK                         _______ _______ _______ _____ _____    ______ ____
ROOT
ATOM      1  C   LIG    1       27.465 -17.117   4.256  0.00  0.00    -0.016 C 
ATOM      2  C   LIG    1       26.276 -16.956   3.637  0.00  0.00    -0.011 C 
ATOM      3  C   LIG    1       25.296 -18.062   3.467  0.00  0.00    +0.024 A 
ATOM      4  C   LIG    1       23.947 -17.968   3.858  0.00  0.00    +0.129 A 
ATOM      5  C   LIG    1       23.084 -19.053   3.629  0.00  0.00    +0.046 A 
ATOM      6  C   LIG    1       23.532 -20.213   3.001  0.00  0.00    +0.004 A 
ATOM      7  C   LIG    1       24.848 -20.294   2.565  0.00  0.00    +0.001 A 
ATOM      8  O   LIG    1       23.301 -16.893   4.414  0.00  0.00    -0.487 OA
ATOM      9  C   LIG    1       24.067 -15.836   4.988  0.00  0.00    +0.265 C 
ATOM     10  C   LIG    1       24.796 -15.006   3.960  0.00  0.00    -0.003 A 
ATOM     11  C   LIG    1       24.402 -13.696   3.661  0.00  0.00    +0.007 A 
ATOM     12  C   LIG    1       25.101 -12.952   2.709  0.00  0.00    +0.000 A 
ATOM     13  C   LIG    1       26.192 -13.512   2.046  0.00  0.00    +0.001 A 
ATOM     14  C   LIG    1       26.593 -14.817   2.336  0.00  0.00    +0.009 A 
ATOM     15  C   LIG    1       25.716 -19.222   2.785  0.00  0.00    +0.012 A 
ATOM     16  C   LIG    1       25.900 -15.564   3.296  0.00  0.00    -0.011 A 
ENDROOT
BRANCH   1  17
ATOM     17  C   LIG    1       28.030 -18.361   4.908  0.00  0.00    +0.043 C 
BRANCH  17  18
ATOM     18  C   LIG    1       26.942 -19.441   5.086  0.00  0.00    +0.088 C 
BRANCH  18  20
ATOM     19  C   LIG    1       25.575 -20.700   6.618  0.00  0.00    +0.104 C 
ATOM     20  N   LIG    1       26.843 -19.979   6.459  0.00  0.00    -0.308 NA
ATOM     21  C   LIG    1       27.953 -20.884   6.771  0.00  0.00    +0.104 C 
ENDBRANCH  18  20
ENDBRANCH  17  18
ENDBRANCH   1  17
TORSDOF 3
ENDMDL
MODEL 5
REMARK VINA RESULT:       1.8      2.616      5.544
REMARK  Name = *****
REMARK                            x       y       z     vdW  Elec       q    Type
REMARK                         _______ _______ _______ _____ _____    ______ ____
ROOT
ATOM      1  C   LIG    1       22.543 -16.121   4.654  0.00  0.00    -0.016 C 
ATOM      2  C   LIG    1       22.772 -17.343   4.128  0.00  0.00    -0.011 C 
ATOM      3  C   LIG    1       24.131 -17.940   4.028  0.00  0.00    +0.024 A 
ATOM      4  C   LIG    1       24.453 -19.218   4.521  0.00  0.00    +0.129 A 
ATOM      5  C   LIG    1       25.757 -19.715   4.354  0.00  0.00    +0.046 A 
ATOM      6  C   LIG    1       26.732 -18.975   3.688  0.00  0.00    +0.004 A 
ATOM      7  C   LIG    1       26.408 -17.736   3.153  0.00  0.00    +0.001 A 
ATOM      8  O   LIG    1       23.622 -20.125   5.129  0.00  0.00    -0.487 OA
ATOM      9  C   LIG    1       22.368 -19.685   5.648  0.00  0.00    +0.265 C 
ATOM     10  C   LIG    1       21.373 -19.329   4.572  0.00  0.00    -0.003 A 
ATOM     11  C   LIG    1       20.256 -20.132   4.308  0.00  0.00    +0.007 A 
ATOM     12  C   LIG    1       19.350 -19.772   3.309  0.00  0.00    +0.000 A 
ATOM     13  C   LIG    1       19.557 -18.613   2.563  0.00  0.00    +0.001 A 
ATOM     14  C   LIG    1       20.666 -17.805   2.816  0.00  0.00    +0.009 A 
ATOM     15  C   LIG    1       25.116 -17.231   3.312  0.00  0.00    +0.012 A 
ATOM     16  C   LIG    1       21.573 -18.158   3.822  0.00  0.00    -0.011 A 
ENDROOT
BRANCH   1  17
ATOM     17  C   LIG    1       23.537 -15.150   5.255  0.00  0.00    +0.043 C 
BRANCH  17  18
ATOM     18  C   LIG    1       23.836 -13.987   4.287  0.00  0.00    +0.088 C 
BRANCH  18  20
ATOM     19  C   LIG    1       25.340 -13.002   2.684  0.00  0.00    +0.104 C 
ATOM     20  N   LIG    1       25.231 -13.949   3.800  0.00  0.00    -0.308 NA
ATOM     21  C   LIG    1       26.167 -13.554   4.858  0.00  0.00    +0.104 C 
ENDBRANCH  18  20
ENDBRANCH  17  18
ENDBRANCH   1  17
TORSDOF 3
ENDMDL
