MODEL 1
REMARK VINA RESULT:      -4.1      0.000      0.000
REMARK  Name = *****
REMARK                            x       y       z     vdW  Elec       q    Type
REMARK                         _______ _______ _______ _____ _____    ______ ____
ROOT
ATOM      1  C1*   I A  1       25.127 -15.771   3.143  0.00  0.00    +0.253 C 
ATOM      2  C2*   I A  1       24.773 -14.834   4.298  0.00  0.00    +0.195 C 
ATOM      3  C3*   I A  1       25.439 -13.544   3.847  0.00  0.00    +0.178 C 
ATOM      4  C4*   I A  1       26.672 -14.015   3.074  0.00  0.00    +0.177 C 
ATOM      5  O4*   I A  1       26.425 -15.376   2.650  0.00  0.00    -0.346 OA
ENDROOT
BRANCH   1  11
ATOM      6  O6    I A  1       24.136 -21.475   4.649  0.00  0.00    -0.265 OA
ATOM      7  C6    I A  1       23.801 -20.312   4.462  0.00  0.00    +0.279 C 
ATOM      8  C5    I A  1       24.672 -19.228   4.053  0.00  0.00    +0.172 A 
ATOM      9  N7    I A  1       26.009 -19.229   3.754  0.00  0.00    -0.229 NA
ATOM     10  C8    I A  1       26.268 -17.983   3.413  0.00  0.00    +0.204 A 
ATOM     11  N9    I A  1       25.155 -17.179   3.484  0.00  0.00    -0.285 N 
ATOM     12  C4    I A  1       24.122 -17.970   3.908  0.00  0.00    +0.169 A 
ATOM     13  N3    I A  1       22.834 -17.594   4.108  0.00  0.00    -0.218 NA
ATOM     14  C2    I A  1       22.071 -18.589   4.451  0.00  0.00    +0.201 C 
ATOM     15  N1    I A  1       22.488 -19.894   4.629  0.00  0.00    -0.312 N 
ATOM     16  H1    I A  1       21.837 -20.613   4.904  0.00  0.00    +0.170 HD
ENDBRANCH   1  11
BRANCH   2  17
ATOM     17  O2*   I A  1       23.363 -14.656   4.457  0.00  0.00    -0.385 OA
ATOM     18  H2*   I A  1       22.999 -15.560   4.575  0.00  0.00    +0.210 HD
ENDBRANCH   2  17
BRANCH   3  19
ATOM     19  O3*   I A  1       24.518 -12.876   2.957  0.00  0.00    -0.386 OA
ATOM     20  H3*   I A  1       24.932 -12.859   2.074  0.00  0.00    +0.210 HD
ENDBRANCH   3  19
BRANCH   4  21
ATOM     21  C5*   I A  1       27.965 -13.975   3.891  0.00  0.00    +0.190 C 
BRANCH  21  22
ATOM     22  O5*   I A  1       28.898 -13.045   3.363  0.00  0.00    -0.392 OA
ATOM     23  H5*   I A  1       29.693 -13.556   3.091  0.00  0.00    +0.209 HD
ENDBRANCH  21  22
ENDBRANCH   4  21
TORSDOF 5
ENDMDL
MODEL 2
REMARK VINA RESULT:      -3.3      1.976      6.238
REMARK  Name = *****
REMARK                            x       y       z     vdW  Elec       q    Type
REMARK                         _______ _______ _______ _____ _____    ______ ____
ROOT
ATOM      1  C1*   I A  1       23.508 -18.750   3.802  0.00  0.00    +0.253 C 
ATOM      2  C2*   I A  1       24.817 -19.507   4.027  0.00  0.00    +0.195 C 
ATOM      3  C3*   I A  1       24.302 -20.904   4.335  0.00  0.00    +0.178 C 
ATOM      4  C4*   I A  1       22.970 -20.657   5.045  0.00  0.00    +0.177 C 
ATOM      5  O4*   I A  1       22.518 -19.334   4.674  0.00  0.00    -0.346 OA
ENDROOT
BRANCH   1  11
ATOM      6  O6    I A  1       24.780 -12.925   4.303  0.00  0.00    -0.265 OA
ATOM      7  C6    I A  1       25.037 -14.087   4.011  0.00  0.00    +0.279 C 
ATOM      8  C5    I A  1       24.156 -15.225   4.183  0.00  0.00    +0.172 A 
ATOM      9  N7    I A  1       22.872 -15.289   4.656  0.00  0.00    -0.229 NA
ATOM     10  C8    I A  1       22.551 -16.564   4.559  0.00  0.00    +0.204 A 
ATOM     11  N9    I A  1       23.577 -17.323   4.047  0.00  0.00    -0.285 N 
ATOM     12  C4    I A  1       24.621 -16.470   3.812  0.00  0.00    +0.169 A 
ATOM     13  N3    I A  1       25.835 -16.789   3.297  0.00  0.00    -0.218 NA
ATOM     14  C2    I A  1       26.596 -15.747   3.132  0.00  0.00    +0.201 C 
ATOM     15  N1    I A  1       26.256 -14.448   3.455  0.00  0.00    -0.312 N 
ATOM     16  H1    I A  1       26.905 -13.690   3.305  0.00  0.00    +0.170 HD
ENDBRANCH   1  11
BRANCH   2  17
ATOM     17  O2*   I A  1       25.661 -19.513   2.872  0.00  0.00    -0.385 OA
ATOM     18  H2*   I A  1       25.183 -20.051   2.205  0.00  0.00    +0.210 HD
ENDBRANCH   2  17
BRANCH   3  19
ATOM     19  O3*   I A  1       24.078 -21.565   3.070  0.00  0.00    -0.386 OA
ATOM     20  H3*   I A  1       23.476 -20.998   2.552  0.00  0.00    +0.210 HD
ENDBRANCH   3  19
BRANCH   4  21
ATOM     21  C5*   I A  1       23.058 -20.744   6.569  0.00  0.00    +0.190 C 
BRANCH  21  22
ATOM     22  O5*   I A  1       24.258 -21.368   6.998  0.00  0.00    -0.392 OA
ATOM     23  H5*   I A  1       24.101 -22.339   6.982  0.00  0.00    +0.209 HD
ENDBRANCH  21  22
ENDBRANCH   4  21
TORSDOF 5
ENDMDL
MODEL 3
REMARK VINA RESULT:      -2.9      1.956      5.747
REMARK  Name = *****
REMARK                            x       y       z     vdW  Elec       q    Type
REMARK                         _______ _______ _______ _____ _____    ______ ____
ROOT
ATOM      1  C1*   I A  1       25.315 -18.655   3.542  0.00  0.00    +0.253 C 
ATOM      2  C2*   I A  1       25.654 -19.432   4.813  0.00  0.00    +0.195 C 
ATOM      3  C3*   I A  1       24.563 -20.490   4.814  0.00  0.00    +0.178 C 
ATOM      4  C4*   I A  1       23.367 -19.786   4.171  0.00  0.00    +0.177 C 
ATOM      5  O4*   I A  1       23.880 -18.681   3.390  0.00  0.00    -0.346 OA
ENDROOT
BRANCH   1  11
ATOM      6  O6    I A  1       26.162 -12.739   3.819  0.00  0.00    -0.265 OA
ATOM      7  C6    I A  1       25.484 -13.758   3.876  0.00  0.00    +0.279 C 
ATOM      8  C5    I A  1       25.955 -15.110   3.652  0.00  0.00    +0.172 A 
ATOM      9  N7    I A  1       27.212 -15.575   3.368  0.00  0.00    -0.229 NA
ATOM     10  C8    I A  1       27.068 -16.883   3.301  0.00  0.00    +0.204 A 
ATOM     11  N9    I A  1       25.771 -17.279   3.526  0.00  0.00    -0.285 N 
ATOM     12  C4    I A  1       25.043 -16.141   3.741  0.00  0.00    +0.169 A 
ATOM     13  N3    I A  1       23.716 -16.060   4.014  0.00  0.00    -0.218 NA
ATOM     14  C2    I A  1       23.325 -14.839   4.234  0.00  0.00    +0.201 C 
ATOM     15  N1    I A  1       24.130 -13.719   4.181  0.00  0.00    -0.312 N 
ATOM     16  H1    I A  1       23.753 -12.800   4.356  0.00  0.00    +0.170 HD
ENDBRANCH   1  11
BRANCH   2  17
ATOM     17  O2*   I A  1       26.952 -20.033   4.769  0.00  0.00    -0.385 OA
ATOM     18  H2*   I A  1       27.406 -19.730   5.584  0.00  0.00    +0.210 HD
ENDBRANCH   2  17
BRANCH   3  19
ATOM     19  O3*   I A  1       25.016 -21.572   3.971  0.00  0.00    -0.386 OA
ATOM     20  H3*   I A  1       24.542 -21.494   3.122  0.00  0.00    +0.210 HD
ENDBRANCH   3  19
BRANCH   4  21
ATOM     21  C5*   I A  1       22.350 -19.251   5.180  0.00  0.00    +0.190 C 
BRANCH  21  22
ATOM     22  O5*   I A  1       21.834 -17.986   4.796  0.00  0.00    -0.392 OA
ATOM     23  H5*   I A  1       20.935 -18.140   4.428  0.00  0.00    +0.209 HD
ENDBRANCH  21  22
ENDBRANCH   4  21
TORSDOF 5
ENDMDL
MODEL 4
REMARK VINA RESULT:      -2.6      1.488      2.244
REMARK  Name = *****
REMARK                            x       y       z     vdW  Elec       q    Type
REMARK                         _______ _______ _______ _____ _____    ______ ____
ROOT
ATOM      1  C1*   I A  1       24.878 -15.222   3.311  0.00  0.00    +0.253 C 
ATOM      2  C2*   I A  1       24.358 -13.806   3.555  0.00  0.00    +0.195 C 
ATOM      3  C3*   I A  1       25.653 -13.009   3.544  0.00  0.00    +0.178 C 
ATOM      4  C4*   I A  1       26.687 -13.979   4.120  0.00  0.00    +0.177 C 
ATOM      5  O4*   I A  1       26.174 -15.319   3.939  0.00  0.00    -0.346 OA
ENDROOT
BRANCH   1  11
ATOM      6  O6    I A  1       22.214 -20.260   5.133  0.00  0.00    -0.265 OA
ATOM      7  C6    I A  1       23.118 -19.620   4.610  0.00  0.00    +0.279 C 
ATOM      8  C5    I A  1       23.153 -18.182   4.431  0.00  0.00    +0.172 A 
ATOM      9  N7    I A  1       22.255 -17.219   4.809  0.00  0.00    -0.229 NA
ATOM     10  C8    I A  1       22.809 -16.087   4.426  0.00  0.00    +0.204 A 
ATOM     11  N9    I A  1       24.025 -16.281   3.813  0.00  0.00    -0.285 N 
ATOM     12  C4    I A  1       24.250 -17.631   3.801  0.00  0.00    +0.169 A 
ATOM     13  N3    I A  1       25.336 -18.273   3.302  0.00  0.00    -0.218 NA
ATOM     14  C2    I A  1       25.289 -19.558   3.496  0.00  0.00    +0.201 C 
ATOM     15  N1    I A  1       24.258 -20.237   4.113  0.00  0.00    -0.312 N 
ATOM     16  H1    I A  1       24.289 -21.239   4.221  0.00  0.00    +0.170 HD
ENDBRANCH   1  11
BRANCH   2  17
ATOM     17  O2*   I A  1       23.470 -13.355   2.527  0.00  0.00    -0.385 OA
ATOM     18  H2*   I A  1       24.022 -13.283   1.720  0.00  0.00    +0.210 HD
ENDBRANCH   2  17
BRANCH   3  19
ATOM     19  O3*   I A  1       25.962 -12.714   2.165  0.00  0.00    -0.386 OA
ATOM     20  H3*   I A  1       25.423 -13.312   1.614  0.00  0.00    +0.210 HD
ENDBRANCH   3  19
BRANCH   4  21
ATOM     21  C5*   I A  1       26.982 -13.756   5.604  0.00  0.00    +0.190 C 
BRANCH  21  22
ATOM     22  O5*   I A  1       27.944 -12.733   5.807  0.00  0.00    -0.392 OA
ATOM     23  H5*   I A  1       28.753 -13.164   6.165  0.00  0.00    +0.209 HD
ENDBRANCH  21  22
ENDBRANCH   4  21
TORSDOF 5
ENDMDL
MODEL 5
REMARK VINA RESULT:      -2.5      1.873      5.997
REMARK  Name = *****
REMARK                            x       y       z     vdW  Elec       q    Type
REMARK                         _______ _______ _______ _____ _____    ______ ____
ROOT
ATOM      1  C1*   I A  1       23.497 -19.005   3.947  0.00  0.00    +0.253 C 
ATOM      2  C2*   I A  1       23.977 -20.443   3.753  0.00  0.00    +0.195 C 
ATOM      3  C3*   I A  1       23.026 -21.199   4.666  0.00  0.00    +0.178 C 
ATOM      4  C4*   I A  1       22.746 -20.215   5.803  0.00  0.00    +0.177 C 
ATOM      5  O4*   I A  1       23.033 -18.886   5.309  0.00  0.00    -0.346 OA
ENDROOT
BRANCH   1  11
ATOM      6  O6    I A  1       26.860 -14.098   3.311  0.00  0.00    -0.265 OA
ATOM      7  C6    I A  1       25.825 -14.697   3.578  0.00  0.00    +0.279 C 
ATOM      8  C5    I A  1       25.622 -16.129   3.498  0.00  0.00    +0.172 A 
ATOM      9  N7    I A  1       26.492 -17.131   3.155  0.00  0.00    -0.229 NA
ATOM     10  C8    I A  1       25.786 -18.235   3.286  0.00  0.00    +0.204 A 
ATOM     11  N9    I A  1       24.496 -17.986   3.694  0.00  0.00    -0.285 N 
ATOM     12  C4    I A  1       24.377 -16.630   3.822  0.00  0.00    +0.169 A 
ATOM     13  N3    I A  1       23.276 -15.940   4.213  0.00  0.00    -0.218 NA
ATOM     14  C2    I A  1       23.493 -14.660   4.299  0.00  0.00    +0.201 C 
ATOM     15  N1    I A  1       24.687 -14.029   4.009  0.00  0.00    -0.312 N 
ATOM     16  H1    I A  1       24.777 -13.029   4.092  0.00  0.00    +0.170 HD
ENDBRANCH   1  11
BRANCH   2  17
ATOM     17  O2*   I A  1       23.857 -20.892   2.400  0.00  0.00    -0.385 OA
ATOM     18  H2*   I A  1       24.662 -21.425   2.231  0.00  0.00    +0.210 HD
ENDBRANCH   2  17
BRANCH   3  19
ATOM     19  O3*   I A  1       21.818 -21.447   3.914  0.00  0.00    -0.386 OA
ATOM     20  H3*   I A  1       21.979 -22.235   3.362  0.00  0.00    +0.210 HD
ENDBRANCH   3  19
BRANCH   4  21
ATOM     21  C5*   I A  1       23.581 -20.470   7.059  0.00  0.00    +0.190 C 
BRANCH  21  22
ATOM     22  O5*   I A  1       24.488 -21.547   6.885  0.00  0.00    -0.392 OA
ATOM     23  H5*   I A  1       25.277 -21.188   6.419  0.00  0.00    +0.209 HD
ENDBRANCH  21  22
ENDBRANCH   4  21
TORSDOF 5
ENDMDL
MODEL 6
REMARK VINA RESULT:      -2.5      1.482      3.052
REMARK  Name = *****
REMARK                            x       y       z     vdW  Elec       q    Type
REMARK                         _______ _______ _______ _____ _____    ______ ____
ROOT
ATOM      1  C1*   I A  1       25.126 -15.003   4.100  0.00  0.00    +0.253 C 
ATOM      2  C2*   I A  1       26.099 -15.215   2.940  0.00  0.00    +0.195 C 
ATOM      3  C3*   I A  1       26.580 -13.794   2.694  0.00  0.00    +0.178 C 
ATOM      4  C4*   I A  1       25.370 -12.929   3.046  0.00  0.00    +0.177 C 
ATOM      5  O4*   I A  1       24.519 -13.706   3.921  0.00  0.00    -0.346 OA
ENDROOT
BRANCH   1  11
ATOM      6  O6    I A  1       21.649 -19.864   4.379  0.00  0.00    -0.265 OA
ATOM      7  C6    I A  1       22.703 -19.274   4.173  0.00  0.00    +0.279 C 
ATOM      8  C5    I A  1       22.918 -17.845   4.281  0.00  0.00    +0.172 A 
ATOM      9  N7    I A  1       22.058 -16.845   4.653  0.00  0.00    -0.229 NA
ATOM     10  C8    I A  1       22.791 -15.751   4.606  0.00  0.00    +0.204 A 
ATOM     11  N9    I A  1       24.085 -16.004   4.216  0.00  0.00    -0.285 N 
ATOM     12  C4    I A  1       24.173 -17.351   3.992  0.00  0.00    +0.169 A 
ATOM     13  N3    I A  1       25.273 -18.043   3.601  0.00  0.00    -0.218 NA
ATOM     14  C2    I A  1       25.059 -19.324   3.535  0.00  0.00    +0.201 C 
ATOM     15  N1    I A  1       23.857 -19.950   3.799  0.00  0.00    -0.312 N 
ATOM     16  H1    I A  1       23.765 -20.951   3.718  0.00  0.00    +0.170 HD
ENDBRANCH   1  11
BRANCH   2  17
ATOM     17  O2*   I A  1       27.190 -16.076   3.280  0.00  0.00    -0.385 OA
ATOM     18  H2*   I A  1       27.998 -15.588   3.013  0.00  0.00    +0.210 HD
ENDBRANCH   2  17
BRANCH   3  19
ATOM     19  O3*   I A  1       27.660 -13.542   3.620  0.00  0.00    -0.386 OA
ATOM     20  H3*   I A  1       27.322 -13.732   4.515  0.00  0.00    +0.210 HD
ENDBRANCH   3  19
BRANCH   4  21
ATOM     21  C5*   I A  1       24.557 -12.481   1.831  0.00  0.00    +0.190 C 
BRANCH  21  22
ATOM     22  O5*   I A  1       23.640 -11.447   2.156  0.00  0.00    -0.392 OA
ATOM     23  H5*   I A  1       24.064 -10.595   1.907  0.00  0.00    +0.209 HD
ENDBRANCH  21  22
ENDBRANCH   4  21
TORSDOF 5
ENDMDL
MODEL 7
REMARK VINA RESULT:      -2.4      1.557      2.440
REMARK  Name = *****
REMARK                            x       y       z     vdW  Elec       q    Type
REMARK                         _______ _______ _______ _____ _____    ______ ____
ROOT
ATOM      1  C1*   I A  1       24.581 -16.487   3.325  0.00  0.00    +0.253 C 
ATOM      2  C2*   I A  1       24.628 -15.229   4.191  0.00  0.00    +0.195 C 
ATOM      3  C3*   I A  1       25.905 -14.573   3.690  0.00  0.00    +0.178 C 
ATOM      4  C4*   I A  1       26.802 -15.753   3.311  0.00  0.00    +0.177 C 
ATOM      5  O4*   I A  1       25.944 -16.895   3.082  0.00  0.00    -0.346 OA
ENDROOT
BRANCH   1  11
ATOM      6  O6    I A  1       22.546 -21.571   5.735  0.00  0.00    -0.265 OA
ATOM      7  C6    I A  1       23.407 -20.856   5.238  0.00  0.00    +0.279 C 
ATOM      8  C5    I A  1       23.221 -19.499   4.763  0.00  0.00    +0.172 A 
ATOM      9  N7    I A  1       22.109 -18.699   4.778  0.00  0.00    -0.229 NA
ATOM     10  C8    I A  1       22.519 -17.561   4.255  0.00  0.00    +0.204 A 
ATOM     11  N9    I A  1       23.847 -17.598   3.900  0.00  0.00    -0.285 N 
ATOM     12  C4    I A  1       24.306 -18.848   4.213  0.00  0.00    +0.169 A 
ATOM     13  N3    I A  1       25.566 -19.321   4.042  0.00  0.00    -0.218 NA
ATOM     14  C2    I A  1       25.710 -20.531   4.497  0.00  0.00    +0.201 C 
ATOM     15  N1    I A  1       24.714 -21.294   5.073  0.00  0.00    -0.312 N 
ATOM     16  H1    I A  1       24.900 -22.231   5.396  0.00  0.00    +0.170 HD
ENDBRANCH   1  11
BRANCH   2  17
ATOM     17  O2*   I A  1       23.499 -14.373   3.991  0.00  0.00    -0.385 OA
ATOM     18  H2*   I A  1       22.931 -14.506   4.780  0.00  0.00    +0.210 HD
ENDBRANCH   2  17
BRANCH   3  19
ATOM     19  O3*   I A  1       25.561 -13.811   2.512  0.00  0.00    -0.386 OA
ATOM     20  H3*   I A  1       24.755 -13.304   2.722  0.00  0.00    +0.210 HD
ENDBRANCH   3  19
BRANCH   4  21
ATOM     21  C5*   I A  1       27.833 -16.112   4.381  0.00  0.00    +0.190 C 
BRANCH  21  22
ATOM     22  O5*   I A  1       28.190 -17.485   4.337  0.00  0.00    -0.392 OA
ATOM     23  H5*   I A  1       28.407 -17.697   3.401  0.00  0.00    +0.209 HD
ENDBRANCH  21  22
ENDBRANCH   4  21
TORSDOF 5
ENDMDL
MODEL 8
REMARK VINA RESULT:      -2.2      1.738      2.348
REMARK  Name = *****
REMARK                            x       y       z     vdW  Elec       q    Type
REMARK                         _______ _______ _______ _____ _____    ______ ____
ROOT
ATOM      1  C1*   I A  1       24.389 -14.394   4.352  0.00  0.00    +0.253 C 
ATOM      2  C2*   I A  1       25.550 -13.448   4.655  0.00  0.00    +0.195 C 
ATOM      3  C3*   I A  1       24.913 -12.097   4.369  0.00  0.00    +0.178 C 
ATOM      4  C4*   I A  1       23.921 -12.388   3.243  0.00  0.00    +0.177 C 
ATOM      5  O4*   I A  1       23.618 -13.802   3.284  0.00  0.00    -0.346 OA
ENDROOT
BRANCH   1  11
ATOM      6  O6    I A  1       24.942 -20.202   3.026  0.00  0.00    -0.265 OA
ATOM      7  C6    I A  1       24.343 -19.223   3.454  0.00  0.00    +0.279 C 
ATOM      8  C5    I A  1       24.862 -17.871   3.532  0.00  0.00    +0.172 A 
ATOM      9  N7    I A  1       26.072 -17.362   3.140  0.00  0.00    -0.229 NA
ATOM     10  C8    I A  1       25.989 -16.076   3.414  0.00  0.00    +0.204 A 
ATOM     11  N9    I A  1       24.778 -15.737   3.971  0.00  0.00    -0.285 N 
ATOM     12  C4    I A  1       24.048 -16.891   4.062  0.00  0.00    +0.169 A 
ATOM     13  N3    I A  1       22.787 -17.023   4.544  0.00  0.00    -0.218 NA
ATOM     14  C2    I A  1       22.338 -18.239   4.441  0.00  0.00    +0.201 C 
ATOM     15  N1    I A  1       23.041 -19.312   3.929  0.00  0.00    -0.312 N 
ATOM     16  H1    I A  1       22.628 -20.231   3.888  0.00  0.00    +0.170 HD
ENDBRANCH   1  11
BRANCH   2  17
ATOM     17  O2*   I A  1       25.994 -13.529   6.013  0.00  0.00    -0.385 OA
ATOM     18  H2*   I A  1       25.269 -13.981   6.496  0.00  0.00    +0.210 HD
ENDBRANCH   2  17
BRANCH   3  19
ATOM     19  O3*   I A  1       24.207 -11.696   5.564  0.00  0.00    -0.386 OA
ATOM     20  H3*   I A  1       24.848 -11.718   6.299  0.00  0.00    +0.210 HD
ENDBRANCH   3  19
BRANCH   4  21
ATOM     21  C5*   I A  1       24.445 -12.033   1.851  0.00  0.00    +0.190 C 
BRANCH  21  22
ATOM     22  O5*   I A  1       25.863 -11.981   1.814  0.00  0.00    -0.392 OA
ATOM     23  H5*   I A  1       26.189 -12.398   2.644  0.00  0.00    +0.209 HD
ENDBRANCH  21  22
ENDBRANCH   4  21
TORSDOF 5
ENDMDL
MODEL 9
REMARK VINA RESULT:      -1.9      1.656      2.812
REMARK  Name = *****
REMARK                            x       y       z     vdW  Elec       q    Type
REMARK                         _______ _______ _______ _____ _____    ______ ____
ROOT
ATOM      1  C1*   I A  1       25.698 -15.774   2.998  0.00  0.00    +0.253 C 
ATOM      2  C2*   I A  1       25.090 -14.752   3.959  0.00  0.00    +0.195 C 
ATOM      3  C3*   I A  1       25.716 -13.462   3.454  0.00  0.00    +0.178 C 
ATOM      4  C4*   I A  1       27.090 -13.894   2.940  0.00  0.00    +0.177 C 
ATOM      5  O4*   I A  1       27.024 -15.312   2.660  0.00  0.00    -0.346 OA
ENDROOT
BRANCH   1  11
ATOM      6  O6    I A  1       27.035 -21.029   5.526  0.00  0.00    -0.265 OA
ATOM      7  C6    I A  1       27.280 -19.880   5.181  0.00  0.00    +0.279 C 
ATOM      8  C5    I A  1       26.384 -18.994   4.463  0.00  0.00    +0.172 A 
ATOM      9  N7    I A  1       25.096 -19.189   4.038  0.00  0.00    -0.229 NA
ATOM     10  C8    I A  1       24.762 -18.046   3.475  0.00  0.00    +0.204 A 
ATOM     11  N9    I A  1       25.782 -17.125   3.515  0.00  0.00    -0.285 N 
ATOM     12  C4    I A  1       26.837 -17.732   4.140  0.00  0.00    +0.169 A 
ATOM     13  N3    I A  1       28.051 -17.187   4.406  0.00  0.00    -0.218 NA
ATOM     14  C2    I A  1       28.826 -17.993   5.070  0.00  0.00    +0.201 C 
ATOM     15  N1    I A  1       28.499 -19.277   5.459  0.00  0.00    -0.312 N 
ATOM     16  H1    I A  1       29.157 -19.848   5.967  0.00  0.00    +0.170 HD
ENDBRANCH   1  11
BRANCH   2  17
ATOM     17  O2*   I A  1       23.663 -14.697   3.881  0.00  0.00    -0.385 OA
ATOM     18  H2*   I A  1       23.424 -13.788   4.162  0.00  0.00    +0.210 HD
ENDBRANCH   2  17
BRANCH   3  19
ATOM     19  O3*   I A  1       24.900 -12.992   2.358  0.00  0.00    -0.386 OA
ATOM     20  H3*   I A  1       23.968 -13.127   2.614  0.00  0.00    +0.210 HD
ENDBRANCH   3  19
BRANCH   4  21
ATOM     21  C5*   I A  1       28.227 -13.636   3.930  0.00  0.00    +0.190 C 
BRANCH  21  22
ATOM     22  O5*   I A  1       29.422 -13.237   3.275  0.00  0.00    -0.392 OA
ATOM     23  H5*   I A  1       29.256 -13.302   2.307  0.00  0.00    +0.209 HD
ENDBRANCH  21  22
ENDBRANCH   4  21
TORSDOF 5
ENDMDL
