MODEL 1
REMARK VINA RESULT:      -7.9      0.000      0.000
REMARK  Name = *****
REMARK                            x       y       z     vdW  Elec       q    Type
REMARK                         _______ _______ _______ _____ _____    ______ ____
ROOT
ATOM      1  O   LIG    1       22.624 -19.558   6.107  0.00  0.00    -0.273 OA
ATOM      2  C   LIG    1       23.322 -20.549   6.330  0.00  0.00    +0.241 C 
ATOM      3  N   LIG    1       23.757 -21.418   5.320  0.00  0.00    -0.269 N 
ATOM      4  C   LIG    1       24.542 -22.585   5.583  0.00  0.00    +0.046 A 
ATOM      5  C   LIG    1       25.571 -22.620   6.548  0.00  0.00    +0.023 A 
ATOM      6  C   LIG    1       26.274 -23.811   6.803  0.00  0.00    +0.032 A 
ATOM      7  C   LIG    1       25.983 -24.961   6.077  0.00  0.00    +0.042 A 
ATOM      8  C   LIG    1       24.989 -24.944   5.109  0.00  0.00    +0.022 A 
ATOM      9 CL   LIG    1       26.860 -26.409   6.378  0.00  0.00    -0.084 Cl
ATOM     10  C   LIG    1       25.974 -21.411   7.329  0.00  0.00    +0.075 C 
ATOM     11  N   LIG    1       25.129 -20.643   7.934  0.00  0.00    -0.273 NA
ATOM     12  C   LIG    1       24.277 -23.765   4.862  0.00  0.00    +0.025 A 
ATOM     13  C   LIG    1       23.706 -20.916   7.759  0.00  0.00    +0.238 C 
ENDROOT
BRANCH  10  14
ATOM     14  C   LIG    1       27.427 -21.053   7.441  0.00  0.00    +0.001 A 
ATOM     15  C   LIG    1       27.957 -20.096   6.564  0.00  0.00    +0.010 A 
ATOM     16  C   LIG    1       29.308 -19.754   6.622  0.00  0.00    +0.001 A 
ATOM     17  C   LIG    1       30.142 -20.372   7.552  0.00  0.00    +0.000 A 
ATOM     18  C   LIG    1       29.629 -21.339   8.416  0.00  0.00    +0.001 A 
ATOM     19  C   LIG    1       28.276 -21.688   8.358  0.00  0.00    +0.010 A 
ENDBRANCH  10  14
BRANCH   3  20
ATOM     20  C   LIG    1       23.368 -21.101   3.942  0.00  0.00    +0.117 C 
BRANCH  20  21
ATOM     21  C   LIG    1       24.453 -20.332   3.235  0.00  0.00    +0.007 C 
ATOM     22  C   LIG    1       24.554 -18.828   3.340  0.00  0.00    +0.005 C 
ATOM     23  C   LIG    1       25.558 -19.696   4.044  0.00  0.00    +0.005 C 
ENDBRANCH  20  21
ENDBRANCH   3  20
TORSDOF 3
ENDMDL
MODEL 2
REMARK VINA RESULT:      -7.7      2.654      5.322
REMARK  Name = *****
REMARK                            x       y       z     vdW  Elec       q    Type
REMARK                         _______ _______ _______ _____ _____    ______ ____
ROOT
ATOM      1  O   LIG    1       28.727 -21.197   8.232  0.00  0.00    -0.273 OA
ATOM      2  C   LIG    1       27.573 -21.321   7.813  0.00  0.00    +0.241 C 
ATOM      3  N   LIG    1       27.177 -20.901   6.536  0.00  0.00    -0.269 N 
ATOM      4  C   LIG    1       25.832 -21.016   6.061  0.00  0.00    +0.046 A 
ATOM      5  C   LIG    1       25.010 -22.130   6.340  0.00  0.00    +0.023 A 
ATOM      6  C   LIG    1       23.677 -22.165   5.894  0.00  0.00    +0.032 A 
ATOM      7  C   LIG    1       23.166 -21.113   5.141  0.00  0.00    +0.042 A 
ATOM      8  C   LIG    1       23.963 -20.018   4.838  0.00  0.00    +0.022 A 
ATOM      9 CL   LIG    1       21.542 -21.171   4.580  0.00  0.00    -0.084 Cl
ATOM     10  C   LIG    1       25.507 -23.318   7.098  0.00  0.00    +0.075 C 
ATOM     11  N   LIG    1       26.145 -23.230   8.218  0.00  0.00    -0.273 NA
ATOM     12  C   LIG    1       25.285 -19.972   5.293  0.00  0.00    +0.025 A 
ATOM     13  C   LIG    1       26.485 -21.899   8.711  0.00  0.00    +0.238 C 
ENDROOT
BRANCH  10  14
ATOM     14  C   LIG    1       25.255 -24.696   6.560  0.00  0.00    +0.001 A 
ATOM     15  C   LIG    1       26.353 -25.528   6.294  0.00  0.00    +0.010 A 
ATOM     16  C   LIG    1       26.160 -26.807   5.771  0.00  0.00    +0.001 A 
ATOM     17  C   LIG    1       24.871 -27.262   5.503  0.00  0.00    +0.000 A 
ATOM     18  C   LIG    1       23.773 -26.435   5.747  0.00  0.00    +0.001 A 
ATOM     19  C   LIG    1       23.963 -25.151   6.266  0.00  0.00    +0.010 A 
ENDBRANCH  10  14
BRANCH   3  20
ATOM     20  C   LIG    1       28.203 -20.310   5.671  0.00  0.00    +0.117 C 
BRANCH  20  21
ATOM     21  C   LIG    1       28.817 -19.092   6.311  0.00  0.00    +0.007 C 
ATOM     22  C   LIG    1       30.315 -18.898   6.367  0.00  0.00    +0.005 C 
ATOM     23  C   LIG    1       29.486 -18.055   5.440  0.00  0.00    +0.005 C 
ENDBRANCH  20  21
ENDBRANCH   3  20
TORSDOF 3
ENDMDL
MODEL 3
REMARK VINA RESULT:      -7.2      2.464      5.460
REMARK  Name = *****
REMARK                            x       y       z     vdW  Elec       q    Type
REMARK                         _______ _______ _______ _____ _____    ______ ____
ROOT
ATOM      1  O   LIG    1       22.930 -24.916   6.498  0.00  0.00    -0.273 OA
ATOM      2  C   LIG    1       23.634 -23.938   6.764  0.00  0.00    +0.241 C 
ATOM      3  N   LIG    1       24.975 -23.835   6.371  0.00  0.00    -0.269 N 
ATOM      4  C   LIG    1       25.800 -22.715   6.706  0.00  0.00    +0.046 A 
ATOM      5  C   LIG    1       25.328 -21.385   6.709  0.00  0.00    +0.023 A 
ATOM      6  C   LIG    1       26.170 -20.328   7.101  0.00  0.00    +0.032 A 
ATOM      7  C   LIG    1       27.490 -20.583   7.455  0.00  0.00    +0.042 A 
ATOM      8  C   LIG    1       27.980 -21.881   7.438  0.00  0.00    +0.022 A 
ATOM      9 CL   LIG    1       28.520 -19.284   7.912  0.00  0.00    -0.084 Cl
ATOM     10  C   LIG    1       23.938 -21.031   6.292  0.00  0.00    +0.075 C 
ATOM     11  N   LIG    1       22.887 -21.639   6.734  0.00  0.00    -0.273 NA
ATOM     12  C   LIG    1       27.143 -22.937   7.064  0.00  0.00    +0.025 A 
ATOM     13  C   LIG    1       23.078 -22.794   7.604  0.00  0.00    +0.238 C 
ENDROOT
BRANCH  10  14
ATOM     14  C   LIG    1       23.721 -19.908   5.319  0.00  0.00    +0.001 A 
ATOM     15  C   LIG    1       22.498 -19.223   5.341  0.00  0.00    +0.010 A 
ATOM     16  C   LIG    1       22.250 -18.190   4.436  0.00  0.00    +0.001 A 
ATOM     17  C   LIG    1       23.219 -17.839   3.499  0.00  0.00    +0.000 A 
ATOM     18  C   LIG    1       24.433 -18.527   3.458  0.00  0.00    +0.001 A 
ATOM     19  C   LIG    1       24.683 -19.566   4.359  0.00  0.00    +0.010 A 
ENDBRANCH  10  14
BRANCH   3  20
ATOM     20  C   LIG    1       25.537 -24.943   5.591  0.00  0.00    +0.117 C 
BRANCH  20  21
ATOM     21  C   LIG    1       25.965 -26.075   6.488  0.00  0.00    +0.007 C 
ATOM     22  C   LIG    1       25.297 -27.429   6.427  0.00  0.00    +0.005 C 
ATOM     23  C   LIG    1       26.690 -27.259   5.892  0.00  0.00    +0.005 C 
ENDBRANCH  20  21
ENDBRANCH   3  20
TORSDOF 3
ENDMDL
MODEL 4
REMARK VINA RESULT:      -6.6      7.058      9.982
REMARK  Name = *****
REMARK                            x       y       z     vdW  Elec       q    Type
REMARK                         _______ _______ _______ _____ _____    ______ ____
ROOT
ATOM      1  O   LIG    1       24.408 -33.514   6.708  0.00  0.00    -0.273 OA
ATOM      2  C   LIG    1       24.653 -32.506   7.376  0.00  0.00    +0.241 C 
ATOM      3  N   LIG    1       25.923 -32.229   7.899  0.00  0.00    -0.269 N 
ATOM      4  C   LIG    1       26.201 -31.075   8.699  0.00  0.00    +0.046 A 
ATOM      5  C   LIG    1       25.639 -29.807   8.442  0.00  0.00    +0.023 A 
ATOM      6  C   LIG    1       25.903 -28.720   9.295  0.00  0.00    +0.032 A 
ATOM      7  C   LIG    1       26.754 -28.880  10.383  0.00  0.00    +0.042 A 
ATOM      8  C   LIG    1       27.334 -30.113  10.642  0.00  0.00    +0.022 A 
ATOM      9 CL   LIG    1       27.091 -27.542  11.410  0.00  0.00    -0.084 Cl
ATOM     10  C   LIG    1       24.758 -29.549   7.263  0.00  0.00    +0.075 C 
ATOM     11  N   LIG    1       23.757 -30.302   6.945  0.00  0.00    -0.273 NA
ATOM     12  C   LIG    1       27.062 -31.200   9.805  0.00  0.00    +0.025 A 
ATOM     13  C   LIG    1       23.543 -31.520   7.720  0.00  0.00    +0.238 C 
ENDROOT
BRANCH  10  14
ATOM     14  C   LIG    1       25.019 -28.354   6.391  0.00  0.00    +0.001 A 
ATOM     15  C   LIG    1       24.190 -27.231   6.519  0.00  0.00    +0.010 A 
ATOM     16  C   LIG    1       24.387 -26.111   5.710  0.00  0.00    +0.001 A 
ATOM     17  C   LIG    1       25.407 -26.109   4.762  0.00  0.00    +0.000 A 
ATOM     18  C   LIG    1       26.226 -27.230   4.615  0.00  0.00    +0.001 A 
ATOM     19  C   LIG    1       26.029 -28.355   5.420  0.00  0.00    +0.010 A 
ENDBRANCH  10  14
BRANCH   3  20
ATOM     20  C   LIG    1       26.997 -33.185   7.607  0.00  0.00    +0.117 C 
BRANCH  20  21
ATOM     21  C   LIG    1       27.739 -32.803   6.354  0.00  0.00    +0.007 C 
ATOM     22  C   LIG    1       28.729 -33.740   5.703  0.00  0.00    +0.005 C 
ATOM     23  C   LIG    1       27.399 -33.490   5.053  0.00  0.00    +0.005 C 
ENDBRANCH  20  21
ENDBRANCH   3  20
TORSDOF 3
ENDMDL
MODEL 5
REMARK VINA RESULT:      -6.5      7.087      9.739
REMARK  Name = *****
REMARK                            x       y       z     vdW  Elec       q    Type
REMARK                         _______ _______ _______ _____ _____    ______ ____
ROOT
ATOM      1  O   LIG    1       28.921 -29.558  11.548  0.00  0.00    -0.273 OA
ATOM      2  C   LIG    1       27.755 -29.802  11.228  0.00  0.00    +0.241 C 
ATOM      3  N   LIG    1       26.653 -29.192  11.841  0.00  0.00    -0.269 N 
ATOM      4  C   LIG    1       25.299 -29.497  11.490  0.00  0.00    +0.046 A 
ATOM      5  C   LIG    1       24.883 -29.730  10.162  0.00  0.00    +0.023 A 
ATOM      6  C   LIG    1       23.550 -30.081   9.881  0.00  0.00    +0.032 A 
ATOM      7  C   LIG    1       22.620 -30.166  10.912  0.00  0.00    +0.042 A 
ATOM      8  C   LIG    1       23.004 -29.921  12.223  0.00  0.00    +0.022 A 
ATOM      9 CL   LIG    1       20.987 -30.574  10.561  0.00  0.00    -0.084 Cl
ATOM     10  C   LIG    1       25.814 -29.606   9.000  0.00  0.00    +0.075 C 
ATOM     11  N   LIG    1       26.982 -30.157   8.964  0.00  0.00    -0.273 NA
ATOM     12  C   LIG    1       24.332 -29.587  12.508  0.00  0.00    +0.025 A 
ATOM     13  C   LIG    1       27.452 -30.848  10.161  0.00  0.00    +0.238 C 
ENDROOT
BRANCH  10  14
ATOM     14  C   LIG    1       25.392 -28.816   7.795  0.00  0.00    +0.001 A 
ATOM     15  C   LIG    1       25.875 -27.508   7.642  0.00  0.00    +0.010 A 
ATOM     16  C   LIG    1       25.486 -26.735   6.548  0.00  0.00    +0.001 A 
ATOM     17  C   LIG    1       24.607 -27.259   5.603  0.00  0.00    +0.000 A 
ATOM     18  C   LIG    1       24.106 -28.553   5.757  0.00  0.00    +0.001 A 
ATOM     19  C   LIG    1       24.489 -29.329   6.854  0.00  0.00    +0.010 A 
ENDBRANCH  10  14
BRANCH   3  20
ATOM     20  C   LIG    1       26.925 -28.209  12.895  0.00  0.00    +0.117 C 
BRANCH  20  21
ATOM     21  C   LIG    1       26.541 -26.821  12.454  0.00  0.00    +0.007 C 
ATOM     22  C   LIG    1       25.578 -25.974  13.253  0.00  0.00    +0.005 C 
ATOM     23  C   LIG    1       27.040 -25.630  13.237  0.00  0.00    +0.005 C 
ENDBRANCH  20  21
ENDBRANCH   3  20
TORSDOF 3
ENDMDL
MODEL 6
REMARK VINA RESULT:      -6.2      7.819     10.001
REMARK  Name = *****
REMARK                            x       y       z     vdW  Elec       q    Type
REMARK                         _______ _______ _______ _____ _____    ______ ____
ROOT
ATOM      1  O   LIG    1       23.197 -31.784   8.099  0.00  0.00    -0.273 OA
ATOM      2  C   LIG    1       23.835 -31.401   9.082  0.00  0.00    +0.241 C 
ATOM      3  N   LIG    1       24.910 -30.507   8.991  0.00  0.00    -0.269 N 
ATOM      4  C   LIG    1       25.671 -30.086  10.128  0.00  0.00    +0.046 A 
ATOM      5  C   LIG    1       25.090 -29.816  11.386  0.00  0.00    +0.023 A 
ATOM      6  C   LIG    1       25.893 -29.459  12.484  0.00  0.00    +0.032 A 
ATOM      7  C   LIG    1       27.270 -29.335  12.329  0.00  0.00    +0.042 A 
ATOM      8  C   LIG    1       27.859 -29.575  11.096  0.00  0.00    +0.022 A 
ATOM      9 CL   LIG    1       28.244 -28.877  13.669  0.00  0.00    -0.084 Cl
ATOM     10  C   LIG    1       23.615 -29.880  11.613  0.00  0.00    +0.075 C 
ATOM     11  N   LIG    1       22.881 -30.876  11.241  0.00  0.00    -0.273 NA
ATOM     12  C   LIG    1       27.066 -29.945  10.005  0.00  0.00    +0.025 A 
ATOM     13  C   LIG    1       23.512 -31.942  10.470  0.00  0.00    +0.238 C 
ENDROOT
BRANCH  10  14
ATOM     14  C   LIG    1       22.925 -28.747  12.317  0.00  0.00    +0.001 A 
ATOM     15  C   LIG    1       21.524 -28.734  12.364  0.00  0.00    +0.010 A 
ATOM     16  C   LIG    1       20.847 -27.686  12.989  0.00  0.00    +0.001 A 
ATOM     17  C   LIG    1       21.564 -26.640  13.564  0.00  0.00    +0.000 A 
ATOM     18  C   LIG    1       22.959 -26.634  13.506  0.00  0.00    +0.001 A 
ATOM     19  C   LIG    1       23.640 -27.680  12.877  0.00  0.00    +0.010 A 
ENDBRANCH  10  14
BRANCH   3  20
ATOM     20  C   LIG    1       25.259 -30.003   7.659  0.00  0.00    +0.117 C 
BRANCH  20  21
ATOM     21  C   LIG    1       24.699 -28.622   7.438  0.00  0.00    +0.007 C 
ATOM     22  C   LIG    1       25.536 -27.515   6.840  0.00  0.00    +0.005 C 
ATOM     23  C   LIG    1       24.440 -28.145   6.029  0.00  0.00    +0.005 C 
ENDBRANCH  20  21
ENDBRANCH   3  20
TORSDOF 3
ENDMDL
MODEL 7
REMARK VINA RESULT:      -6.0      7.377      9.982
REMARK  Name = *****
REMARK                            x       y       z     vdW  Elec       q    Type
REMARK                         _______ _______ _______ _____ _____    ______ ____
ROOT
ATOM      1  O   LIG    1       23.520 -30.142   5.597  0.00  0.00    -0.273 OA
ATOM      2  C   LIG    1       24.006 -30.241   6.727  0.00  0.00    +0.241 C 
ATOM      3  N   LIG    1       24.568 -29.156   7.412  0.00  0.00    -0.269 N 
ATOM      4  C   LIG    1       25.159 -29.278   8.710  0.00  0.00    +0.046 A 
ATOM      5  C   LIG    1       24.626 -30.101   9.725  0.00  0.00    +0.023 A 
ATOM      6  C   LIG    1       25.280 -30.225  10.964  0.00  0.00    +0.032 A 
ATOM      7  C   LIG    1       26.444 -29.506  11.212  0.00  0.00    +0.042 A 
ATOM      8  C   LIG    1       26.974 -28.675  10.235  0.00  0.00    +0.022 A 
ATOM      9 CL   LIG    1       27.228 -29.645  12.736  0.00  0.00    -0.084 Cl
ATOM     10  C   LIG    1       23.353 -30.862   9.547  0.00  0.00    +0.075 C 
ATOM     11  N   LIG    1       23.101 -31.596   8.514  0.00  0.00    -0.273 NA
ATOM     12  C   LIG    1       26.335 -28.560   8.996  0.00  0.00    +0.025 A 
ATOM     13  C   LIG    1       24.069 -31.596   7.421  0.00  0.00    +0.238 C 
ENDROOT
BRANCH  10  14
ATOM     14  C   LIG    1       22.298 -30.799  10.614  0.00  0.00    +0.001 A 
ATOM     15  C   LIG    1       21.396 -31.865  10.736  0.00  0.00    +0.010 A 
ATOM     16  C   LIG    1       20.387 -31.831  11.700  0.00  0.00    +0.001 A 
ATOM     17  C   LIG    1       20.268 -30.729  12.543  0.00  0.00    +0.000 A 
ATOM     18  C   LIG    1       21.149 -29.654  12.416  0.00  0.00    +0.001 A 
ATOM     19  C   LIG    1       22.158 -29.682  11.449  0.00  0.00    +0.010 A 
ENDBRANCH  10  14
BRANCH   3  20
ATOM     20  C   LIG    1       24.548 -27.851   6.744  0.00  0.00    +0.117 C 
BRANCH  20  21
ATOM     21  C   LIG    1       25.739 -27.686   5.838  0.00  0.00    +0.007 C 
ATOM     22  C   LIG    1       25.730 -26.704   4.690  0.00  0.00    +0.005 C 
ATOM     23  C   LIG    1       26.556 -26.418   5.911  0.00  0.00    +0.005 C 
ENDBRANCH  20  21
ENDBRANCH   3  20
TORSDOF 3
ENDMDL
MODEL 8
REMARK VINA RESULT:      -5.9      6.960      9.545
REMARK  Name = *****
REMARK                            x       y       z     vdW  Elec       q    Type
REMARK                         _______ _______ _______ _____ _____    ______ ____
ROOT
ATOM      1  O   LIG    1       25.260 -30.292  11.820  0.00  0.00    -0.273 OA
ATOM      2  C   LIG    1       25.455 -30.486  10.618  0.00  0.00    +0.241 C 
ATOM      3  N   LIG    1       24.531 -31.138   9.791  0.00  0.00    -0.269 N 
ATOM      4  C   LIG    1       24.770 -31.390   8.402  0.00  0.00    +0.046 A 
ATOM      5  C   LIG    1       25.416 -30.466   7.553  0.00  0.00    +0.023 A 
ATOM      6  C   LIG    1       25.674 -30.789   6.209  0.00  0.00    +0.032 A 
ATOM      7  C   LIG    1       25.261 -32.013   5.695  0.00  0.00    +0.042 A 
ATOM      8  C   LIG    1       24.606 -32.928   6.507  0.00  0.00    +0.022 A 
ATOM      9 CL   LIG    1       25.560 -32.394   4.045  0.00  0.00    -0.084 Cl
ATOM     10  C   LIG    1       25.840 -29.113   8.022  0.00  0.00    +0.075 C 
ATOM     11  N   LIG    1       26.508 -28.915   9.111  0.00  0.00    -0.273 NA
ATOM     12  C   LIG    1       24.360 -32.617   7.849  0.00  0.00    +0.025 A 
ATOM     13  C   LIG    1       26.770 -30.064   9.973  0.00  0.00    +0.238 C 
ENDROOT
BRANCH  10  14
ATOM     14  C   LIG    1       25.496 -27.903   7.202  0.00  0.00    +0.001 A 
ATOM     15  C   LIG    1       24.396 -27.966   6.335  0.00  0.00    +0.010 A 
ATOM     16  C   LIG    1       24.060 -26.870   5.539  0.00  0.00    +0.001 A 
ATOM     17  C   LIG    1       24.825 -25.708   5.597  0.00  0.00    +0.000 A 
ATOM     18  C   LIG    1       25.933 -25.642   6.443  0.00  0.00    +0.001 A 
ATOM     19  C   LIG    1       26.276 -26.740   7.239  0.00  0.00    +0.010 A 
ENDBRANCH  10  14
BRANCH   3  20
ATOM     20  C   LIG    1       23.274 -31.583  10.402  0.00  0.00    +0.117 C 
BRANCH  20  21
ATOM     21  C   LIG    1       22.213 -30.519  10.299  0.00  0.00    +0.007 C 
ATOM     22  C   LIG    1       20.774 -30.798  10.663  0.00  0.00    +0.005 C 
ATOM     23  C   LIG    1       21.619 -29.939  11.560  0.00  0.00    +0.005 C 
ENDBRANCH  20  21
ENDBRANCH   3  20
TORSDOF 3
ENDMDL
MODEL 9
REMARK VINA RESULT:      -5.9      7.264      9.796
REMARK  Name = *****
REMARK                            x       y       z     vdW  Elec       q    Type
REMARK                         _______ _______ _______ _____ _____    ______ ____
ROOT
ATOM      1  O   LIG    1       26.832 -27.666  12.892  0.00  0.00    -0.273 OA
ATOM      2  C   LIG    1       26.521 -28.570  12.113  0.00  0.00    +0.241 C 
ATOM      3  N   LIG    1       25.283 -29.224  12.159  0.00  0.00    -0.269 N 
ATOM      4  C   LIG    1       24.934 -30.293  11.274  0.00  0.00    +0.046 A 
ATOM      5  C   LIG    1       25.295 -30.313   9.910  0.00  0.00    +0.023 A 
ATOM      6  C   LIG    1       24.973 -31.417   9.100  0.00  0.00    +0.032 A 
ATOM      7  C   LIG    1       24.262 -32.487   9.631  0.00  0.00    +0.042 A 
ATOM      8  C   LIG    1       23.879 -32.479  10.965  0.00  0.00    +0.022 A 
ATOM      9 CL   LIG    1       23.852 -33.824   8.630  0.00  0.00    -0.084 Cl
ATOM     10  C   LIG    1       26.015 -29.177   9.259  0.00  0.00    +0.075 C 
ATOM     11  N   LIG    1       27.071 -28.625   9.759  0.00  0.00    -0.273 NA
ATOM     12  C   LIG    1       24.210 -31.390  11.778  0.00  0.00    +0.025 A 
ATOM     13  C   LIG    1       27.520 -29.069  11.074  0.00  0.00    +0.238 C 
ENDROOT
BRANCH  10  14
ATOM     14  C   LIG    1       25.513 -28.635   7.951  0.00  0.00    +0.001 A 
ATOM     15  C   LIG    1       26.004 -27.402   7.498  0.00  0.00    +0.010 A 
ATOM     16  C   LIG    1       25.544 -26.856   6.300  0.00  0.00    +0.001 A 
ATOM     17  C   LIG    1       24.585 -27.533   5.549  0.00  0.00    +0.000 A 
ATOM     18  C   LIG    1       24.077 -28.751   6.002  0.00  0.00    +0.001 A 
ATOM     19  C   LIG    1       24.532 -29.300   7.204  0.00  0.00    +0.010 A 
ENDBRANCH  10  14
BRANCH   3  20
ATOM     20  C   LIG    1       24.323 -28.781  13.175  0.00  0.00    +0.117 C 
BRANCH  20  21
ATOM     21  C   LIG    1       23.180 -28.025  12.549  0.00  0.00    +0.007 C 
ATOM     22  C   LIG    1       21.757 -28.207  13.023  0.00  0.00    +0.005 C 
ATOM     23  C   LIG    1       22.492 -26.936  13.337  0.00  0.00    +0.005 C 
ENDBRANCH  20  21
ENDBRANCH   3  20
TORSDOF 3
ENDMDL
