MODEL 1
REMARK VINA RESULT:      -2.0      0.000      0.000
REMARK  Name = *****
REMARK                            x       y       z     vdW  Elec       q    Type
REMARK                         _______ _______ _______ _____ _____    ______ ____
ROOT
ATOM      1  C   LIG    1       24.646 -13.512   3.517  0.00  0.00    -0.006 C 
ATOM      2  C   LIG    1       23.430 -14.435   3.585  0.00  0.00    +0.106 C 
ATOM      3  S   LIG    1       23.799 -16.136   4.162  0.00  0.00    -0.131 S 
ATOM      4  C   LIG    1       25.217 -16.266   3.055  0.00  0.00    +0.169 C 
ATOM      5  N   LIG    1       26.173 -15.291   3.557  0.00  0.00    -0.249 N 
ATOM      6  C   LIG    1       27.154 -16.171   3.848  0.00  0.00    +0.244 C 
ATOM      7  O   LIG    1       28.212 -16.008   4.389  0.00  0.00    -0.273 OA
ATOM      8  CA  LIG    1       26.318 -17.343   3.273  0.00  0.00    +0.191 C 
ATOM      9  CA  LIG    1       25.938 -13.949   3.597  0.00  0.00    +0.124 C 
ENDROOT
BRANCH   8  10
ATOM     10  N   LIG    1       26.090 -18.499   4.168  0.00  0.00    -0.296 N 
ATOM     11  H   LIG    1       25.148 -18.819   4.378  0.00  0.00    +0.150 HD
ATOM     12  C   LIG    1       27.159 -19.121   4.795  0.00  0.00    +0.268 C 
ATOM     13  O   LIG    1       28.313 -18.772   4.592  0.00  0.00    -0.268 OA
BRANCH  12  14
ATOM     14  C   LIG    1       26.786 -20.252   5.781  0.00  0.00    +0.190 C 
ATOM     15  N   LIG    1       27.655 -20.957   6.455  0.00  0.00    -0.078 NA
BRANCH  14  16
ATOM     16  C   LIG    1       25.383 -20.601   6.008  0.00  0.00    +0.107 A 
ATOM     17  N   LIG    1       24.376 -20.147   5.161  0.00  0.00    -0.223 NA
ATOM     18  C   LIG    1       23.214 -20.632   5.525  0.00  0.00    +0.156 A 
ATOM     19  S   LIG    1       23.229 -21.571   6.960  0.00  0.00    -0.060 S 
ATOM     20  C   LIG    1       24.926 -21.375   7.060  0.00  0.00    +0.078 A 
BRANCH  18  21
ATOM     21  N   LIG    1       22.082 -20.425   4.837  0.00  0.00    -0.338 N 
ATOM     22  H   LIG    1       21.221 -20.513   5.366  0.00  0.00    +0.144 HD
ATOM     23  H   LIG    1       22.072 -19.669   4.161  0.00  0.00    +0.144 HD
ENDBRANCH  18  21
ENDBRANCH  14  16
BRANCH  15  24
ATOM     24  O   LIG    1       28.975 -20.581   6.181  0.00  0.00    -0.396 OA
ATOM     25  C   LIG    1       29.315 -19.471   7.003  0.00  0.00    +0.313 C 
ENDBRANCH  15  24
ENDBRANCH  12  14
ENDBRANCH   8  10
BRANCH   9  26
ATOM     26  C   LIG    1       27.096 -12.979   3.663  0.00  0.00    +0.351 C 
ATOM     27  O   LIG    1       27.494 -12.326   2.712  0.00  0.00    -0.244 OA
BRANCH  26  28
ATOM     28  OXT LIG    1       27.696 -12.845   4.862  0.00  0.00    -0.476 OA
ATOM     29  HXT LIG    1       28.677 -12.773   4.886  0.00  0.00    +0.295 HD
ENDBRANCH  26  28
ENDBRANCH   9  26
BRANCH   1  30
ATOM     30  C   LIG    1       24.230 -12.060   3.367  0.00  0.00    +0.193 C 
BRANCH  30  32
ATOM     31  C   LIG    1       24.253 -11.592   5.679  0.00  0.00    +0.194 C 
ATOM     32  O   LIG    1       23.446 -11.719   4.511  0.00  0.00    -0.379 OA
ENDBRANCH  30  32
ENDBRANCH   1  30
TORSDOF 9
ENDMDL
