MODEL 1
REMARK VINA RESULT:       1.2      0.000      0.000
REMARK  Name = *****
REMARK                            x       y       z     vdW  Elec       q    Type
REMARK                         _______ _______ _______ _____ _____    ______ ____
ROOT
ATOM      1  C   LIG    1       21.126 -19.963   5.032  0.00  0.00    +0.213 C 
ATOM      2  O   LIG    1       20.684 -19.634   3.706  0.00  0.00    -0.444 OA
ATOM      3  C   LIG    1       21.466 -18.624   3.194  0.00  0.00    +0.408 C 
ATOM      4  O   LIG    1       21.332 -18.227   2.052  0.00  0.00    -0.226 OA
ATOM      5  N   LIG    1       22.381 -18.220   4.151  0.00  0.00    -0.234 N 
ATOM      6  C   LIG    1       22.063 -18.834   5.409  0.00  0.00    +0.163 C 
ENDROOT
BRANCH   5   7
ATOM      7  C   LIG    1       23.325 -17.166   4.038  0.00  0.00    +0.040 A 
ATOM      8  C   LIG    1       24.601 -17.408   3.526  0.00  0.00    +0.025 A 
ATOM      9  C   LIG    1       25.561 -16.382   3.422  0.00  0.00    +0.025 A 
ATOM     10  C   LIG    1       25.314 -15.075   3.871  0.00  0.00    +0.036 A 
ATOM     11  C   LIG    1       24.018 -14.845   4.356  0.00  0.00    +0.025 A 
ATOM     12  C   LIG    1       23.039 -15.859   4.422  0.00  0.00    +0.025 A 
BRANCH  10  13
ATOM     13  N   LIG    1       26.346 -14.052   3.845  0.00  0.00    -0.267 N 
ATOM     14  C   LIG    1       26.477 -13.112   2.798  0.00  0.00    +0.246 C 
ATOM     15  O   LIG    1       25.731 -12.997   1.824  0.00  0.00    -0.273 OA
ATOM     16  C   LIG    1       27.611 -12.071   2.949  0.00  0.00    +0.256 C 
ATOM     17  O   LIG    1       28.636 -12.276   3.900  0.00  0.00    -0.369 OA
ATOM     18  C   LIG    1       28.063 -12.733   5.115  0.00  0.00    +0.180 C 
ATOM     19  C   LIG    1       27.407 -14.086   4.868  0.00  0.00    +0.141 C 
ENDBRANCH  10  13
ENDBRANCH   5   7
BRANCH   1  20
ATOM     20  C   LIG    1       21.849 -21.315   5.051  0.00  0.00    +0.150 C 
BRANCH  20  23
ATOM     21  O   LIG    1       24.174 -20.609   3.618  0.00  0.00    -0.270 OA
ATOM     22  C   LIG    1       24.291 -20.877   4.811  0.00  0.00    +0.251 C 
ATOM     23  N   LIG    1       23.196 -21.227   5.576  0.00  0.00    -0.307 N 
ATOM     24  H   LIG    1       23.332 -21.325   6.576  0.00  0.00    +0.149 HD
BRANCH  22  25
ATOM     25  C   LIG    1       25.566 -20.851   5.522  0.00  0.00    +0.075 A 
ATOM     26  S   LIG    1       26.854 -19.835   4.998  0.00  0.00    -0.072 S 
ATOM     27  C   LIG    1       27.869 -20.382   6.228  0.00  0.00    +0.079 A 
ATOM     28 CL   LIG    1       29.474 -19.784   6.322  0.00  0.00    -0.076 Cl
ATOM     29  C   LIG    1       27.278 -21.296   7.061  0.00  0.00    +0.028 A 
ATOM     30  C   LIG    1       25.936 -21.571   6.649  0.00  0.00    +0.022 A 
ENDBRANCH  22  25
ENDBRANCH  20  23
ENDBRANCH   1  20
TORSDOF 5
ENDMDL
