MODEL 1
REMARK VINA RESULT:      -7.3      0.000      0.000
REMARK  Name = *****
REMARK                            x       y       z     vdW  Elec       q    Type
REMARK                         _______ _______ _______ _____ _____    ______ ____
ROOT
ATOM      1  C   LIG    1       27.650 -19.976   8.230  0.00  0.00    +0.133 C 
ENDROOT
BRANCH   1   2
ATOM      2  N   LIG    1       28.820 -19.940   7.174  0.00  0.00    +0.241 N 
ATOM      3  C   LIG    1       28.262 -19.985   5.759  0.00  0.00    +0.192 C 
ATOM      4  C   LIG    1       29.673 -21.208   7.382  0.00  0.00    +0.192 C 
BRANCH   2   5
ATOM      5  C   LIG    1       29.724 -18.686   7.404  0.00  0.00    +0.174 C 
BRANCH   5   6
ATOM      6  C   LIG    1       31.158 -18.966   7.926  0.00  0.00    +0.279 C 
BRANCH   6   7
ATOM      7  O   LIG    1       31.853 -17.736   8.123  0.00  0.00    -0.487 OA
BRANCH   7   8
ATOM      8  C   LIG    1       32.016 -17.253   9.384  0.00  0.00    +0.121 A 
ATOM      9  C   LIG    1       31.167 -17.786  10.350  0.00  0.00    +0.045 A 
ATOM     10  C   LIG    1       31.155 -17.295  11.656  0.00  0.00    +0.004 A 
ATOM     11  C   LIG    1       32.008 -16.235  11.995  0.00  0.00    +0.000 A 
ATOM     12  C   LIG    1       32.889 -15.735  11.051  0.00  0.00    +0.004 A 
ATOM     13  C   LIG    1       32.924 -16.248   9.751  0.00  0.00    +0.045 A 
ENDBRANCH   7   8
ENDBRANCH   6   7
ENDBRANCH   5   6
ENDBRANCH   2   5
ENDBRANCH   1   2
BRANCH   1  14
ATOM     14  C   LIG    1       26.329 -20.562   7.680  0.00  0.00    +0.051 C 
BRANCH  14  15
ATOM     15  C   LIG    1       25.968 -21.941   8.269  0.00  0.00    +0.005 C 
BRANCH  15  16
ATOM     16  C   LIG    1       26.258 -23.097   7.292  0.00  0.00    +0.000 C 
BRANCH  16  17
ATOM     17  C   LIG    1       25.148 -23.293   6.243  0.00  0.00    -0.000 C 
BRANCH  17  18
ATOM     18  C   LIG    1       23.811 -23.843   6.773  0.00  0.00    -0.000 C 
BRANCH  18  19
ATOM     19  C   LIG    1       22.614 -22.922   6.487  0.00  0.00    -0.000 C 
BRANCH  19  20
ATOM     20  C   LIG    1       23.012 -21.447   6.289  0.00  0.00    -0.000 C 
BRANCH  20  21
ATOM     21  C   LIG    1       22.236 -20.795   5.126  0.00  0.00    -0.000 C 
BRANCH  21  22
ATOM     22  C   LIG    1       22.833 -19.446   4.682  0.00  0.00    -0.000 C 
BRANCH  22  24
ATOM     23  C   LIG    1       25.251 -19.275   3.894  0.00  0.00    +0.004 C 
ATOM     24  C   LIG    1       23.811 -19.597   3.506  0.00  0.00    -0.003 C 
ENDBRANCH  22  24
ENDBRANCH  21  22
ENDBRANCH  20  21
ENDBRANCH  19  20
ENDBRANCH  18  19
ENDBRANCH  17  18
ENDBRANCH  16  17
ENDBRANCH  15  16
ENDBRANCH  14  15
ENDBRANCH   1  14
TORSDOF 15
ENDMDL
MODEL 2
REMARK VINA RESULT:      -7.3      1.372      3.456
REMARK  Name = *****
REMARK                            x       y       z     vdW  Elec       q    Type
REMARK                         _______ _______ _______ _____ _____    ______ ____
ROOT
ATOM      1  C   LIG    1       27.648 -19.959   5.747  0.00  0.00    +0.133 C 
ENDROOT
BRANCH   1   2
ATOM      2  N   LIG    1       28.007 -20.328   7.236  0.00  0.00    +0.241 N 
ATOM      3  C   LIG    1       28.532 -21.754   7.321  0.00  0.00    +0.192 C 
ATOM      4  C   LIG    1       26.704 -20.258   8.060  0.00  0.00    +0.192 C 
BRANCH   2   5
ATOM      5  C   LIG    1       29.024 -19.297   7.824  0.00  0.00    +0.174 C 
BRANCH   5   6
ATOM      6  C   LIG    1       30.431 -19.850   8.172  0.00  0.00    +0.279 C 
BRANCH   6   7
ATOM      7  O   LIG    1       30.722 -19.609   9.548  0.00  0.00    -0.487 OA
BRANCH   7   8
ATOM      8  C   LIG    1       31.110 -18.367   9.944  0.00  0.00    +0.121 A 
ATOM      9  C   LIG    1       32.038 -17.733   9.123  0.00  0.00    +0.045 A 
ATOM     10  C   LIG    1       32.601 -16.507   9.476  0.00  0.00    +0.004 A 
ATOM     11  C   LIG    1       32.231 -15.909  10.689  0.00  0.00    +0.000 A 
ATOM     12  C   LIG    1       31.271 -16.512  11.486  0.00  0.00    +0.004 A 
ATOM     13  C   LIG    1       30.684 -17.725  11.117  0.00  0.00    +0.045 A 
ENDBRANCH   7   8
ENDBRANCH   6   7
ENDBRANCH   5   6
ENDBRANCH   2   5
ENDBRANCH   1   2
BRANCH   1  14
ATOM     14  C   LIG    1       26.198 -20.316   5.346  0.00  0.00    +0.051 C 
BRANCH  14  15
ATOM     15  C   LIG    1       25.665 -19.500   4.151  0.00  0.00    +0.005 C 
BRANCH  15  16
ATOM     16  C   LIG    1       24.196 -19.829   3.818  0.00  0.00    +0.000 C 
BRANCH  16  17
ATOM     17  C   LIG    1       23.633 -20.990   4.657  0.00  0.00    -0.000 C 
BRANCH  17  18
ATOM     18  C   LIG    1       22.879 -20.590   5.940  0.00  0.00    -0.000 C 
BRANCH  18  19
ATOM     19  C   LIG    1       23.267 -21.432   7.165  0.00  0.00    -0.000 C 
BRANCH  19  20
ATOM     20  C   LIG    1       23.467 -22.926   6.843  0.00  0.00    -0.000 C 
BRANCH  20  21
ATOM     21  C   LIG    1       24.936 -23.360   7.026  0.00  0.00    -0.000 C 
BRANCH  21  22
ATOM     22  C   LIG    1       25.169 -24.850   6.710  0.00  0.00    -0.000 C 
BRANCH  22  24
ATOM     23  C   LIG    1       25.730 -26.482   4.835  0.00  0.00    +0.004 C 
ATOM     24  C   LIG    1       25.089 -25.149   5.205  0.00  0.00    -0.003 C 
ENDBRANCH  22  24
ENDBRANCH  21  22
ENDBRANCH  20  21
ENDBRANCH  19  20
ENDBRANCH  18  19
ENDBRANCH  17  18
ENDBRANCH  16  17
ENDBRANCH  15  16
ENDBRANCH  14  15
ENDBRANCH   1  14
TORSDOF 15
ENDMDL
MODEL 3
REMARK VINA RESULT:      -7.2      2.659      8.436
REMARK  Name = *****
REMARK                            x       y       z     vdW  Elec       q    Type
REMARK                         _______ _______ _______ _____ _____    ______ ____
ROOT
ATOM      1  C   LIG    1       25.900 -24.419   6.920  0.00  0.00    +0.133 C 
ENDROOT
BRANCH   1   2
ATOM      2  N   LIG    1       24.561 -24.757   6.162  0.00  0.00    +0.241 N 
ATOM      3  C   LIG    1       24.357 -26.263   6.085  0.00  0.00    +0.192 C 
ATOM      4  C   LIG    1       24.697 -24.229   4.718  0.00  0.00    +0.192 C 
BRANCH   2   5
ATOM      5  C   LIG    1       23.351 -24.039   6.843  0.00  0.00    +0.174 C 
BRANCH   5   6
ATOM      6  C   LIG    1       22.681 -22.905   6.024  0.00  0.00    +0.279 C 
BRANCH   6   7
ATOM      7  O   LIG    1       23.133 -21.635   6.490  0.00  0.00    -0.487 OA
BRANCH   7   8
ATOM      8  C   LIG    1       23.495 -20.680   5.591  0.00  0.00    +0.121 A 
ATOM      9  C   LIG    1       22.516 -19.740   5.281  0.00  0.00    +0.045 A 
ATOM     10  C   LIG    1       22.722 -18.778   4.292  0.00  0.00    +0.004 A 
ATOM     11  C   LIG    1       23.935 -18.770   3.589  0.00  0.00    +0.000 A 
ATOM     12  C   LIG    1       24.930 -19.672   3.927  0.00  0.00    +0.004 A 
ATOM     13  C   LIG    1       24.737 -20.615   4.940  0.00  0.00    +0.045 A 
ENDBRANCH   7   8
ENDBRANCH   6   7
ENDBRANCH   5   6
ENDBRANCH   2   5
ENDBRANCH   1   2
BRANCH   1  14
ATOM     14  C   LIG    1       25.871 -23.067   7.669  0.00  0.00    +0.051 C 
BRANCH  14  15
ATOM     15  C   LIG    1       27.153 -22.229   7.492  0.00  0.00    +0.005 C 
BRANCH  15  16
ATOM     16  C   LIG    1       26.932 -20.736   7.805  0.00  0.00    +0.000 C 
BRANCH  16  17
ATOM     17  C   LIG    1       27.696 -19.800   6.850  0.00  0.00    -0.000 C 
BRANCH  17  18
ATOM     18  C   LIG    1       29.107 -20.262   6.440  0.00  0.00    -0.000 C 
BRANCH  18  19
ATOM     19  C   LIG    1       30.170 -19.159   6.558  0.00  0.00    -0.000 C 
BRANCH  19  20
ATOM     20  C   LIG    1       31.333 -19.528   7.499  0.00  0.00    -0.000 C 
BRANCH  20  21
ATOM     21  C   LIG    1       31.092 -19.021   8.936  0.00  0.00    -0.000 C 
BRANCH  21  22
ATOM     22  C   LIG    1       30.082 -17.860   9.005  0.00  0.00    -0.000 C 
BRANCH  22  24
ATOM     23  C   LIG    1       31.353 -17.424  11.171  0.00  0.00    +0.004 C 
ATOM     24  C   LIG    1       30.433 -16.842  10.102  0.00  0.00    -0.003 C 
ENDBRANCH  22  24
ENDBRANCH  21  22
ENDBRANCH  20  21
ENDBRANCH  19  20
ENDBRANCH  18  19
ENDBRANCH  17  18
ENDBRANCH  16  17
ENDBRANCH  15  16
ENDBRANCH  14  15
ENDBRANCH   1  14
TORSDOF 15
ENDMDL
MODEL 4
REMARK VINA RESULT:      -7.1      3.624      9.552
REMARK  Name = *****
REMARK                            x       y       z     vdW  Elec       q    Type
REMARK                         _______ _______ _______ _____ _____    ______ ____
ROOT
ATOM      1  C   LIG    1       24.770 -22.179   7.864  0.00  0.00    +0.133 C 
ENDROOT
BRANCH   1   2
ATOM      2  N   LIG    1       24.409 -22.938   6.531  0.00  0.00    +0.241 N 
ATOM      3  C   LIG    1       24.308 -21.958   5.370  0.00  0.00    +0.192 C 
ATOM      4  C   LIG    1       23.020 -23.581   6.723  0.00  0.00    +0.192 C 
BRANCH   2   5
ATOM      5  C   LIG    1       25.449 -24.070   6.248  0.00  0.00    +0.174 C 
BRANCH   5   6
ATOM      6  C   LIG    1       25.088 -25.058   5.109  0.00  0.00    +0.279 C 
BRANCH   6   7
ATOM      7  O   LIG    1       25.863 -26.249   5.232  0.00  0.00    -0.487 OA
BRANCH   7   8
ATOM      8  C   LIG    1       25.337 -27.329   5.870  0.00  0.00    +0.121 A 
ATOM      9  C   LIG    1       25.790 -27.544   7.169  0.00  0.00    +0.045 A 
ATOM     10  C   LIG    1       25.416 -28.678   7.889  0.00  0.00    +0.004 A 
ATOM     11  C   LIG    1       24.575 -29.624   7.286  0.00  0.00    +0.000 A 
ATOM     12  C   LIG    1       24.083 -29.391   6.012  0.00  0.00    +0.004 A 
ATOM     13  C   LIG    1       24.432 -28.240   5.302  0.00  0.00    +0.045 A 
ENDBRANCH   7   8
ENDBRANCH   6   7
ENDBRANCH   5   6
ENDBRANCH   2   5
ENDBRANCH   1   2
BRANCH   1  14
ATOM     14  C   LIG    1       25.188 -20.706   7.651  0.00  0.00    +0.051 C 
BRANCH  14  15
ATOM     15  C   LIG    1       26.624 -20.393   8.119  0.00  0.00    +0.005 C 
BRANCH  15  16
ATOM     16  C   LIG    1       27.602 -21.551   7.841  0.00  0.00    +0.000 C 
BRANCH  16  17
ATOM     17  C   LIG    1       28.938 -21.080   7.237  0.00  0.00    -0.000 C 
BRANCH  17  18
ATOM     18  C   LIG    1       28.843 -19.959   6.184  0.00  0.00    -0.000 C 
BRANCH  18  19
ATOM     19  C   LIG    1       29.887 -18.848   6.377  0.00  0.00    -0.000 C 
BRANCH  19  20
ATOM     20  C   LIG    1       31.140 -19.313   7.146  0.00  0.00    -0.000 C 
BRANCH  20  21
ATOM     21  C   LIG    1       31.446 -18.398   8.349  0.00  0.00    -0.000 C 
BRANCH  21  22
ATOM     22  C   LIG    1       30.201 -18.080   9.199  0.00  0.00    -0.000 C 
BRANCH  22  24
ATOM     23  C   LIG    1       31.202 -17.303  11.410  0.00  0.00    +0.004 C 
ATOM     24  C   LIG    1       30.431 -16.900  10.157  0.00  0.00    -0.003 C 
ENDBRANCH  22  24
ENDBRANCH  21  22
ENDBRANCH  20  21
ENDBRANCH  19  20
ENDBRANCH  18  19
ENDBRANCH  17  18
ENDBRANCH  16  17
ENDBRANCH  15  16
ENDBRANCH  14  15
ENDBRANCH   1  14
TORSDOF 15
ENDMDL
MODEL 5
REMARK VINA RESULT:      -7.1      3.015      8.932
REMARK  Name = *****
REMARK                            x       y       z     vdW  Elec       q    Type
REMARK                         _______ _______ _______ _____ _____    ______ ____
ROOT
ATOM      1  C   LIG    1       24.976 -20.418   6.874  0.00  0.00    +0.133 C 
ENDROOT
BRANCH   1   2
ATOM      2  N   LIG    1       23.841 -21.160   6.071  0.00  0.00    +0.241 N 
ATOM      3  C   LIG    1       24.417 -21.836   4.835  0.00  0.00    +0.192 C 
ATOM      4  C   LIG    1       22.834 -20.092   5.595  0.00  0.00    +0.192 C 
BRANCH   2   5
ATOM      5  C   LIG    1       23.092 -22.175   6.995  0.00  0.00    +0.174 C 
BRANCH   5   6
ATOM      6  C   LIG    1       23.104 -23.655   6.532  0.00  0.00    +0.279 C 
BRANCH   6   7
ATOM      7  O   LIG    1       24.204 -24.343   7.125  0.00  0.00    -0.487 OA
BRANCH   7   8
ATOM      8  C   LIG    1       24.823 -25.338   6.436  0.00  0.00    +0.121 A 
ATOM      9  C   LIG    1       23.986 -26.308   5.891  0.00  0.00    +0.045 A 
ATOM     10  C   LIG    1       24.501 -27.439   5.259  0.00  0.00    +0.004 A 
ATOM     11  C   LIG    1       25.892 -27.606   5.184  0.00  0.00    +0.000 A 
ATOM     12  C   LIG    1       26.728 -26.621   5.682  0.00  0.00    +0.004 A 
ATOM     13  C   LIG    1       26.213 -25.472   6.286  0.00  0.00    +0.045 A 
ENDBRANCH   7   8
ENDBRANCH   6   7
ENDBRANCH   5   6
ENDBRANCH   2   5
ENDBRANCH   1   2
BRANCH   1  14
ATOM     14  C   LIG    1       25.515 -21.221   8.080  0.00  0.00    +0.051 C 
BRANCH  14  15
ATOM     15  C   LIG    1       26.746 -22.090   7.750  0.00  0.00    +0.005 C 
BRANCH  15  16
ATOM     16  C   LIG    1       28.076 -21.366   8.036  0.00  0.00    +0.000 C 
BRANCH  16  17
ATOM     17  C   LIG    1       28.900 -21.092   6.764  0.00  0.00    -0.000 C 
BRANCH  17  18
ATOM     18  C   LIG    1       28.615 -19.757   6.052  0.00  0.00    -0.000 C 
BRANCH  18  19
ATOM     19  C   LIG    1       29.662 -18.671   6.345  0.00  0.00    -0.000 C 
BRANCH  19  20
ATOM     20  C   LIG    1       30.997 -19.235   6.871  0.00  0.00    -0.000 C 
BRANCH  20  21
ATOM     21  C   LIG    1       31.370 -18.639   8.244  0.00  0.00    -0.000 C 
BRANCH  21  22
ATOM     22  C   LIG    1       30.144 -18.184   9.059  0.00  0.00    -0.000 C 
BRANCH  22  24
ATOM     23  C   LIG    1       30.948 -17.348  11.328  0.00  0.00    +0.004 C 
ATOM     24  C   LIG    1       30.447 -16.962   9.940  0.00  0.00    -0.003 C 
ENDBRANCH  22  24
ENDBRANCH  21  22
ENDBRANCH  20  21
ENDBRANCH  19  20
ENDBRANCH  18  19
ENDBRANCH  17  18
ENDBRANCH  16  17
ENDBRANCH  15  16
ENDBRANCH  14  15
ENDBRANCH   1  14
TORSDOF 15
ENDMDL
MODEL 6
REMARK VINA RESULT:      -6.7      1.087      2.112
REMARK  Name = *****
REMARK                            x       y       z     vdW  Elec       q    Type
REMARK                         _______ _______ _______ _____ _____    ______ ____
ROOT
ATOM      1  C   LIG    1       27.640 -22.195   6.856  0.00  0.00    +0.133 C 
ENDROOT
BRANCH   1   2
ATOM      2  N   LIG    1       27.781 -20.637   7.046  0.00  0.00    +0.241 N 
ATOM      3  C   LIG    1       26.831 -20.143   8.127  0.00  0.00    +0.192 C 
ATOM      4  C   LIG    1       27.370 -19.967   5.718  0.00  0.00    +0.192 C 
BRANCH   2   5
ATOM      5  C   LIG    1       29.265 -20.257   7.358  0.00  0.00    +0.174 C 
BRANCH   5   6
ATOM      6  C   LIG    1       29.681 -18.801   7.023  0.00  0.00    +0.279 C 
BRANCH   6   7
ATOM      7  O   LIG    1       30.970 -18.524   7.570  0.00  0.00    -0.487 OA
BRANCH   7   8
ATOM      8  C   LIG    1       31.069 -17.825   8.732  0.00  0.00    +0.121 A 
ATOM      9  C   LIG    1       32.262 -17.132   8.919  0.00  0.00    +0.045 A 
ATOM     10  C   LIG    1       32.536 -16.469  10.116  0.00  0.00    +0.004 A 
ATOM     11  C   LIG    1       31.593 -16.514  11.153  0.00  0.00    +0.000 A 
ATOM     12  C   LIG    1       30.384 -17.161  10.952  0.00  0.00    +0.004 A 
ATOM     13  C   LIG    1       30.096 -17.798   9.743  0.00  0.00    +0.045 A 
ENDBRANCH   7   8
ENDBRANCH   6   7
ENDBRANCH   5   6
ENDBRANCH   2   5
ENDBRANCH   1   2
BRANCH   1  14
ATOM     14  C   LIG    1       26.364 -22.789   7.496  0.00  0.00    +0.051 C 
BRANCH  14  15
ATOM     15  C   LIG    1       26.127 -24.272   7.147  0.00  0.00    +0.005 C 
BRANCH  15  16
ATOM     16  C   LIG    1       25.317 -24.453   5.848  0.00  0.00    +0.000 C 
BRANCH  16  17
ATOM     17  C   LIG    1       23.941 -25.105   6.080  0.00  0.00    -0.000 C 
BRANCH  17  18
ATOM     18  C   LIG    1       22.891 -24.226   6.785  0.00  0.00    -0.000 C 
BRANCH  18  19
ATOM     19  C   LIG    1       22.848 -22.783   6.259  0.00  0.00    -0.000 C 
BRANCH  19  20
ATOM     20  C   LIG    1       23.252 -21.735   7.315  0.00  0.00    -0.000 C 
BRANCH  20  21
ATOM     21  C   LIG    1       23.335 -20.317   6.713  0.00  0.00    -0.000 C 
BRANCH  21  22
ATOM     22  C   LIG    1       22.568 -20.179   5.384  0.00  0.00    -0.000 C 
BRANCH  22  24
ATOM     23  C   LIG    1       21.821 -18.142   4.047  0.00  0.00    +0.004 C 
ATOM     24  C   LIG    1       23.004 -18.942   4.583  0.00  0.00    -0.003 C 
ENDBRANCH  22  24
ENDBRANCH  21  22
ENDBRANCH  20  21
ENDBRANCH  19  20
ENDBRANCH  18  19
ENDBRANCH  17  18
ENDBRANCH  16  17
ENDBRANCH  15  16
ENDBRANCH  14  15
ENDBRANCH   1  14
TORSDOF 15
ENDMDL
MODEL 7
REMARK VINA RESULT:      -6.7      3.525      6.554
REMARK  Name = *****
REMARK                            x       y       z     vdW  Elec       q    Type
REMARK                         _______ _______ _______ _____ _____    ______ ____
ROOT
ATOM      1  C   LIG    1       22.597 -21.935   5.962  0.00  0.00    +0.133 C 
ENDROOT
BRANCH   1   2
ATOM      2  N   LIG    1       23.513 -20.769   5.431  0.00  0.00    +0.241 N 
ATOM      3  C   LIG    1       22.701 -19.496   5.241  0.00  0.00    +0.192 C 
ATOM      4  C   LIG    1       24.050 -21.192   4.047  0.00  0.00    +0.192 C 
BRANCH   2   5
ATOM      5  C   LIG    1       24.728 -20.548   6.390  0.00  0.00    +0.174 C 
BRANCH   5   6
ATOM      6  C   LIG    1       26.114 -20.393   5.711  0.00  0.00    +0.279 C 
BRANCH   6   7
ATOM      7  O   LIG    1       27.110 -21.068   6.477  0.00  0.00    -0.487 OA
BRANCH   7   8
ATOM      8  C   LIG    1       28.336 -20.500   6.633  0.00  0.00    +0.121 A 
ATOM      9  C   LIG    1       29.131 -21.047   7.636  0.00  0.00    +0.045 A 
ATOM     10  C   LIG    1       30.362 -20.484   7.974  0.00  0.00    +0.004 A 
ATOM     11  C   LIG    1       30.798 -19.338   7.294  0.00  0.00    +0.000 A 
ATOM     12  C   LIG    1       30.033 -18.820   6.262  0.00  0.00    +0.004 A 
ATOM     13  C   LIG    1       28.815 -19.401   5.903  0.00  0.00    +0.045 A 
ENDBRANCH   7   8
ENDBRANCH   6   7
ENDBRANCH   5   6
ENDBRANCH   2   5
ENDBRANCH   1   2
BRANCH   1  14
ATOM     14  C   LIG    1       23.244 -22.779   7.084  0.00  0.00    +0.051 C 
BRANCH  14  15
ATOM     15  C   LIG    1       23.460 -24.258   6.705  0.00  0.00    +0.005 C 
BRANCH  15  16
ATOM     16  C   LIG    1       24.643 -24.455   5.737  0.00  0.00    +0.000 C 
BRANCH  16  17
ATOM     17  C   LIG    1       25.900 -25.017   6.426  0.00  0.00    -0.000 C 
BRANCH  17  18
ATOM     18  C   LIG    1       25.866 -26.520   6.762  0.00  0.00    -0.000 C 
BRANCH  18  19
ATOM     19  C   LIG    1       24.646 -27.250   6.181  0.00  0.00    -0.000 C 
BRANCH  19  20
ATOM     20  C   LIG    1       25.001 -28.579   5.486  0.00  0.00    -0.000 C 
BRANCH  20  21
ATOM     21  C   LIG    1       24.413 -29.793   6.234  0.00  0.00    -0.000 C 
BRANCH  21  22
ATOM     22  C   LIG    1       24.353 -29.592   7.760  0.00  0.00    -0.000 C 
BRANCH  22  24
ATOM     23  C   LIG    1       26.288 -29.136   9.355  0.00  0.00    +0.004 C 
ATOM     24  C   LIG    1       25.587 -30.165   8.475  0.00  0.00    -0.003 C 
ENDBRANCH  22  24
ENDBRANCH  21  22
ENDBRANCH  20  21
ENDBRANCH  19  20
ENDBRANCH  18  19
ENDBRANCH  17  18
ENDBRANCH  16  17
ENDBRANCH  15  16
ENDBRANCH  14  15
ENDBRANCH   1  14
TORSDOF 15
ENDMDL
MODEL 8
REMARK VINA RESULT:      -6.6      4.103      9.472
REMARK  Name = *****
REMARK                            x       y       z     vdW  Elec       q    Type
REMARK                         _______ _______ _______ _____ _____    ______ ____
ROOT
ATOM      1  C   LIG    1       24.769 -22.716   5.209  0.00  0.00    +0.133 C 
ENDROOT
BRANCH   1   2
ATOM      2  N   LIG    1       24.684 -24.091   5.975  0.00  0.00    +0.241 N 
ATOM      3  C   LIG    1       23.358 -24.209   6.713  0.00  0.00    +0.192 C 
ATOM      4  C   LIG    1       25.810 -24.107   7.029  0.00  0.00    +0.192 C 
BRANCH   2   5
ATOM      5  C   LIG    1       24.909 -25.281   4.987  0.00  0.00    +0.174 C 
BRANCH   5   6
ATOM      6  C   LIG    1       24.360 -26.659   5.442  0.00  0.00    +0.279 C 
BRANCH   6   7
ATOM      7  O   LIG    1       25.442 -27.540   5.739  0.00  0.00    -0.487 OA
BRANCH   7   8
ATOM      8  C   LIG    1       25.437 -28.239   6.906  0.00  0.00    +0.121 A 
ATOM      9  C   LIG    1       24.455 -29.219   7.019  0.00  0.00    +0.045 A 
ATOM     10  C   LIG    1       24.270 -29.927   8.206  0.00  0.00    +0.004 A 
ATOM     11  C   LIG    1       25.085 -29.635   9.310  0.00  0.00    +0.000 A 
ATOM     12  C   LIG    1       26.095 -28.696   9.186  0.00  0.00    +0.004 A 
ATOM     13  C   LIG    1       26.301 -28.008   7.988  0.00  0.00    +0.045 A 
ENDBRANCH   7   8
ENDBRANCH   6   7
ENDBRANCH   5   6
ENDBRANCH   2   5
ENDBRANCH   1   2
BRANCH   1  14
ATOM     14  C   LIG    1       23.954 -21.581   5.870  0.00  0.00    +0.051 C 
BRANCH  14  15
ATOM     15  C   LIG    1       24.822 -20.438   6.434  0.00  0.00    +0.005 C 
BRANCH  15  16
ATOM     16  C   LIG    1       25.280 -20.702   7.882  0.00  0.00    +0.000 C 
BRANCH  16  17
ATOM     17  C   LIG    1       26.796 -20.517   8.079  0.00  0.00    -0.000 C 
BRANCH  17  18
ATOM     18  C   LIG    1       27.657 -20.621   6.806  0.00  0.00    -0.000 C 
BRANCH  18  19
ATOM     19  C   LIG    1       29.167 -20.656   7.090  0.00  0.00    -0.000 C 
BRANCH  19  20
ATOM     20  C   LIG    1       29.935 -19.476   6.463  0.00  0.00    -0.000 C 
BRANCH  20  21
ATOM     21  C   LIG    1       30.923 -18.839   7.461  0.00  0.00    -0.000 C 
BRANCH  21  22
ATOM     22  C   LIG    1       30.383 -18.798   8.903  0.00  0.00    -0.000 C 
BRANCH  22  24
ATOM     23  C   LIG    1       30.526 -17.255  10.927  0.00  0.00    +0.004 C 
ATOM     24  C   LIG    1       30.237 -17.362   9.433  0.00  0.00    -0.003 C 
ENDBRANCH  22  24
ENDBRANCH  21  22
ENDBRANCH  20  21
ENDBRANCH  19  20
ENDBRANCH  18  19
ENDBRANCH  17  18
ENDBRANCH  16  17
ENDBRANCH  15  16
ENDBRANCH  14  15
ENDBRANCH   1  14
TORSDOF 15
ENDMDL
MODEL 9
REMARK VINA RESULT:      -6.6      3.123      7.438
REMARK  Name = *****
REMARK                            x       y       z     vdW  Elec       q    Type
REMARK                         _______ _______ _______ _____ _____    ______ ____
ROOT
ATOM      1  C   LIG    1       26.955 -20.305   8.004  0.00  0.00    +0.133 C 
ENDROOT
BRANCH   1   2
ATOM      2  N   LIG    1       28.420 -20.372   7.428  0.00  0.00    +0.241 N 
ATOM      3  C   LIG    1       29.135 -21.618   7.930  0.00  0.00    +0.192 C 
ATOM      4  C   LIG    1       29.188 -19.145   7.965  0.00  0.00    +0.192 C 
BRANCH   2   5
ATOM      5  C   LIG    1       28.397 -20.302   5.867  0.00  0.00    +0.174 C 
BRANCH   5   6
ATOM      6  C   LIG    1       27.200 -19.546   5.236  0.00  0.00    +0.279 C 
BRANCH   6   7
ATOM      7  O   LIG    1       26.236 -20.478   4.748  0.00  0.00    -0.487 OA
BRANCH   7   8
ATOM      8  C   LIG    1       24.921 -20.131   4.721  0.00  0.00    +0.121 A 
ATOM      9  C   LIG    1       24.561 -19.204   3.747  0.00  0.00    +0.045 A 
ATOM     10  C   LIG    1       23.270 -18.681   3.685  0.00  0.00    +0.004 A 
ATOM     11  C   LIG    1       22.321 -19.091   4.633  0.00  0.00    +0.000 A 
ATOM     12  C   LIG    1       22.661 -20.050   5.573  0.00  0.00    +0.004 A 
ATOM     13  C   LIG    1       23.946 -20.598   5.615  0.00  0.00    +0.045 A 
ENDBRANCH   7   8
ENDBRANCH   6   7
ENDBRANCH   5   6
ENDBRANCH   2   5
ENDBRANCH   1   2
BRANCH   1  14
ATOM     14  C   LIG    1       26.504 -21.601   8.717  0.00  0.00    +0.051 C 
BRANCH  14  15
ATOM     15  C   LIG    1       25.394 -22.368   7.970  0.00  0.00    +0.005 C 
BRANCH  15  16
ATOM     16  C   LIG    1       25.949 -23.517   7.105  0.00  0.00    +0.000 C 
BRANCH  16  17
ATOM     17  C   LIG    1       24.845 -24.405   6.501  0.00  0.00    -0.000 C 
BRANCH  17  18
ATOM     18  C   LIG    1       25.070 -24.865   5.049  0.00  0.00    -0.000 C 
BRANCH  18  19
ATOM     19  C   LIG    1       25.670 -26.276   4.940  0.00  0.00    -0.000 C 
BRANCH  19  20
ATOM     20  C   LIG    1       25.027 -27.289   5.907  0.00  0.00    -0.000 C 
BRANCH  20  21
ATOM     21  C   LIG    1       24.729 -28.635   5.213  0.00  0.00    -0.000 C 
BRANCH  21  22
ATOM     22  C   LIG    1       24.101 -29.676   6.158  0.00  0.00    -0.000 C 
BRANCH  22  24
ATOM     23  C   LIG    1       24.467 -30.594   8.508  0.00  0.00    +0.004 C 
ATOM     24  C   LIG    1       24.345 -29.346   7.639  0.00  0.00    -0.003 C 
ENDBRANCH  22  24
ENDBRANCH  21  22
ENDBRANCH  20  21
ENDBRANCH  19  20
ENDBRANCH  18  19
ENDBRANCH  17  18
ENDBRANCH  16  17
ENDBRANCH  15  16
ENDBRANCH  14  15
ENDBRANCH   1  14
TORSDOF 15
ENDMDL
