MODEL 1
REMARK VINA RESULT:      -9.4      0.000      0.000
REMARK  Name = *****
REMARK                            x       y       z     vdW  Elec       q    Type
REMARK                         _______ _______ _______ _____ _____    ______ ____
ROOT
ATOM      1  C   LIG    1       24.978 -21.182   6.528  0.00  0.00    +0.117 C 
ENDROOT
BRANCH   1   2
ATOM      2  C   LIG    1       26.440 -20.663   6.680  0.00  0.00    -0.026 A 
ATOM      3  C   LIG    1       27.006 -20.480   7.963  0.00  0.00    +0.007 A 
ATOM      4  C   LIG    1       28.306 -19.990   8.136  0.00  0.00    +0.020 A 
ATOM      5  C   LIG    1       29.044 -19.629   7.038  0.00  0.00    +0.041 A 
ATOM      6 CL   LIG    1       30.627 -18.941   7.236  0.00  0.00    -0.084 Cl
ATOM      7  C   LIG    1       28.521 -19.778   5.749  0.00  0.00    +0.020 A 
ATOM      8  C   LIG    1       27.233 -20.319   5.579  0.00  0.00    +0.007 A 
ENDBRANCH   1   2
BRANCH   1  12
ATOM      9  N   LIG    1       24.832 -25.554   6.364  0.00  0.00    -0.298 NA
ATOM     10  C   LIG    1       25.761 -24.876   7.282  0.00  0.00    +0.100 C 
ATOM     11  C   LIG    1       26.052 -23.401   6.886  0.00  0.00    +0.100 C 
ATOM     12  N   LIG    1       24.893 -22.663   6.303  0.00  0.00    -0.289 NA
ATOM     13  C   LIG    1       23.666 -23.307   6.838  0.00  0.00    +0.100 C 
ATOM     14  C   LIG    1       23.554 -24.806   6.414  0.00  0.00    +0.100 C 
BRANCH   9  15
ATOM     15  C   LIG    1       25.356 -25.587   4.978  0.00  0.00    +0.112 C 
BRANCH  15  16
ATOM     16  C   LIG    1       25.948 -26.950   4.597  0.00  0.00    +0.175 C 
BRANCH  16  17
ATOM     17  O   LIG    1       24.979 -27.982   4.795  0.00  0.00    -0.376 OA
BRANCH  17  18
ATOM     18  C   LIG    1       25.422 -28.961   5.740  0.00  0.00    +0.187 C 
BRANCH  18  19
ATOM     19  C   LIG    1       24.267 -29.818   6.254  0.00  0.00    +0.184 C 
BRANCH  19  20
ATOM     20  O   LIG    1       23.108 -29.640   5.452  0.00  0.00    -0.393 OA
ATOM     21  H   LIG    1       22.350 -29.570   6.056  0.00  0.00    +0.209 HD
ENDBRANCH  19  20
ENDBRANCH  18  19
ENDBRANCH  17  18
ENDBRANCH  16  17
ENDBRANCH  15  16
ENDBRANCH   9  15
ENDBRANCH   1  12
BRANCH   1  22
ATOM     22  C   LIG    1       24.164 -20.309   5.538  0.00  0.00    -0.026 A 
ATOM     23  C   LIG    1       24.767 -19.876   4.339  0.00  0.00    +0.005 A 
ATOM     24  C   LIG    1       24.092 -18.996   3.471  0.00  0.00    +0.000 A 
ATOM     25  C   LIG    1       22.844 -18.511   3.801  0.00  0.00    +0.000 A 
ATOM     26  C   LIG    1       22.212 -18.947   4.962  0.00  0.00    +0.000 A 
ATOM     27  C   LIG    1       22.847 -19.894   5.780  0.00  0.00    +0.005 A 
ENDBRANCH   1  22
TORSDOF 9
ENDMDL
MODEL 2
REMARK VINA RESULT:      -9.3      0.846      1.155
REMARK  Name = *****
REMARK                            x       y       z     vdW  Elec       q    Type
REMARK                         _______ _______ _______ _____ _____    ______ ____
ROOT
ATOM      1  C   LIG    1       25.310 -21.398   6.490  0.00  0.00    +0.117 C 
ENDROOT
BRANCH   1   2
ATOM      2  C   LIG    1       26.785 -20.893   6.532  0.00  0.00    -0.026 A 
ATOM      3  C   LIG    1       27.674 -21.360   7.527  0.00  0.00    +0.007 A 
ATOM      4  C   LIG    1       28.997 -20.908   7.610  0.00  0.00    +0.020 A 
ATOM      5  C   LIG    1       29.439 -19.950   6.735  0.00  0.00    +0.041 A 
ATOM      6 CL   LIG    1       31.050 -19.315   6.875  0.00  0.00    -0.084 Cl
ATOM      7  C   LIG    1       28.591 -19.447   5.743  0.00  0.00    +0.020 A 
ATOM      8  C   LIG    1       27.278 -19.941   5.632  0.00  0.00    +0.007 A 
ENDBRANCH   1   2
BRANCH   1  12
ATOM      9  N   LIG    1       24.472 -25.645   5.844  0.00  0.00    -0.298 NA
ATOM     10  C   LIG    1       23.516 -24.803   6.582  0.00  0.00    +0.100 C 
ATOM     11  C   LIG    1       24.152 -23.502   7.148  0.00  0.00    +0.100 C 
ATOM     12  N   LIG    1       25.194 -22.878   6.281  0.00  0.00    -0.289 NA
ATOM     13  C   LIG    1       24.890 -23.290   4.887  0.00  0.00    +0.100 C 
ATOM     14  C   LIG    1       24.961 -24.840   4.700  0.00  0.00    +0.100 C 
BRANCH   9  15
ATOM     15  C   LIG    1       25.605 -26.069   6.699  0.00  0.00    +0.112 C 
BRANCH  15  16
ATOM     16  C   LIG    1       25.777 -27.592   6.749  0.00  0.00    +0.175 C 
BRANCH  16  17
ATOM     17  O   LIG    1       25.531 -28.160   5.460  0.00  0.00    -0.376 OA
BRANCH  17  18
ATOM     18  C   LIG    1       25.479 -29.588   5.503  0.00  0.00    +0.187 C 
BRANCH  18  19
ATOM     19  C   LIG    1       24.204 -30.090   6.179  0.00  0.00    +0.184 C 
BRANCH  19  20
ATOM     20  O   LIG    1       23.053 -29.690   5.448  0.00  0.00    -0.393 OA
ATOM     21  H   LIG    1       23.344 -29.030   4.796  0.00  0.00    +0.209 HD
ENDBRANCH  19  20
ENDBRANCH  18  19
ENDBRANCH  17  18
ENDBRANCH  16  17
ENDBRANCH  15  16
ENDBRANCH   9  15
ENDBRANCH   1  12
BRANCH   1  22
ATOM     22  C   LIG    1       24.436 -20.521   5.556  0.00  0.00    -0.026 A 
ATOM     23  C   LIG    1       24.985 -20.024   4.357  0.00  0.00    +0.005 A 
ATOM     24  C   LIG    1       24.253 -19.140   3.542  0.00  0.00    +0.000 A 
ATOM     25  C   LIG    1       22.999 -18.712   3.926  0.00  0.00    +0.000 A 
ATOM     26  C   LIG    1       22.419 -19.212   5.088  0.00  0.00    +0.000 A 
ATOM     27  C   LIG    1       23.112 -20.163   5.852  0.00  0.00    +0.005 A 
ENDBRANCH   1  22
TORSDOF 9
ENDMDL
MODEL 3
REMARK VINA RESULT:      -9.3      0.874      1.476
REMARK  Name = *****
REMARK                            x       y       z     vdW  Elec       q    Type
REMARK                         _______ _______ _______ _____ _____    ______ ____
ROOT
ATOM      1  C   LIG    1       25.363 -21.346   6.555  0.00  0.00    +0.117 C 
ENDROOT
BRANCH   1   2
ATOM      2  C   LIG    1       26.858 -20.910   6.624  0.00  0.00    -0.026 A 
ATOM      3  C   LIG    1       27.719 -21.455   7.604  0.00  0.00    +0.007 A 
ATOM      4  C   LIG    1       29.060 -21.066   7.712  0.00  0.00    +0.020 A 
ATOM      5  C   LIG    1       29.551 -20.095   6.878  0.00  0.00    +0.041 A 
ATOM      6 CL   LIG    1       31.188 -19.540   7.050  0.00  0.00    -0.084 Cl
ATOM      7  C   LIG    1       28.733 -19.517   5.901  0.00  0.00    +0.020 A 
ATOM      8  C   LIG    1       27.400 -19.948   5.764  0.00  0.00    +0.007 A 
ENDBRANCH   1   2
BRANCH   1  12
ATOM      9  N   LIG    1       24.339 -25.528   5.763  0.00  0.00    -0.298 NA
ATOM     10  C   LIG    1       23.433 -24.678   6.553  0.00  0.00    +0.100 C 
ATOM     11  C   LIG    1       24.132 -23.426   7.155  0.00  0.00    +0.100 C 
ATOM     12  N   LIG    1       25.182 -22.811   6.291  0.00  0.00    -0.289 NA
ATOM     13  C   LIG    1       24.835 -23.156   4.889  0.00  0.00    +0.100 C 
ATOM     14  C   LIG    1       24.839 -24.699   4.641  0.00  0.00    +0.100 C 
BRANCH   9  15
ATOM     15  C   LIG    1       25.471 -26.030   6.578  0.00  0.00    +0.112 C 
BRANCH  15  16
ATOM     16  C   LIG    1       26.413 -26.947   5.788  0.00  0.00    +0.175 C 
BRANCH  16  17
ATOM     17  O   LIG    1       25.778 -28.201   5.527  0.00  0.00    -0.376 OA
BRANCH  17  18
ATOM     18  C   LIG    1       25.163 -28.745   6.699  0.00  0.00    +0.187 C 
BRANCH  18  19
ATOM     19  C   LIG    1       24.039 -29.720   6.351  0.00  0.00    +0.184 C 
BRANCH  19  20
ATOM     20  O   LIG    1       23.260 -29.228   5.270  0.00  0.00    -0.393 OA
ATOM     21  H   LIG    1       22.500 -29.827   5.171  0.00  0.00    +0.209 HD
ENDBRANCH  19  20
ENDBRANCH  18  19
ENDBRANCH  17  18
ENDBRANCH  16  17
ENDBRANCH  15  16
ENDBRANCH   9  15
ENDBRANCH   1  12
BRANCH   1  22
ATOM     22  C   LIG    1       24.536 -20.398   5.648  0.00  0.00    -0.026 A 
ATOM     23  C   LIG    1       23.205 -20.094   5.995  0.00  0.00    +0.005 A 
ATOM     24  C   LIG    1       22.395 -19.324   5.139  0.00  0.00    +0.000 A 
ATOM     25  C   LIG    1       22.881 -18.888   3.924  0.00  0.00    +0.000 A 
ATOM     26  C   LIG    1       24.202 -19.145   3.570  0.00  0.00    +0.000 A 
ATOM     27  C   LIG    1       25.035 -19.835   4.464  0.00  0.00    +0.005 A 
ENDBRANCH   1  22
TORSDOF 9
ENDMDL
MODEL 4
REMARK VINA RESULT:      -8.5      4.600      7.410
REMARK  Name = *****
REMARK                            x       y       z     vdW  Elec       q    Type
REMARK                         _______ _______ _______ _____ _____    ______ ____
ROOT
ATOM      1  C   LIG    1       25.978 -21.715   5.516  0.00  0.00    +0.117 C 
ENDROOT
BRANCH   1   2
ATOM      2  C   LIG    1       25.518 -23.183   5.767  0.00  0.00    -0.026 A 
ATOM      3  C   LIG    1       25.932 -23.876   6.928  0.00  0.00    +0.007 A 
ATOM      4  C   LIG    1       25.559 -25.203   7.172  0.00  0.00    +0.020 A 
ATOM      5  C   LIG    1       24.810 -25.876   6.242  0.00  0.00    +0.041 A 
ATOM      6 CL   LIG    1       24.408 -27.548   6.487  0.00  0.00    -0.084 Cl
ATOM      7  C   LIG    1       24.388 -25.237   5.071  0.00  0.00    +0.020 A 
ATOM      8  C   LIG    1       24.724 -23.887   4.855  0.00  0.00    +0.007 A 
ENDBRANCH   1   2
BRANCH   1  12
ATOM      9  N   LIG    1       28.841 -19.829   8.237  0.00  0.00    -0.298 NA
ATOM     10  C   LIG    1       28.728 -19.369   6.843  0.00  0.00    +0.100 C 
ATOM     11  C   LIG    1       28.068 -20.416   5.902  0.00  0.00    +0.100 C 
ATOM     12  N   LIG    1       26.977 -21.225   6.522  0.00  0.00    -0.289 NA
ATOM     13  C   LIG    1       26.407 -20.401   7.618  0.00  0.00    +0.100 C 
ATOM     14  C   LIG    1       27.463 -20.076   8.723  0.00  0.00    +0.100 C 
BRANCH   9  15
ATOM     15  C   LIG    1       29.656 -21.062   8.345  0.00  0.00    +0.112 C 
BRANCH  15  16
ATOM     16  C   LIG    1       31.109 -20.784   8.748  0.00  0.00    +0.175 C 
BRANCH  16  17
ATOM     17  O   LIG    1       31.194 -19.552   9.470  0.00  0.00    -0.376 OA
BRANCH  17  18
ATOM     18  C   LIG    1       31.871 -18.538   8.723  0.00  0.00    +0.187 C 
BRANCH  18  19
ATOM     19  C   LIG    1       31.955 -17.223   9.497  0.00  0.00    +0.184 C 
BRANCH  19  20
ATOM     20  O   LIG    1       32.638 -16.233   8.740  0.00  0.00    -0.393 OA
ATOM     21  H   LIG    1       31.975 -15.795   8.179  0.00  0.00    +0.209 HD
ENDBRANCH  19  20
ENDBRANCH  18  19
ENDBRANCH  17  18
ENDBRANCH  16  17
ENDBRANCH  15  16
ENDBRANCH   9  15
ENDBRANCH   1  12
BRANCH   1  22
ATOM     22  C   LIG    1       24.770 -20.776   5.263  0.00  0.00    -0.026 A 
ATOM     23  C   LIG    1       23.642 -20.855   6.104  0.00  0.00    +0.005 A 
ATOM     24  C   LIG    1       22.489 -20.093   5.836  0.00  0.00    +0.000 A 
ATOM     25  C   LIG    1       22.431 -19.284   4.720  0.00  0.00    +0.000 A 
ATOM     26  C   LIG    1       23.542 -19.162   3.890  0.00  0.00    +0.000 A 
ATOM     27  C   LIG    1       24.721 -19.852   4.208  0.00  0.00    +0.005 A 
ENDBRANCH   1  22
TORSDOF 9
ENDMDL
MODEL 5
REMARK VINA RESULT:      -8.3      4.869      8.167
REMARK  Name = *****
REMARK                            x       y       z     vdW  Elec       q    Type
REMARK                         _______ _______ _______ _____ _____    ______ ____
ROOT
ATOM      1  C   LIG    1       25.515 -21.364   6.856  0.00  0.00    +0.117 C 
ENDROOT
BRANCH   1   2
ATOM      2  C   LIG    1       24.544 -20.527   5.970  0.00  0.00    -0.026 A 
ATOM      3  C   LIG    1       23.205 -20.319   6.373  0.00  0.00    +0.007 A 
ATOM      4  C   LIG    1       22.299 -19.595   5.588  0.00  0.00    +0.020 A 
ATOM      5  C   LIG    1       22.698 -19.109   4.370  0.00  0.00    +0.041 A 
ATOM      6 CL   LIG    1       21.565 -18.281   3.346  0.00  0.00    -0.084 Cl
ATOM      7  C   LIG    1       24.009 -19.302   3.922  0.00  0.00    +0.020 A 
ATOM      8  C   LIG    1       24.929 -19.987   4.737  0.00  0.00    +0.007 A 
ENDBRANCH   1   2
BRANCH   1  12
ATOM      9  N   LIG    1       29.644 -19.977   7.291  0.00  0.00    -0.298 NA
ATOM     10  C   LIG    1       29.249 -21.302   7.795  0.00  0.00    +0.100 C 
ATOM     11  C   LIG    1       27.717 -21.444   8.018  0.00  0.00    +0.100 C 
ATOM     12  N   LIG    1       26.864 -20.730   7.023  0.00  0.00    -0.289 NA
ATOM     13  C   LIG    1       27.664 -20.623   5.776  0.00  0.00    +0.100 C 
ATOM     14  C   LIG    1       28.973 -19.795   5.982  0.00  0.00    +0.100 C 
BRANCH   9  15
ATOM     15  C   LIG    1       29.254 -18.895   8.226  0.00  0.00    +0.112 C 
BRANCH  15  16
ATOM     16  C   LIG    1       30.456 -18.103   8.755  0.00  0.00    +0.175 C 
BRANCH  16  17
ATOM     17  O   LIG    1       30.022 -17.113   9.692  0.00  0.00    -0.376 OA
BRANCH  17  18
ATOM     18  C   LIG    1       31.115 -16.548  10.421  0.00  0.00    +0.187 C 
BRANCH  18  19
ATOM     19  C   LIG    1       32.443 -16.733   9.689  0.00  0.00    +0.184 C 
BRANCH  19  20
ATOM     20  O   LIG    1       32.866 -15.515   9.093  0.00  0.00    -0.393 OA
ATOM     21  H   LIG    1       32.316 -15.379   8.303  0.00  0.00    +0.209 HD
ENDBRANCH  19  20
ENDBRANCH  18  19
ENDBRANCH  17  18
ENDBRANCH  16  17
ENDBRANCH  15  16
ENDBRANCH   9  15
ENDBRANCH   1  12
BRANCH   1  22
ATOM     22  C   LIG    1       25.528 -22.856   6.433  0.00  0.00    -0.026 A 
ATOM     23  C   LIG    1       24.998 -23.226   5.180  0.00  0.00    +0.005 A 
ATOM     24  C   LIG    1       24.898 -24.581   4.812  0.00  0.00    +0.000 A 
ATOM     25  C   LIG    1       25.279 -25.573   5.691  0.00  0.00    +0.000 A 
ATOM     26  C   LIG    1       25.836 -25.236   6.921  0.00  0.00    +0.000 A 
ATOM     27  C   LIG    1       26.020 -23.885   7.250  0.00  0.00    +0.005 A 
ENDBRANCH   1  22
TORSDOF 9
ENDMDL
MODEL 6
REMARK VINA RESULT:      -8.1      4.317      7.643
REMARK  Name = *****
REMARK                            x       y       z     vdW  Elec       q    Type
REMARK                         _______ _______ _______ _____ _____    ______ ____
ROOT
ATOM      1  C   LIG    1       25.094 -22.170   7.209  0.00  0.00    +0.117 C 
ENDROOT
BRANCH   1   2
ATOM      2  C   LIG    1       24.249 -21.277   6.251  0.00  0.00    -0.026 A 
ATOM      3  C   LIG    1       24.581 -21.182   4.880  0.00  0.00    +0.007 A 
ATOM      4  C   LIG    1       23.860 -20.369   3.997  0.00  0.00    +0.020 A 
ATOM      5  C   LIG    1       22.831 -19.601   4.475  0.00  0.00    +0.041 A 
ATOM      6 CL   LIG    1       21.978 -18.523   3.412  0.00  0.00    -0.084 Cl
ATOM      7  C   LIG    1       22.474 -19.649   5.827  0.00  0.00    +0.020 A 
ATOM      8  C   LIG    1       23.170 -20.507   6.699  0.00  0.00    +0.007 A 
ENDBRANCH   1   2
BRANCH   1  12
ATOM      9  N   LIG    1       28.908 -20.110   7.821  0.00  0.00    -0.298 NA
ATOM     10  C   LIG    1       28.235 -20.053   6.513  0.00  0.00    +0.100 C 
ATOM     11  C   LIG    1       27.199 -21.195   6.304  0.00  0.00    +0.100 C 
ATOM     12  N   LIG    1       26.442 -21.593   7.526  0.00  0.00    -0.289 NA
ATOM     13  C   LIG    1       26.420 -20.406   8.419  0.00  0.00    +0.100 C 
ATOM     14  C   LIG    1       27.855 -19.968   8.854  0.00  0.00    +0.100 C 
BRANCH   9  15
ATOM     15  C   LIG    1       29.643 -21.383   8.006  0.00  0.00    +0.112 C 
BRANCH  15  16
ATOM     16  C   LIG    1       31.005 -21.192   8.686  0.00  0.00    +0.175 C 
BRANCH  16  17
ATOM     17  O   LIG    1       31.559 -19.922   8.333  0.00  0.00    -0.376 OA
BRANCH  17  18
ATOM     18  C   LIG    1       31.527 -18.999   9.426  0.00  0.00    +0.187 C 
BRANCH  18  19
ATOM     19  C   LIG    1       31.250 -17.572   8.958  0.00  0.00    +0.184 C 
BRANCH  19  20
ATOM     20  O   LIG    1       32.415 -16.991   8.389  0.00  0.00    -0.393 OA
ATOM     21  H   LIG    1       33.162 -17.227   8.966  0.00  0.00    +0.209 HD
ENDBRANCH  19  20
ENDBRANCH  18  19
ENDBRANCH  17  18
ENDBRANCH  16  17
ENDBRANCH  15  16
ENDBRANCH   9  15
ENDBRANCH   1  12
BRANCH   1  22
ATOM     22  C   LIG    1       25.093 -23.652   6.753  0.00  0.00    -0.026 A 
ATOM     23  C   LIG    1       23.868 -24.290   6.471  0.00  0.00    +0.005 A 
ATOM     24  C   LIG    1       23.826 -25.662   6.159  0.00  0.00    +0.000 A 
ATOM     25  C   LIG    1       24.981 -26.415   6.165  0.00  0.00    +0.000 A 
ATOM     26  C   LIG    1       26.209 -25.805   6.407  0.00  0.00    +0.000 A 
ATOM     27  C   LIG    1       26.260 -24.421   6.629  0.00  0.00    +0.005 A 
ENDBRANCH   1  22
TORSDOF 9
ENDMDL
MODEL 7
REMARK VINA RESULT:      -8.1      4.431      7.816
REMARK  Name = *****
REMARK                            x       y       z     vdW  Elec       q    Type
REMARK                         _______ _______ _______ _____ _____    ______ ____
ROOT
ATOM      1  C   LIG    1       25.319 -21.232   7.012  0.00  0.00    +0.117 C 
ENDROOT
BRANCH   1   2
ATOM      2  C   LIG    1       25.021 -22.752   6.840  0.00  0.00    -0.026 A 
ATOM      3  C   LIG    1       26.080 -23.678   6.695  0.00  0.00    +0.007 A 
ATOM      4  C   LIG    1       25.847 -25.047   6.512  0.00  0.00    +0.020 A 
ATOM      5  C   LIG    1       24.559 -25.506   6.420  0.00  0.00    +0.041 A 
ATOM      6 CL   LIG    1       24.251 -27.188   6.109  0.00  0.00    -0.084 Cl
ATOM      7  C   LIG    1       23.479 -24.626   6.543  0.00  0.00    +0.020 A 
ATOM      8  C   LIG    1       23.718 -23.259   6.778  0.00  0.00    +0.007 A 
ENDBRANCH   1   2
BRANCH   1  12
ATOM      9  N   LIG    1       23.181 -19.151   3.809  0.00  0.00    -0.298 NA
ATOM     10  C   LIG    1       23.877 -20.419   3.536  0.00  0.00    +0.100 C 
ATOM     11  C   LIG    1       24.965 -20.765   4.592  0.00  0.00    +0.100 C 
ATOM     12  N   LIG    1       24.634 -20.372   5.993  0.00  0.00    -0.289 NA
ATOM     13  C   LIG    1       23.152 -20.349   6.089  0.00  0.00    +0.100 C 
ATOM     14  C   LIG    1       22.513 -19.300   5.123  0.00  0.00    +0.100 C 
BRANCH   9  15
ATOM     15  C   LIG    1       24.120 -18.004   3.835  0.00  0.00    +0.112 C 
BRANCH  15  16
ATOM     16  C   LIG    1       25.418 -18.280   3.065  0.00  0.00    +0.175 C 
BRANCH  16  17
ATOM     17  O   LIG    1       26.326 -17.186   3.220  0.00  0.00    -0.376 OA
BRANCH  17  18
ATOM     18  C   LIG    1       25.644 -15.935   3.341  0.00  0.00    +0.187 C 
BRANCH  18  19
ATOM     19  C   LIG    1       26.601 -14.751   3.211  0.00  0.00    +0.184 C 
BRANCH  19  20
ATOM     20  O   LIG    1       26.667 -14.300   1.866  0.00  0.00    -0.393 OA
ATOM     21  H   LIG    1       27.585 -14.022   1.703  0.00  0.00    +0.209 HD
ENDBRANCH  19  20
ENDBRANCH  18  19
ENDBRANCH  17  18
ENDBRANCH  16  17
ENDBRANCH  15  16
ENDBRANCH   9  15
ENDBRANCH   1  12
BRANCH   1  22
ATOM     22  C   LIG    1       26.837 -20.967   7.196  0.00  0.00    -0.026 A 
ATOM     23  C   LIG    1       27.527 -20.199   6.237  0.00  0.00    +0.005 A 
ATOM     24  C   LIG    1       28.923 -20.031   6.320  0.00  0.00    +0.000 A 
ATOM     25  C   LIG    1       29.643 -20.650   7.320  0.00  0.00    +0.000 A 
ATOM     26  C   LIG    1       28.983 -21.386   8.299  0.00  0.00    +0.000 A 
ATOM     27  C   LIG    1       27.583 -21.478   8.268  0.00  0.00    +0.005 A 
ENDBRANCH   1  22
TORSDOF 9
ENDMDL
MODEL 8
REMARK VINA RESULT:      -7.6      2.125      4.130
REMARK  Name = *****
REMARK                            x       y       z     vdW  Elec       q    Type
REMARK                         _______ _______ _______ _____ _____    ______ ____
ROOT
ATOM      1  C   LIG    1       25.628 -21.412   5.315  0.00  0.00    +0.117 C 
ENDROOT
BRANCH   1   2
ATOM      2  C   LIG    1       24.491 -20.418   4.930  0.00  0.00    -0.026 A 
ATOM      3  C   LIG    1       23.300 -20.361   5.690  0.00  0.00    +0.007 A 
ATOM      4  C   LIG    1       22.248 -19.499   5.357  0.00  0.00    +0.020 A 
ATOM      5  C   LIG    1       22.346 -18.717   4.236  0.00  0.00    +0.041 A 
ATOM      6 CL   LIG    1       21.018 -17.702   3.760  0.00  0.00    -0.084 Cl
ATOM      7  C   LIG    1       23.499 -18.748   3.444  0.00  0.00    +0.020 A 
ATOM      8  C   LIG    1       24.573 -19.579   3.812  0.00  0.00    +0.007 A 
ENDBRANCH   1   2
BRANCH   1  12
ATOM      9  N   LIG    1       24.382 -25.383   6.671  0.00  0.00    -0.298 NA
ATOM     10  C   LIG    1       25.643 -24.797   7.151  0.00  0.00    +0.100 C 
ATOM     11  C   LIG    1       26.180 -23.658   6.238  0.00  0.00    +0.100 C 
ATOM     12  N   LIG    1       25.131 -22.793   5.623  0.00  0.00    -0.289 NA
ATOM     13  C   LIG    1       23.953 -22.847   6.524  0.00  0.00    +0.100 C 
ATOM     14  C   LIG    1       23.377 -24.294   6.658  0.00  0.00    +0.100 C 
BRANCH   9  15
ATOM     15  C   LIG    1       24.528 -25.966   5.316  0.00  0.00    +0.112 C 
BRANCH  15  16
ATOM     16  C   LIG    1       25.825 -26.768   5.149  0.00  0.00    +0.175 C 
BRANCH  16  17
ATOM     17  O   LIG    1       25.539 -28.169   5.124  0.00  0.00    -0.376 OA
BRANCH  17  18
ATOM     18  C   LIG    1       25.148 -28.661   6.408  0.00  0.00    +0.187 C 
BRANCH  18  19
ATOM     19  C   LIG    1       24.189 -29.845   6.296  0.00  0.00    +0.184 C 
BRANCH  19  20
ATOM     20  O   LIG    1       23.132 -29.555   5.393  0.00  0.00    -0.393 OA
ATOM     21  H   LIG    1       23.014 -30.339   4.830  0.00  0.00    +0.209 HD
ENDBRANCH  19  20
ENDBRANCH  18  19
ENDBRANCH  17  18
ENDBRANCH  16  17
ENDBRANCH  15  16
ENDBRANCH   9  15
ENDBRANCH   1  12
BRANCH   1  22
ATOM     22  C   LIG    1       26.588 -20.799   6.367  0.00  0.00    -0.026 A 
ATOM     23  C   LIG    1       27.861 -20.347   5.964  0.00  0.00    +0.005 A 
ATOM     24  C   LIG    1       28.794 -19.885   6.912  0.00  0.00    +0.000 A 
ATOM     25  C   LIG    1       28.491 -19.905   8.257  0.00  0.00    +0.000 A 
ATOM     26  C   LIG    1       27.230 -20.314   8.681  0.00  0.00    +0.000 A 
ATOM     27  C   LIG    1       26.270 -20.689   7.729  0.00  0.00    +0.005 A 
ENDBRANCH   1  22
TORSDOF 9
ENDMDL
MODEL 9
REMARK VINA RESULT:      -7.6      3.956      7.110
REMARK  Name = *****
REMARK                            x       y       z     vdW  Elec       q    Type
REMARK                         _______ _______ _______ _____ _____    ______ ____
ROOT
ATOM      1  C   LIG    1       25.309 -21.323   6.716  0.00  0.00    +0.117 C 
ENDROOT
BRANCH   1   2
ATOM      2  C   LIG    1       24.301 -20.535   5.827  0.00  0.00    -0.026 A 
ATOM      3  C   LIG    1       24.716 -19.972   4.598  0.00  0.00    +0.007 A 
ATOM      4  C   LIG    1       23.844 -19.236   3.787  0.00  0.00    +0.020 A 
ATOM      5  C   LIG    1       22.560 -19.007   4.210  0.00  0.00    +0.041 A 
ATOM      6 CL   LIG    1       21.488 -18.026   3.258  0.00  0.00    -0.084 Cl
ATOM      7  C   LIG    1       22.107 -19.531   5.425  0.00  0.00    +0.020 A 
ATOM      8  C   LIG    1       22.973 -20.313   6.212  0.00  0.00    +0.007 A 
ENDBRANCH   1   2
BRANCH   1  12
ATOM      9  N   LIG    1       29.444 -19.887   6.715  0.00  0.00    -0.298 NA
ATOM     10  C   LIG    1       29.154 -21.315   6.921  0.00  0.00    +0.100 C 
ATOM     11  C   LIG    1       27.694 -21.587   7.383  0.00  0.00    +0.100 C 
ATOM     12  N   LIG    1       26.665 -20.685   6.787  0.00  0.00    -0.289 NA
ATOM     13  C   LIG    1       27.207 -20.223   5.484  0.00  0.00    +0.100 C 
ATOM     14  C   LIG    1       28.531 -19.411   5.650  0.00  0.00    +0.100 C 
BRANCH   9  15
ATOM     15  C   LIG    1       29.243 -19.101   7.956  0.00  0.00    +0.112 C 
BRANCH  15  16
ATOM     16  C   LIG    1       30.562 -18.736   8.650  0.00  0.00    +0.175 C 
BRANCH  16  17
ATOM     17  O   LIG    1       30.875 -19.702   9.656  0.00  0.00    -0.376 OA
BRANCH  17  18
ATOM     18  C   LIG    1       31.753 -20.720   9.168  0.00  0.00    +0.187 C 
BRANCH  18  19
ATOM     19  C   LIG    1       31.204 -22.120   9.434  0.00  0.00    +0.184 C 
BRANCH  19  20
ATOM     20  O   LIG    1       31.953 -23.100   8.728  0.00  0.00    -0.393 OA
ATOM     21  H   LIG    1       32.871 -23.035   9.040  0.00  0.00    +0.209 HD
ENDBRANCH  19  20
ENDBRANCH  18  19
ENDBRANCH  17  18
ENDBRANCH  16  17
ENDBRANCH  15  16
ENDBRANCH   9  15
ENDBRANCH   1  12
BRANCH   1  22
ATOM     22  C   LIG    1       25.301 -22.837   6.381  0.00  0.00    -0.026 A 
ATOM     23  C   LIG    1       25.787 -23.760   7.329  0.00  0.00    +0.005 A 
ATOM     24  C   LIG    1       25.892 -25.128   7.013  0.00  0.00    +0.000 A 
ATOM     25  C   LIG    1       25.557 -25.582   5.755  0.00  0.00    +0.000 A 
ATOM     26  C   LIG    1       25.043 -24.699   4.811  0.00  0.00    +0.000 A 
ATOM     27  C   LIG    1       24.853 -23.352   5.155  0.00  0.00    +0.005 A 
ENDBRANCH   1  22
TORSDOF 9
ENDMDL
