MODEL 1
REMARK VINA RESULT:      -4.9      0.000      0.000
REMARK  Name = *****
REMARK                            x       y       z     vdW  Elec       q    Type
REMARK                         _______ _______ _______ _____ _____    ______ ____
ROOT
ATOM      1  C   LIG    1       22.770 -19.179   4.515  0.00  0.00    +0.117 A 
ATOM      2  C   LIG    1       23.896 -19.135   3.697  0.00  0.00    +0.049 A 
ATOM      3  C   LIG    1       25.034 -19.855   4.055  0.00  0.00    +0.049 A 
ATOM      4  C   LIG    1       25.033 -20.607   5.225  0.00  0.00    +0.117 A 
ATOM      5  C   LIG    1       23.904 -20.661   6.040  0.00  0.00    +0.049 A 
ATOM      6  C   LIG    1       22.762 -19.940   5.680  0.00  0.00    +0.049 A 
ENDROOT
BRANCH   1   7
ATOM      7  O   LIG    1       21.682 -18.450   4.134  0.00  0.00    -0.507 OA
ATOM      8  H   LIG    1       21.636 -17.651   4.686  0.00  0.00    +0.292 HD
ENDBRANCH   1   7
BRANCH   4   9
ATOM      9  O   LIG    1       26.173 -21.283   5.546  0.00  0.00    -0.507 OA
ATOM     10  H   LIG    1       26.275 -21.278   6.512  0.00  0.00    +0.292 HD
ENDBRANCH   4   9
TORSDOF 2
ENDMDL
MODEL 2
REMARK VINA RESULT:      -4.9      0.137      1.717
REMARK  Name = *****
REMARK                            x       y       z     vdW  Elec       q    Type
REMARK                         _______ _______ _______ _____ _____    ______ ____
ROOT
ATOM      1  C   LIG    1       22.769 -19.110   4.447  0.00  0.00    +0.117 A 
ATOM      2  C   LIG    1       22.694 -19.894   5.595  0.00  0.00    +0.049 A 
ATOM      3  C   LIG    1       23.784 -20.681   5.963  0.00  0.00    +0.049 A 
ATOM      4  C   LIG    1       24.932 -20.674   5.179  0.00  0.00    +0.117 A 
ATOM      5  C   LIG    1       25.014 -19.882   4.035  0.00  0.00    +0.049 A 
ATOM      6  C   LIG    1       23.922 -19.092   3.667  0.00  0.00    +0.049 A 
ENDROOT
BRANCH   1   7
ATOM      7  O   LIG    1       21.675 -18.365   4.116  0.00  0.00    -0.507 OA
ATOM      8  H   LIG    1       21.081 -18.910   3.576  0.00  0.00    +0.292 HD
ENDBRANCH   1   7
BRANCH   4   9
ATOM      9  O   LIG    1       25.970 -21.471   5.565  0.00  0.00    -0.507 OA
ATOM     10  H   LIG    1       25.840 -21.720   6.495  0.00  0.00    +0.292 HD
ENDBRANCH   4   9
TORSDOF 2
ENDMDL
MODEL 3
REMARK VINA RESULT:      -4.8      0.164      3.230
REMARK  Name = *****
REMARK                            x       y       z     vdW  Elec       q    Type
REMARK                         _______ _______ _______ _____ _____    ______ ____
ROOT
ATOM      1  C   LIG    1       24.955 -20.790   5.250  0.00  0.00    +0.117 A 
ATOM      2  C   LIG    1       25.034 -20.016   4.096  0.00  0.00    +0.049 A 
ATOM      3  C   LIG    1       23.954 -19.213   3.732  0.00  0.00    +0.049 A 
ATOM      4  C   LIG    1       22.811 -19.196   4.525  0.00  0.00    +0.117 A 
ATOM      5  C   LIG    1       22.734 -19.962   5.686  0.00  0.00    +0.049 A 
ATOM      6  C   LIG    1       23.817 -20.766   6.051  0.00  0.00    +0.049 A 
ENDROOT
BRANCH   1   7
ATOM      7  O   LIG    1       26.028 -21.571   5.563  0.00  0.00    -0.507 OA
ATOM      8  H   LIG    1       25.909 -22.442   5.150  0.00  0.00    +0.292 HD
ENDBRANCH   1   7
BRANCH   4   9
ATOM      9  O   LIG    1       21.772 -18.409   4.124  0.00  0.00    -0.507 OA
ATOM     10  H   LIG    1       20.950 -18.921   4.193  0.00  0.00    +0.292 HD
ENDBRANCH   4   9
TORSDOF 2
ENDMDL
MODEL 4
REMARK VINA RESULT:      -4.8      0.191      3.658
REMARK  Name = *****
REMARK                            x       y       z     vdW  Elec       q    Type
REMARK                         _______ _______ _______ _____ _____    ______ ____
ROOT
ATOM      1  C   LIG    1       24.993 -20.800   5.292  0.00  0.00    +0.117 A 
ATOM      2  C   LIG    1       23.830 -20.806   6.057  0.00  0.00    +0.049 A 
ATOM      3  C   LIG    1       22.745 -20.023   5.664  0.00  0.00    +0.049 A 
ATOM      4  C   LIG    1       22.838 -19.246   4.516  0.00  0.00    +0.117 A 
ATOM      5  C   LIG    1       23.997 -19.246   3.742  0.00  0.00    +0.049 A 
ATOM      6  C   LIG    1       25.084 -20.032   4.135  0.00  0.00    +0.049 A 
ENDROOT
BRANCH   1   7
ATOM      7  O   LIG    1       26.035 -21.570   5.718  0.00  0.00    -0.507 OA
ATOM      8  H   LIG    1       26.146 -21.440   6.674  0.00  0.00    +0.292 HD
ENDBRANCH   1   7
BRANCH   4   9
ATOM      9  O   LIG    1       21.760 -18.482   4.176  0.00  0.00    -0.507 OA
ATOM     10  H   LIG    1       21.009 -19.070   3.992  0.00  0.00    +0.292 HD
ENDBRANCH   4   9
TORSDOF 2
ENDMDL
MODEL 5
REMARK VINA RESULT:      -4.7      6.417      7.409
REMARK  Name = *****
REMARK                            x       y       z     vdW  Elec       q    Type
REMARK                         _______ _______ _______ _____ _____    ______ ____
ROOT
ATOM      1  C   LIG    1       27.947 -13.547   3.633  0.00  0.00    +0.117 A 
ATOM      2  C   LIG    1       27.108 -13.998   2.618  0.00  0.00    +0.049 A 
ATOM      3  C   LIG    1       25.758 -14.217   2.889  0.00  0.00    +0.049 A 
ATOM      4  C   LIG    1       25.267 -13.985   4.169  0.00  0.00    +0.117 A 
ATOM      5  C   LIG    1       26.102 -13.524   5.185  0.00  0.00    +0.049 A 
ATOM      6  C   LIG    1       27.455 -13.302   4.912  0.00  0.00    +0.049 A 
ENDROOT
BRANCH   1   7
ATOM      7  O   LIG    1       29.263 -13.357   3.329  0.00  0.00    -0.507 OA
ATOM      8  H   LIG    1       29.445 -12.403   3.320  0.00  0.00    +0.292 HD
ENDBRANCH   1   7
BRANCH   4   9
ATOM      9  O   LIG    1       23.944 -14.228   4.395  0.00  0.00    -0.507 OA
ATOM     10  H   LIG    1       23.851 -15.123   4.762  0.00  0.00    +0.292 HD
ENDBRANCH   4   9
TORSDOF 2
ENDMDL
MODEL 6
REMARK VINA RESULT:      -4.7      6.412      6.922
REMARK  Name = *****
REMARK                            x       y       z     vdW  Elec       q    Type
REMARK                         _______ _______ _______ _____ _____    ______ ____
ROOT
ATOM      1  C   LIG    1       25.291 -14.010   4.175  0.00  0.00    +0.117 A 
ATOM      2  C   LIG    1       25.796 -14.292   2.909  0.00  0.00    +0.049 A 
ATOM      3  C   LIG    1       27.146 -14.067   2.642  0.00  0.00    +0.049 A 
ATOM      4  C   LIG    1       27.970 -13.563   3.642  0.00  0.00    +0.117 A 
ATOM      5  C   LIG    1       27.470 -13.290   4.913  0.00  0.00    +0.049 A 
ATOM      6  C   LIG    1       26.117 -13.517   5.181  0.00  0.00    +0.049 A 
ENDROOT
BRANCH   1   7
ATOM      7  O   LIG    1       23.963 -14.232   4.391  0.00  0.00    -0.507 OA
ATOM      8  H   LIG    1       23.783 -15.179   4.270  0.00  0.00    +0.292 HD
ENDBRANCH   1   7
BRANCH   4   9
ATOM      9  O   LIG    1       29.281 -13.343   3.334  0.00  0.00    -0.507 OA
ATOM     10  H   LIG    1       29.426 -13.585   2.404  0.00  0.00    +0.292 HD
ENDBRANCH   4   9
TORSDOF 2
ENDMDL
MODEL 7
REMARK VINA RESULT:      -4.7      6.427      7.554
REMARK  Name = *****
REMARK                            x       y       z     vdW  Elec       q    Type
REMARK                         _______ _______ _______ _____ _____    ______ ____
ROOT
ATOM      1  C   LIG    1       27.931 -13.563   3.581  0.00  0.00    +0.117 A 
ATOM      2  C   LIG    1       27.453 -13.345   4.870  0.00  0.00    +0.049 A 
ATOM      3  C   LIG    1       26.098 -13.532   5.141  0.00  0.00    +0.049 A 
ATOM      4  C   LIG    1       25.242 -13.932   4.121  0.00  0.00    +0.117 A 
ATOM      5  C   LIG    1       25.720 -14.161   2.833  0.00  0.00    +0.049 A 
ATOM      6  C   LIG    1       27.078 -13.975   2.562  0.00  0.00    +0.049 A 
ENDROOT
BRANCH   1   7
ATOM      7  O   LIG    1       29.261 -13.356   3.356  0.00  0.00    -0.507 OA
ATOM      8  H   LIG    1       29.388 -12.435   3.074  0.00  0.00    +0.292 HD
ENDBRANCH   1   7
BRANCH   4   9
ATOM      9  O   LIG    1       23.921 -14.088   4.425  0.00  0.00    -0.507 OA
ATOM     10  H   LIG    1       23.682 -13.443   5.110  0.00  0.00    +0.292 HD
ENDBRANCH   4   9
TORSDOF 2
ENDMDL
MODEL 8
REMARK VINA RESULT:      -4.6      1.551      3.140
REMARK  Name = *****
REMARK                            x       y       z     vdW  Elec       q    Type
REMARK                         _______ _______ _______ _____ _____    ______ ____
ROOT
ATOM      1  C   LIG    1       25.937 -20.217   5.032  0.00  0.00    +0.117 A 
ATOM      2  C   LIG    1       25.167 -19.997   3.894  0.00  0.00    +0.049 A 
ATOM      3  C   LIG    1       23.816 -20.340   3.901  0.00  0.00    +0.049 A 
ATOM      4  C   LIG    1       23.254 -20.900   5.044  0.00  0.00    +0.117 A 
ATOM      5  C   LIG    1       24.020 -21.112   6.188  0.00  0.00    +0.049 A 
ATOM      6  C   LIG    1       25.374 -20.766   6.182  0.00  0.00    +0.049 A 
ENDROOT
BRANCH   1   7
ATOM      7  O   LIG    1       27.257 -19.878   4.979  0.00  0.00    -0.507 OA
ATOM      8  H   LIG    1       27.772 -20.673   4.766  0.00  0.00    +0.292 HD
ENDBRANCH   1   7
BRANCH   4   9
ATOM      9  O   LIG    1       21.933 -21.236   5.003  0.00  0.00    -0.507 OA
ATOM     10  H   LIG    1       21.626 -21.175   4.084  0.00  0.00    +0.292 HD
ENDBRANCH   4   9
TORSDOF 2
ENDMDL
MODEL 9
REMARK VINA RESULT:      -4.6      1.507      2.300
REMARK  Name = *****
REMARK                            x       y       z     vdW  Elec       q    Type
REMARK                         _______ _______ _______ _____ _____    ______ ____
ROOT
ATOM      1  C   LIG    1       23.271 -20.824   4.920  0.00  0.00    +0.117 A 
ATOM      2  C   LIG    1       24.063 -21.160   6.015  0.00  0.00    +0.049 A 
ATOM      3  C   LIG    1       25.416 -20.824   6.013  0.00  0.00    +0.049 A 
ATOM      4  C   LIG    1       25.958 -20.159   4.918  0.00  0.00    +0.117 A 
ATOM      5  C   LIG    1       25.165 -19.813   3.826  0.00  0.00    +0.049 A 
ATOM      6  C   LIG    1       23.809 -20.148   3.828  0.00  0.00    +0.049 A 
ENDROOT
BRANCH   1   7
ATOM      7  O   LIG    1       21.956 -21.183   4.956  0.00  0.00    -0.507 OA
ATOM      8  H   LIG    1       21.617 -21.029   5.854  0.00  0.00    +0.292 HD
ENDBRANCH   1   7
BRANCH   4   9
ATOM      9  O   LIG    1       27.289 -19.863   4.950  0.00  0.00    -0.507 OA
ATOM     10  H   LIG    1       27.789 -20.650   4.678  0.00  0.00    +0.292 HD
ENDBRANCH   4   9
TORSDOF 2
ENDMDL
