MODEL 1
REMARK VINA RESULT:      -8.9      0.000      0.000
REMARK  Name = *****
REMARK                            x       y       z     vdW  Elec       q    Type
REMARK                         _______ _______ _______ _____ _____    ______ ____
ROOT
ATOM      1  C   LIG    1       24.703 -24.353   6.359  0.00  0.00    -0.028 A 
ATOM      2  C   LIG    1       24.028 -25.434   5.825  0.00  0.00    +0.006 A 
ATOM      3  C   LIG    1       24.026 -26.756   6.198  0.00  0.00    +0.009 A 
ATOM      4  C   LIG    1       25.194 -27.255   6.613  0.00  0.00    -0.017 A 
ATOM      5  C   LIG    1       26.137 -26.253   7.009  0.00  0.00    +0.009 A 
ATOM      6  C   LIG    1       25.872 -24.829   6.943  0.00  0.00    +0.006 A 
ENDROOT
BRANCH   4   7
ATOM      7  C   LIG    1       25.370 -28.715   6.638  0.00  0.00    -0.007 A 
ATOM      8  C   LIG    1       25.689 -29.606   7.752  0.00  0.00    +0.030 A 
ATOM      9  C   LIG    1       25.760 -31.001   7.482  0.00  0.00    +0.012 A 
ATOM     10  C   LIG    1       25.559 -31.535   6.187  0.00  0.00    +0.001 A 
ATOM     11  C   LIG    1       25.322 -30.677   5.151  0.00  0.00    +0.001 A 
ATOM     12  C   LIG    1       25.255 -29.322   5.358  0.00  0.00    +0.009 A 
BRANCH   8  13
ATOM     13  C   LIG    1       25.920 -29.285   9.198  0.00  0.00    +0.205 A 
ATOM     14  N   LIG    1       25.065 -29.654  10.186  0.00  0.00    -0.133 NA
ATOM     15  N   LIG    1       25.635 -29.082  11.258  0.00  0.00    -0.176 N 
ATOM     16  H   LIG    1       25.194 -29.067  12.172  0.00  0.00    +0.214 HD
ATOM     17  N   LIG    1       26.804 -28.486  11.034  0.00  0.00    -0.049 NA
ATOM     18  N   LIG    1       26.972 -28.570   9.723  0.00  0.00    -0.108 NA
ENDBRANCH   8  13
ENDBRANCH   4   7
BRANCH   1  19
ATOM     19  C   LIG    1       24.204 -22.859   6.461  0.00  0.00    +0.158 C 
BRANCH  19  21
ATOM     20  C   LIG    1       26.208 -21.141   6.140  0.00  0.00    +0.112 A 
ATOM     21  N   LIG    1       24.904 -21.633   5.874  0.00  0.00    -0.324 N 
ATOM     22  C   LIG    1       24.439 -20.720   4.937  0.00  0.00    +0.083 A 
ATOM     23  C   LIG    1       25.442 -19.860   4.605  0.00  0.00    +0.153 A 
ATOM     24 CL   LIG    1       25.291 -18.598   3.466  0.00  0.00    -0.060 Cl
ATOM     25  N   LIG    1       26.532 -20.139   5.311  0.00  0.00    -0.221 NA
BRANCH  20  26
ATOM     26  C   LIG    1       27.151 -21.472   7.249  0.00  0.00    +0.074 C 
BRANCH  26  27
ATOM     27  C   LIG    1       27.969 -20.274   7.742  0.00  0.00    +0.007 C 
BRANCH  27  29
ATOM     28  C   LIG    1       30.021 -19.295   6.599  0.00  0.00    +0.004 C 
ATOM     29  C   LIG    1       29.459 -20.452   7.413  0.00  0.00    -0.003 C 
ENDBRANCH  27  29
ENDBRANCH  26  27
ENDBRANCH  20  26
BRANCH  22  30
ATOM     30  C   LIG    1       23.151 -20.637   4.396  0.00  0.00    +0.212 C 
BRANCH  30  31
ATOM     31  O   LIG    1       22.441 -19.800   5.305  0.00  0.00    -0.389 OA
ATOM     32  H   LIG    1       22.918 -19.756   6.144  0.00  0.00    +0.210 HD
ENDBRANCH  30  31
ENDBRANCH  22  30
ENDBRANCH  19  21
ENDBRANCH   1  19
TORSDOF 9
ENDMDL
MODEL 2
REMARK VINA RESULT:      -8.9      1.644      3.099
REMARK  Name = *****
REMARK                            x       y       z     vdW  Elec       q    Type
REMARK                         _______ _______ _______ _____ _____    ______ ____
ROOT
ATOM      1  C   LIG    1       25.027 -24.197   6.301  0.00  0.00    -0.028 A 
ATOM      2  C   LIG    1       24.089 -25.181   6.052  0.00  0.00    +0.006 A 
ATOM      3  C   LIG    1       24.035 -26.488   6.474  0.00  0.00    +0.009 A 
ATOM      4  C   LIG    1       25.202 -27.137   6.538  0.00  0.00    -0.017 A 
ATOM      5  C   LIG    1       26.340 -26.268   6.576  0.00  0.00    +0.009 A 
ATOM      6  C   LIG    1       26.248 -24.823   6.523  0.00  0.00    +0.006 A 
ENDROOT
BRANCH   4   7
ATOM      7  C   LIG    1       25.191 -28.607   6.581  0.00  0.00    -0.007 A 
ATOM      8  C   LIG    1       25.465 -29.518   7.690  0.00  0.00    +0.030 A 
ATOM      9  C   LIG    1       25.340 -30.914   7.445  0.00  0.00    +0.012 A 
ATOM     10  C   LIG    1       24.988 -31.432   6.176  0.00  0.00    +0.001 A 
ATOM     11  C   LIG    1       24.795 -30.564   5.140  0.00  0.00    +0.001 A 
ATOM     12  C   LIG    1       24.915 -29.209   5.323  0.00  0.00    +0.009 A 
BRANCH   8  13
ATOM     13  C   LIG    1       25.830 -29.212   9.112  0.00  0.00    +0.205 A 
ATOM     14  N   LIG    1       25.068 -29.588  10.170  0.00  0.00    -0.133 NA
ATOM     15  N   LIG    1       25.736 -29.028  11.192  0.00  0.00    -0.176 N 
ATOM     16  H   LIG    1       25.382 -29.021  12.142  0.00  0.00    +0.214 HD
ATOM     17  N   LIG    1       26.883 -28.434  10.867  0.00  0.00    -0.049 NA
ATOM     18  N   LIG    1       26.929 -28.506   9.544  0.00  0.00    -0.108 NA
ENDBRANCH   8  13
ENDBRANCH   4   7
BRANCH   1  19
ATOM     19  C   LIG    1       24.776 -22.649   6.475  0.00  0.00    +0.158 C 
BRANCH  19  21
ATOM     20  C   LIG    1       25.547 -20.577   4.998  0.00  0.00    +0.112 A 
ATOM     21  N   LIG    1       25.720 -21.528   6.035  0.00  0.00    -0.324 N 
ATOM     22  C   LIG    1       26.957 -21.167   6.552  0.00  0.00    +0.083 A 
ATOM     23  C   LIG    1       27.388 -20.029   5.942  0.00  0.00    +0.153 A 
ATOM     24 CL   LIG    1       28.857 -19.238   6.306  0.00  0.00    -0.060 Cl
ATOM     25  N   LIG    1       26.512 -19.646   5.020  0.00  0.00    -0.221 NA
BRANCH  20  26
ATOM     26  C   LIG    1       24.577 -20.559   3.863  0.00  0.00    +0.074 C 
BRANCH  26  27
ATOM     27  C   LIG    1       23.798 -19.246   3.737  0.00  0.00    +0.007 C 
BRANCH  27  29
ATOM     28  C   LIG    1       22.079 -20.683   4.943  0.00  0.00    +0.004 C 
ATOM     29  C   LIG    1       22.535 -19.269   4.610  0.00  0.00    -0.003 C 
ENDBRANCH  27  29
ENDBRANCH  26  27
ENDBRANCH  20  26
BRANCH  22  30
ATOM     30  C   LIG    1       27.699 -21.838   7.531  0.00  0.00    +0.212 C 
BRANCH  30  31
ATOM     31  O   LIG    1       27.096 -21.443   8.761  0.00  0.00    -0.389 OA
ATOM     32  H   LIG    1       26.253 -21.007   8.583  0.00  0.00    +0.210 HD
ENDBRANCH  30  31
ENDBRANCH  22  30
ENDBRANCH  19  21
ENDBRANCH   1  19
TORSDOF 9
ENDMDL
MODEL 3
REMARK VINA RESULT:      -8.8      2.234      3.465
REMARK  Name = *****
REMARK                            x       y       z     vdW  Elec       q    Type
REMARK                         _______ _______ _______ _____ _____    ______ ____
ROOT
ATOM      1  C   LIG    1       25.245 -25.352   5.761  0.00  0.00    -0.028 A 
ATOM      2  C   LIG    1       24.427 -26.415   5.427  0.00  0.00    +0.006 A 
ATOM      3  C   LIG    1       24.139 -27.569   6.115  0.00  0.00    +0.009 A 
ATOM      4  C   LIG    1       25.148 -28.117   6.799  0.00  0.00    -0.017 A 
ATOM      5  C   LIG    1       26.226 -27.210   7.057  0.00  0.00    +0.009 A 
ATOM      6  C   LIG    1       26.243 -25.834   6.601  0.00  0.00    +0.006 A 
ENDROOT
BRANCH   4   7
ATOM      7  C   LIG    1       25.040 -29.524   7.212  0.00  0.00    -0.007 A 
ATOM      8  C   LIG    1       25.609 -30.212   8.369  0.00  0.00    +0.030 A 
ATOM      9  C   LIG    1       25.299 -31.591   8.536  0.00  0.00    +0.012 A 
ATOM     10  C   LIG    1       24.491 -32.303   7.618  0.00  0.00    +0.001 A 
ATOM     11  C   LIG    1       24.020 -31.654   6.514  0.00  0.00    +0.001 A 
ATOM     12  C   LIG    1       24.301 -30.327   6.301  0.00  0.00    +0.009 A 
BRANCH   8  13
ATOM     13  C   LIG    1       26.465 -29.674   9.476  0.00  0.00    +0.205 A 
ATOM     14  N   LIG    1       26.176 -28.530  10.148  0.00  0.00    -0.133 NA
ATOM     15  N   LIG    1       27.244 -28.419  10.955  0.00  0.00    -0.176 N 
ATOM     16  H   LIG    1       27.411 -27.603  11.535  0.00  0.00    +0.214 HD
ATOM     17  N   LIG    1       28.103 -29.435  10.909  0.00  0.00    -0.049 NA
ATOM     18  N   LIG    1       27.641 -30.215   9.942  0.00  0.00    -0.108 NA
ENDBRANCH   8  13
ENDBRANCH   4   7
BRANCH   1  19
ATOM     19  C   LIG    1       25.032 -23.827   5.416  0.00  0.00    +0.158 C 
BRANCH  19  21
ATOM     20  C   LIG    1       23.701 -21.996   6.811  0.00  0.00    +0.112 A 
ATOM     21  N   LIG    1       24.878 -22.688   6.425  0.00  0.00    -0.324 N 
ATOM     22  C   LIG    1       25.843 -22.071   7.209  0.00  0.00    +0.083 A 
ATOM     23  C   LIG    1       25.243 -21.192   8.059  0.00  0.00    +0.153 A 
ATOM     24 CL   LIG    1       26.074 -20.244   9.210  0.00  0.00    -0.060 Cl
ATOM     25  N   LIG    1       23.932 -21.173   7.843  0.00  0.00    -0.221 NA
BRANCH  20  26
ATOM     26  C   LIG    1       22.356 -21.955   6.164  0.00  0.00    +0.074 C 
BRANCH  26  27
ATOM     27  C   LIG    1       22.277 -21.008   4.962  0.00  0.00    +0.007 C 
BRANCH  27  29
ATOM     28  C   LIG    1       22.186 -18.549   4.316  0.00  0.00    +0.004 C 
ATOM     29  C   LIG    1       22.588 -19.563   5.378  0.00  0.00    -0.003 C 
ENDBRANCH  27  29
ENDBRANCH  26  27
ENDBRANCH  20  26
BRANCH  22  30
ATOM     30  C   LIG    1       27.228 -22.266   7.164  0.00  0.00    +0.212 C 
BRANCH  30  31
ATOM     31  O   LIG    1       27.713 -21.171   6.391  0.00  0.00    -0.389 OA
ATOM     32  H   LIG    1       27.164 -20.392   6.552  0.00  0.00    +0.210 HD
ENDBRANCH  30  31
ENDBRANCH  22  30
ENDBRANCH  19  21
ENDBRANCH   1  19
TORSDOF 9
ENDMDL
MODEL 4
REMARK VINA RESULT:      -8.5      3.902      8.752
REMARK  Name = *****
REMARK                            x       y       z     vdW  Elec       q    Type
REMARK                         _______ _______ _______ _____ _____    ______ ____
ROOT
ATOM      1  C   LIG    1       25.266 -26.974   6.509  0.00  0.00    -0.028 A 
ATOM      2  C   LIG    1       24.071 -26.279   6.496  0.00  0.00    +0.006 A 
ATOM      3  C   LIG    1       23.785 -25.005   6.069  0.00  0.00    +0.009 A 
ATOM      4  C   LIG    1       24.716 -24.077   6.312  0.00  0.00    -0.017 A 
ATOM      5  C   LIG    1       26.013 -24.623   6.579  0.00  0.00    +0.009 A 
ATOM      6  C   LIG    1       26.295 -26.044   6.613  0.00  0.00    +0.006 A 
ENDROOT
BRANCH   4   7
ATOM      7  C   LIG    1       24.331 -22.659   6.259  0.00  0.00    -0.007 A 
ATOM      8  C   LIG    1       25.085 -21.464   6.632  0.00  0.00    +0.030 A 
ATOM      9  C   LIG    1       24.460 -20.201   6.435  0.00  0.00    +0.012 A 
ATOM     10  C   LIG    1       23.147 -20.076   5.922  0.00  0.00    +0.001 A 
ATOM     11  C   LIG    1       22.440 -21.208   5.638  0.00  0.00    +0.001 A 
ATOM     12  C   LIG    1       22.994 -22.451   5.821  0.00  0.00    +0.009 A 
BRANCH   8  13
ATOM     13  C   LIG    1       26.479 -21.342   7.168  0.00  0.00    +0.205 A 
ATOM     14  N   LIG    1       27.524 -20.899   6.423  0.00  0.00    -0.133 NA
ATOM     15  N   LIG    1       28.545 -21.046   7.282  0.00  0.00    -0.176 N 
ATOM     16  H   LIG    1       29.514 -20.905   7.015  0.00  0.00    +0.214 HD
ATOM     17  N   LIG    1       28.208 -21.441   8.508  0.00  0.00    -0.049 NA
ATOM     18  N   LIG    1       26.905 -21.674   8.434  0.00  0.00    -0.108 NA
ENDBRANCH   8  13
ENDBRANCH   4   7
BRANCH   1  19
ATOM     19  C   LIG    1       25.485 -28.520   6.282  0.00  0.00    +0.158 C 
BRANCH  19  21
ATOM     20  C   LIG    1       25.773 -29.559   8.713  0.00  0.00    +0.112 A 
ATOM     21  N   LIG    1       25.384 -29.611   7.350  0.00  0.00    -0.324 N 
ATOM     22  C   LIG    1       24.878 -30.899   7.245  0.00  0.00    +0.083 A 
ATOM     23  C   LIG    1       24.865 -31.483   8.475  0.00  0.00    +0.153 A 
ATOM     24 CL   LIG    1       24.294 -33.061   8.786  0.00  0.00    -0.060 Cl
ATOM     25  N   LIG    1       25.376 -30.653   9.378  0.00  0.00    -0.221 NA
BRANCH  20  26
ATOM     26  C   LIG    1       26.642 -28.577   9.426  0.00  0.00    +0.074 C 
BRANCH  26  27
ATOM     27  C   LIG    1       26.846 -28.898  10.911  0.00  0.00    +0.007 C 
BRANCH  27  29
ATOM     28  C   LIG    1       25.637 -27.676  12.788  0.00  0.00    +0.004 C 
ATOM     29  C   LIG    1       26.764 -27.624  11.765  0.00  0.00    -0.003 C 
ENDBRANCH  27  29
ENDBRANCH  26  27
ENDBRANCH  20  26
BRANCH  22  30
ATOM     30  C   LIG    1       24.452 -31.554   6.084  0.00  0.00    +0.212 C 
BRANCH  30  31
ATOM     31  O   LIG    1       23.262 -30.866   5.708  0.00  0.00    -0.389 OA
ATOM     32  H   LIG    1       23.370 -29.920   5.871  0.00  0.00    +0.210 HD
ENDBRANCH  30  31
ENDBRANCH  22  30
ENDBRANCH  19  21
ENDBRANCH   1  19
TORSDOF 9
ENDMDL
MODEL 5
REMARK VINA RESULT:      -8.4      4.337      8.845
REMARK  Name = *****
REMARK                            x       y       z     vdW  Elec       q    Type
REMARK                         _______ _______ _______ _____ _____    ______ ____
ROOT
ATOM      1  C   LIG    1       25.391 -27.322   6.348  0.00  0.00    -0.028 A 
ATOM      2  C   LIG    1       24.207 -26.652   6.103  0.00  0.00    +0.006 A 
ATOM      3  C   LIG    1       23.975 -25.331   5.804  0.00  0.00    +0.009 A 
ATOM      4  C   LIG    1       24.748 -24.439   6.430  0.00  0.00    -0.017 A 
ATOM      5  C   LIG    1       25.952 -24.999   6.966  0.00  0.00    +0.009 A 
ATOM      6  C   LIG    1       26.296 -26.404   6.870  0.00  0.00    +0.006 A 
ENDROOT
BRANCH   4   7
ATOM      7  C   LIG    1       24.310 -23.036   6.480  0.00  0.00    -0.007 A 
ATOM      8  C   LIG    1       25.038 -21.835   6.884  0.00  0.00    +0.030 A 
ATOM      9  C   LIG    1       24.360 -20.588   6.792  0.00  0.00    +0.012 A 
ATOM     10  C   LIG    1       23.018 -20.485   6.352  0.00  0.00    +0.001 A 
ATOM     11  C   LIG    1       22.339 -21.627   6.038  0.00  0.00    +0.001 A 
ATOM     12  C   LIG    1       22.946 -22.855   6.121  0.00  0.00    +0.009 A 
BRANCH   8  13
ATOM     13  C   LIG    1       26.453 -21.689   7.358  0.00  0.00    +0.205 A 
ATOM     14  N   LIG    1       27.482 -21.365   6.533  0.00  0.00    -0.133 NA
ATOM     15  N   LIG    1       28.528 -21.439   7.371  0.00  0.00    -0.176 N 
ATOM     16  H   LIG    1       29.490 -21.357   7.058  0.00  0.00    +0.214 HD
ATOM     17  N   LIG    1       28.224 -21.679   8.645  0.00  0.00    -0.049 NA
ATOM     18  N   LIG    1       26.915 -21.883   8.639  0.00  0.00    -0.108 NA
ENDBRANCH   8  13
ENDBRANCH   4   7
BRANCH   1  19
ATOM     19  C   LIG    1       25.753 -28.810   5.968  0.00  0.00    +0.158 C 
BRANCH  19  21
ATOM     20  C   LIG    1       24.248 -30.272   7.601  0.00  0.00    +0.112 A 
ATOM     21  N   LIG    1       24.999 -30.063   6.416  0.00  0.00    -0.324 N 
ATOM     22  C   LIG    1       24.861 -31.284   5.769  0.00  0.00    +0.083 A 
ATOM     23  C   LIG    1       23.998 -32.072   6.468  0.00  0.00    +0.153 A 
ATOM     24 CL   LIG    1       23.535 -33.647   5.998  0.00  0.00    -0.060 Cl
ATOM     25  N   LIG    1       23.594 -31.443   7.566  0.00  0.00    -0.221 NA
BRANCH  20  26
ATOM     26  C   LIG    1       24.208 -29.480   8.865  0.00  0.00    +0.074 C 
BRANCH  26  27
ATOM     27  C   LIG    1       25.342 -29.816   9.840  0.00  0.00    +0.007 C 
BRANCH  27  29
ATOM     28  C   LIG    1       26.828 -28.052  10.914  0.00  0.00    +0.004 C 
ATOM     29  C   LIG    1       26.527 -28.856   9.657  0.00  0.00    -0.003 C 
ENDBRANCH  27  29
ENDBRANCH  26  27
ENDBRANCH  20  26
BRANCH  22  30
ATOM     30  C   LIG    1       25.495 -31.701   4.594  0.00  0.00    +0.212 C 
BRANCH  30  31
ATOM     31  O   LIG    1       26.614 -32.459   5.047  0.00  0.00    -0.389 OA
ATOM     32  H   LIG    1       26.962 -32.068   5.859  0.00  0.00    +0.210 HD
ENDBRANCH  30  31
ENDBRANCH  22  30
ENDBRANCH  19  21
ENDBRANCH   1  19
TORSDOF 9
ENDMDL
MODEL 6
REMARK VINA RESULT:      -8.1      4.202      8.397
REMARK  Name = *****
REMARK                            x       y       z     vdW  Elec       q    Type
REMARK                         _______ _______ _______ _____ _____    ______ ____
ROOT
ATOM      1  C   LIG    1       26.961 -20.540   5.728  0.00  0.00    -0.028 A 
ATOM      2  C   LIG    1       27.358 -20.824   7.022  0.00  0.00    +0.006 A 
ATOM      3  C   LIG    1       28.019 -20.046   7.942  0.00  0.00    +0.009 A 
ATOM      4  C   LIG    1       28.972 -19.242   7.461  0.00  0.00    -0.017 A 
ATOM      5  C   LIG    1       28.862 -19.000   6.054  0.00  0.00    +0.009 A 
ATOM      6  C   LIG    1       27.836 -19.589   5.216  0.00  0.00    +0.006 A 
ENDROOT
BRANCH   4   7
ATOM      7  C   LIG    1       29.973 -18.699   8.391  0.00  0.00    -0.007 A 
ATOM      8  C   LIG    1       31.047 -19.373   9.117  0.00  0.00    +0.030 A 
ATOM      9  C   LIG    1       31.899 -18.574   9.930  0.00  0.00    +0.012 A 
ATOM     10  C   LIG    1       31.722 -17.176  10.068  0.00  0.00    +0.001 A 
ATOM     11  C   LIG    1       30.676 -16.578   9.427  0.00  0.00    +0.001 A 
ATOM     12  C   LIG    1       29.819 -17.308   8.641  0.00  0.00    +0.009 A 
BRANCH   8  13
ATOM     13  C   LIG    1       31.442 -20.820   9.115  0.00  0.00    +0.205 A 
ATOM     14  N   LIG    1       32.337 -21.343   8.238  0.00  0.00    -0.133 NA
ATOM     15  N   LIG    1       32.295 -22.645   8.561  0.00  0.00    -0.176 N 
ATOM     16  H   LIG    1       32.774 -23.360   8.024  0.00  0.00    +0.214 HD
ATOM     17  N   LIG    1       31.538 -22.949   9.613  0.00  0.00    -0.049 NA
ATOM     18  N   LIG    1       30.957 -21.805   9.944  0.00  0.00    -0.108 NA
ENDBRANCH   8  13
ENDBRANCH   4   7
BRANCH   1  19
ATOM     19  C   LIG    1       25.666 -21.049   4.984  0.00  0.00    +0.158 C 
BRANCH  19  21
ATOM     20  C   LIG    1       23.294 -20.610   6.103  0.00  0.00    +0.112 A 
ATOM     21  N   LIG    1       24.268 -20.437   5.086  0.00  0.00    -0.324 N 
ATOM     22  C   LIG    1       23.627 -19.561   4.221  0.00  0.00    +0.083 A 
ATOM     23  C   LIG    1       22.441 -19.172   4.767  0.00  0.00    +0.153 A 
ATOM     24 CL   LIG    1       21.356 -18.077   4.032  0.00  0.00    -0.060 Cl
ATOM     25  N   LIG    1       22.254 -19.782   5.932  0.00  0.00    -0.221 NA
BRANCH  20  26
ATOM     26  C   LIG    1       23.210 -21.633   7.187  0.00  0.00    +0.074 C 
BRANCH  26  27
ATOM     27  C   LIG    1       22.950 -23.054   6.677  0.00  0.00    +0.007 C 
BRANCH  27  29
ATOM     28  C   LIG    1       24.020 -25.315   6.210  0.00  0.00    +0.004 C 
ATOM     29  C   LIG    1       24.224 -23.909   6.756  0.00  0.00    -0.003 C 
ENDBRANCH  27  29
ENDBRANCH  26  27
ENDBRANCH  20  26
BRANCH  22  30
ATOM     30  C   LIG    1       24.070 -19.126   2.967  0.00  0.00    +0.212 C 
BRANCH  30  31
ATOM     31  O   LIG    1       25.122 -18.210   3.263  0.00  0.00    -0.389 OA
ATOM     32  H   LIG    1       25.102 -17.989   4.204  0.00  0.00    +0.210 HD
ENDBRANCH  30  31
ENDBRANCH  22  30
ENDBRANCH  19  21
ENDBRANCH   1  19
TORSDOF 9
ENDMDL
MODEL 7
REMARK VINA RESULT:      -8.1      4.063      9.060
REMARK  Name = *****
REMARK                            x       y       z     vdW  Elec       q    Type
REMARK                         _______ _______ _______ _____ _____    ______ ____
ROOT
ATOM      1  C   LIG    1       25.024 -27.065   5.801  0.00  0.00    -0.028 A 
ATOM      2  C   LIG    1       25.726 -26.447   6.819  0.00  0.00    +0.006 A 
ATOM      3  C   LIG    1       25.684 -25.151   7.271  0.00  0.00    +0.009 A 
ATOM      4  C   LIG    1       25.529 -24.204   6.340  0.00  0.00    -0.017 A 
ATOM      5  C   LIG    1       25.009 -24.699   5.101  0.00  0.00    +0.009 A 
ATOM      6  C   LIG    1       24.702 -26.095   4.859  0.00  0.00    +0.006 A 
ENDROOT
BRANCH   4   7
ATOM      7  C   LIG    1       25.875 -22.816   6.680  0.00  0.00    -0.007 A 
ATOM      8  C   LIG    1       25.122 -21.580   6.471  0.00  0.00    +0.030 A 
ATOM      9  C   LIG    1       25.699 -20.368   6.944  0.00  0.00    +0.012 A 
ATOM     10  C   LIG    1       26.965 -20.326   7.575  0.00  0.00    +0.001 A 
ATOM     11  C   LIG    1       27.675 -21.484   7.704  0.00  0.00    +0.001 A 
ATOM     12  C   LIG    1       27.168 -22.678   7.255  0.00  0.00    +0.009 A 
BRANCH   8  13
ATOM     13  C   LIG    1       23.771 -21.376   5.856  0.00  0.00    +0.205 A 
ATOM     14  N   LIG    1       22.705 -22.173   6.125  0.00  0.00    -0.133 NA
ATOM     15  N   LIG    1       21.778 -21.665   5.297  0.00  0.00    -0.176 N 
ATOM     16  H   LIG    1       20.870 -22.096   5.158  0.00  0.00    +0.214 HD
ATOM     17  N   LIG    1       22.146 -20.576   4.625  0.00  0.00    -0.049 NA
ATOM     18  N   LIG    1       23.423 -20.411   4.939  0.00  0.00    -0.108 NA
ENDBRANCH   8  13
ENDBRANCH   4   7
BRANCH   1  19
ATOM     19  C   LIG    1       24.513 -28.557   5.751  0.00  0.00    +0.158 C 
BRANCH  19  21
ATOM     20  C   LIG    1       25.338 -29.943   7.865  0.00  0.00    +0.112 A 
ATOM     21  N   LIG    1       25.140 -29.750   6.473  0.00  0.00    -0.324 N 
ATOM     22  C   LIG    1       25.652 -30.928   5.945  0.00  0.00    +0.083 A 
ATOM     23  C   LIG    1       25.992 -31.769   6.960  0.00  0.00    +0.153 A 
ATOM     24 CL   LIG    1       26.638 -33.334   6.739  0.00  0.00    -0.060 Cl
ATOM     25  N   LIG    1       25.767 -31.185   8.131  0.00  0.00    -0.221 NA
BRANCH  20  26
ATOM     26  C   LIG    1       25.277 -28.962   8.987  0.00  0.00    +0.074 C 
BRANCH  26  27
ATOM     27  C   LIG    1       26.653 -28.553   9.526  0.00  0.00    +0.007 C 
BRANCH  27  29
ATOM     28  C   LIG    1       25.438 -28.712  11.756  0.00  0.00    +0.004 C 
ATOM     29  C   LIG    1       26.768 -28.854  11.027  0.00  0.00    -0.003 C 
ENDBRANCH  27  29
ENDBRANCH  26  27
ENDBRANCH  20  26
BRANCH  22  30
ATOM     30  C   LIG    1       25.831 -31.248   4.595  0.00  0.00    +0.212 C 
BRANCH  30  31
ATOM     31  O   LIG    1       24.787 -32.177   4.312  0.00  0.00    -0.389 OA
ATOM     32  H   LIG    1       24.355 -32.439   5.136  0.00  0.00    +0.210 HD
ENDBRANCH  30  31
ENDBRANCH  22  30
ENDBRANCH  19  21
ENDBRANCH   1  19
TORSDOF 9
ENDMDL
MODEL 8
REMARK VINA RESULT:      -8.0      3.977      9.290
REMARK  Name = *****
REMARK                            x       y       z     vdW  Elec       q    Type
REMARK                         _______ _______ _______ _____ _____    ______ ____
ROOT
ATOM      1  C   LIG    1       25.207 -27.180   6.534  0.00  0.00    -0.028 A 
ATOM      2  C   LIG    1       24.031 -26.481   6.332  0.00  0.00    +0.006 A 
ATOM      3  C   LIG    1       23.823 -25.179   5.945  0.00  0.00    +0.009 A 
ATOM      4  C   LIG    1       24.679 -24.274   6.431  0.00  0.00    -0.017 A 
ATOM      5  C   LIG    1       25.902 -24.842   6.912  0.00  0.00    +0.009 A 
ATOM      6  C   LIG    1       26.185 -26.264   6.904  0.00  0.00    +0.006 A 
ENDROOT
BRANCH   4   7
ATOM      7  C   LIG    1       24.297 -22.855   6.401  0.00  0.00    -0.007 A 
ATOM      8  C   LIG    1       25.063 -21.666   6.770  0.00  0.00    +0.030 A 
ATOM      9  C   LIG    1       24.439 -20.398   6.598  0.00  0.00    +0.012 A 
ATOM     10  C   LIG    1       23.116 -20.264   6.112  0.00  0.00    +0.001 A 
ATOM     11  C   LIG    1       22.400 -21.391   5.832  0.00  0.00    +0.001 A 
ATOM     12  C   LIG    1       22.953 -22.637   5.991  0.00  0.00    +0.009 A 
BRANCH   8  13
ATOM     13  C   LIG    1       26.468 -21.553   7.279  0.00  0.00    +0.205 A 
ATOM     14  N   LIG    1       27.520 -21.224   6.487  0.00  0.00    -0.133 NA
ATOM     15  N   LIG    1       28.546 -21.335   7.346  0.00  0.00    -0.176 N 
ATOM     16  H   LIG    1       29.516 -21.259   7.057  0.00  0.00    +0.214 HD
ATOM     17  N   LIG    1       28.209 -21.603   8.606  0.00  0.00    -0.049 NA
ATOM     18  N   LIG    1       26.897 -21.787   8.565  0.00  0.00    -0.108 NA
ENDBRANCH   8  13
ENDBRANCH   4   7
BRANCH   1  19
ATOM     19  C   LIG    1       25.481 -28.707   6.250  0.00  0.00    +0.158 C 
BRANCH  19  21
ATOM     20  C   LIG    1       24.691 -31.135   6.992  0.00  0.00    +0.112 A 
ATOM     21  N   LIG    1       25.265 -29.860   7.232  0.00  0.00    -0.324 N 
ATOM     22  C   LIG    1       25.588 -29.939   8.579  0.00  0.00    +0.083 A 
ATOM     23  C   LIG    1       25.335 -31.198   9.033  0.00  0.00    +0.153 A 
ATOM     24 CL   LIG    1       25.618 -31.720  10.634  0.00  0.00    -0.060 Cl
ATOM     25  N   LIG    1       24.823 -31.939   8.057  0.00  0.00    -0.221 NA
BRANCH  20  26
ATOM     26  C   LIG    1       23.878 -31.621   5.839  0.00  0.00    +0.074 C 
BRANCH  26  27
ATOM     27  C   LIG    1       24.525 -32.779   5.072  0.00  0.00    +0.007 C 
BRANCH  27  29
ATOM     28  C   LIG    1       25.834 -32.773   2.890  0.00  0.00    +0.004 C 
ATOM     29  C   LIG    1       25.794 -32.316   4.342  0.00  0.00    -0.003 C 
ENDBRANCH  27  29
ENDBRANCH  26  27
ENDBRANCH  20  26
BRANCH  22  30
ATOM     30  C   LIG    1       26.081 -28.916   9.398  0.00  0.00    +0.212 C 
BRANCH  30  31
ATOM     31  O   LIG    1       27.487 -29.145   9.439  0.00  0.00    -0.389 OA
ATOM     32  H   LIG    1       27.847 -28.798  10.266  0.00  0.00    +0.210 HD
ENDBRANCH  30  31
ENDBRANCH  22  30
ENDBRANCH  19  21
ENDBRANCH   1  19
TORSDOF 9
ENDMDL
MODEL 9
REMARK VINA RESULT:      -7.9      3.927      9.138
REMARK  Name = *****
REMARK                            x       y       z     vdW  Elec       q    Type
REMARK                         _______ _______ _______ _____ _____    ______ ____
ROOT
ATOM      1  C   LIG    1       25.702 -26.326   6.843  0.00  0.00    -0.028 A 
ATOM      2  C   LIG    1       26.194 -25.037   6.754  0.00  0.00    +0.006 A 
ATOM      3  C   LIG    1       25.555 -23.828   6.893  0.00  0.00    +0.009 A 
ATOM      4  C   LIG    1       24.315 -23.755   6.401  0.00  0.00    -0.017 A 
ATOM      5  C   LIG    1       23.700 -25.033   6.204  0.00  0.00    +0.009 A 
ATOM      6  C   LIG    1       24.360 -26.293   6.481  0.00  0.00    +0.006 A 
ENDROOT
BRANCH   4   7
ATOM      7  C   LIG    1       23.733 -22.429   6.147  0.00  0.00    -0.007 A 
ATOM      8  C   LIG    1       24.191 -21.104   6.561  0.00  0.00    +0.030 A 
ATOM      9  C   LIG    1       23.435 -19.979   6.130  0.00  0.00    +0.012 A 
ATOM     10  C   LIG    1       22.262 -20.107   5.348  0.00  0.00    +0.001 A 
ATOM     11  C   LIG    1       21.820 -21.358   5.024  0.00  0.00    +0.001 A 
ATOM     12  C   LIG    1       22.508 -22.476   5.426  0.00  0.00    +0.009 A 
BRANCH   8  13
ATOM     13  C   LIG    1       25.398 -20.717   7.361  0.00  0.00    +0.205 A 
ATOM     14  N   LIG    1       26.585 -20.379   6.796  0.00  0.00    -0.133 NA
ATOM     15  N   LIG    1       27.357 -20.205   7.880  0.00  0.00    -0.176 N 
ATOM     16  H   LIG    1       28.357 -20.044   7.823  0.00  0.00    +0.214 HD
ATOM     17  N   LIG    1       26.729 -20.307   9.050  0.00  0.00    -0.049 NA
ATOM     18  N   LIG    1       25.496 -20.675   8.733  0.00  0.00    -0.108 NA
ENDBRANCH   8  13
ENDBRANCH   4   7
BRANCH   1  19
ATOM     19  C   LIG    1       26.440 -27.602   7.405  0.00  0.00    +0.158 C 
BRANCH  19  21
ATOM     20  C   LIG    1       24.947 -29.766   7.801  0.00  0.00    +0.112 A 
ATOM     21  N   LIG    1       25.804 -28.721   8.232  0.00  0.00    -0.324 N 
ATOM     22  C   LIG    1       25.922 -28.988   9.589  0.00  0.00    +0.083 A 
ATOM     23  C   LIG    1       25.290 -30.158   9.878  0.00  0.00    +0.153 A 
ATOM     24 CL   LIG    1       25.220 -30.858  11.434  0.00  0.00    -0.060 Cl
ATOM     25  N   LIG    1       24.726 -30.654   8.782  0.00  0.00    -0.221 NA
BRANCH  20  26
ATOM     26  C   LIG    1       24.186 -29.920   6.526  0.00  0.00    +0.074 C 
BRANCH  26  27
ATOM     27  C   LIG    1       25.059 -30.316   5.330  0.00  0.00    +0.007 C 
BRANCH  27  29
ATOM     28  C   LIG    1       26.565 -32.330   5.722  0.00  0.00    +0.004 C 
ATOM     29  C   LIG    1       25.206 -31.842   5.237  0.00  0.00    -0.003 C 
ENDBRANCH  27  29
ENDBRANCH  26  27
ENDBRANCH  20  26
BRANCH  22  30
ATOM     30  C   LIG    1       26.562 -28.206  10.557  0.00  0.00    +0.212 C 
BRANCH  30  31
ATOM     31  O   LIG    1       27.824 -28.841  10.746  0.00  0.00    -0.389 OA
ATOM     32  H   LIG    1       27.993 -29.448  10.014  0.00  0.00    +0.210 HD
ENDBRANCH  30  31
ENDBRANCH  22  30
ENDBRANCH  19  21
ENDBRANCH   1  19
TORSDOF 9
ENDMDL
