MODEL 1
REMARK VINA RESULT:      -4.2      0.000      0.000
REMARK  Name = *****
REMARK                            x       y       z     vdW  Elec       q    Type
REMARK                         _______ _______ _______ _____ _____    ______ ____
ROOT
ATOM      1  N   LIG    1       25.921 -18.539   4.266  0.00  0.00    -0.282 N 
ATOM      2  C   LIG    1       24.637 -19.142   4.386  0.00  0.00    +0.139 A 
ATOM      3  C   LIG    1       24.432 -20.266   5.191  0.00  0.00    +0.053 A 
ATOM      4  C   LIG    1       23.124 -20.736   5.387  0.00  0.00    +0.020 A 
ATOM      5  C   LIG    1       22.056 -20.101   4.771  0.00  0.00    +0.021 A 
ATOM      6  C   LIG    1       22.337 -19.042   3.946  0.00  0.00    +0.113 A 
ATOM      7  S   LIG    1       25.732 -21.187   5.964  0.00  0.00    -0.084 S 
ATOM      8  C   LIG    1       27.136 -20.120   5.723  0.00  0.00    +0.034 A 
ATOM      9  C   LIG    1       28.318 -20.529   6.370  0.00  0.00    +0.017 A 
ATOM     10  C   LIG    1       29.475 -19.767   6.294  0.00  0.00    +0.001 A 
ATOM     11  C   LIG    1       29.458 -18.587   5.568  0.00  0.00    +0.002 A 
ATOM     12  C   LIG    1       28.290 -18.187   4.903  0.00  0.00    +0.024 A 
ATOM     13  N   LIG    1       23.586 -18.569   3.737  0.00  0.00    -0.239 NA
ATOM     14  C   LIG    1       27.097 -18.941   4.946  0.00  0.00    +0.049 A 
ENDROOT
BRANCH   1  15
ATOM     15  C   LIG    1       25.996 -17.501   3.213  0.00  0.00    +0.131 C 
BRANCH  15  17
ATOM     16  C   LIG    1       24.524 -15.434   3.740  0.00  0.00    +0.026 C 
ATOM     17  C   LIG    1       25.945 -16.024   3.732  0.00  0.00    +0.071 C 
BRANCH  17  18
ATOM     18  N   LIG    1       26.884 -15.084   3.040  0.00  0.00    -0.304 NA
ATOM     19  C   LIG    1       27.877 -14.479   3.931  0.00  0.00    +0.105 C 
ATOM     20  C   LIG    1       26.189 -14.044   2.282  0.00  0.00    +0.105 C 
ENDBRANCH  17  18
ENDBRANCH  15  17
ENDBRANCH   1  15
TORSDOF 3
ENDMDL
MODEL 2
REMARK VINA RESULT:      -3.6      0.908      4.245
REMARK  Name = *****
REMARK                            x       y       z     vdW  Elec       q    Type
REMARK                         _______ _______ _______ _____ _____    ______ ____
ROOT
ATOM      1  N   LIG    1       25.983 -19.082   4.370  0.00  0.00    -0.282 N 
ATOM      2  C   LIG    1       27.130 -19.267   5.192  0.00  0.00    +0.139 A 
ATOM      3  C   LIG    1       27.089 -20.077   6.330  0.00  0.00    +0.053 A 
ATOM      4  C   LIG    1       28.280 -20.340   7.024  0.00  0.00    +0.020 A 
ATOM      5  C   LIG    1       29.475 -19.784   6.593  0.00  0.00    +0.021 A 
ATOM      6  C   LIG    1       29.431 -18.949   5.506  0.00  0.00    +0.113 A 
ATOM      7  S   LIG    1       25.606 -20.776   7.000  0.00  0.00    -0.084 S 
ATOM      8  C   LIG    1       24.430 -20.466   5.701  0.00  0.00    +0.034 A 
ATOM      9  C   LIG    1       23.161 -21.048   5.890  0.00  0.00    +0.017 A 
ATOM     10  C   LIG    1       22.165 -20.914   4.934  0.00  0.00    +0.001 A 
ATOM     11  C   LIG    1       22.430 -20.194   3.779  0.00  0.00    +0.002 A 
ATOM     12  C   LIG    1       23.684 -19.594   3.598  0.00  0.00    +0.024 A 
ATOM     13  N   LIG    1       28.299 -18.676   4.819  0.00  0.00    -0.239 NA
ATOM     14  C   LIG    1       24.719 -19.697   4.553  0.00  0.00    +0.049 A 
ENDROOT
BRANCH   1  15
ATOM     15  C   LIG    1       26.150 -18.030   3.341  0.00  0.00    +0.131 C 
BRANCH  15  17
ATOM     16  C   LIG    1       24.419 -16.139   3.720  0.00  0.00    +0.026 C 
ATOM     17  C   LIG    1       25.892 -16.568   3.839  0.00  0.00    +0.071 C 
BRANCH  17  18
ATOM     18  N   LIG    1       26.778 -15.530   3.219  0.00  0.00    -0.304 NA
ATOM     19  C   LIG    1       27.788 -14.993   4.134  0.00  0.00    +0.105 C 
ATOM     20  C   LIG    1       26.026 -14.437   2.602  0.00  0.00    +0.105 C 
ENDBRANCH  17  18
ENDBRANCH  15  17
ENDBRANCH   1  15
TORSDOF 3
ENDMDL
MODEL 3
REMARK VINA RESULT:      -2.4      1.775      4.696
REMARK  Name = *****
REMARK                            x       y       z     vdW  Elec       q    Type
REMARK                         _______ _______ _______ _____ _____    ______ ____
ROOT
ATOM      1  N   LIG    1       25.443 -18.261   3.856  0.00  0.00    -0.282 N 
ATOM      2  C   LIG    1       24.300 -19.049   4.169  0.00  0.00    +0.139 A 
ATOM      3  C   LIG    1       23.047 -18.466   4.375  0.00  0.00    +0.053 A 
ATOM      4  C   LIG    1       21.926 -19.295   4.540  0.00  0.00    +0.020 A 
ATOM      5  C   LIG    1       22.072 -20.674   4.518  0.00  0.00    +0.021 A 
ATOM      6  C   LIG    1       23.339 -21.177   4.373  0.00  0.00    +0.113 A 
ATOM      7  S   LIG    1       22.768 -16.720   4.489  0.00  0.00    -0.084 S 
ATOM      8  C   LIG    1       24.327 -16.060   3.939  0.00  0.00    +0.034 A 
ATOM      9  C   LIG    1       24.364 -14.660   3.784  0.00  0.00    +0.017 A 
ATOM     10  C   LIG    1       25.507 -14.022   3.326  0.00  0.00    +0.001 A 
ATOM     11  C   LIG    1       26.626 -14.781   3.021  0.00  0.00    +0.002 A 
ATOM     12  C   LIG    1       26.602 -16.172   3.196  0.00  0.00    +0.024 A 
ATOM     13  N   LIG    1       24.436 -20.403   4.214  0.00  0.00    -0.239 NA
ATOM     14  C   LIG    1       25.462 -16.856   3.671  0.00  0.00    +0.049 A 
ENDROOT
BRANCH   1  15
ATOM     15  C   LIG    1       26.715 -19.018   3.884  0.00  0.00    +0.131 C 
BRANCH  15  17
ATOM     16  C   LIG    1       28.881 -18.440   5.184  0.00  0.00    +0.026 C 
ATOM     17  C   LIG    1       27.457 -19.017   5.264  0.00  0.00    +0.071 C 
BRANCH  17  18
ATOM     18  N   LIG    1       27.481 -20.342   5.963  0.00  0.00    -0.304 NA
ATOM     19  C   LIG    1       26.450 -20.484   6.994  0.00  0.00    +0.105 C 
ATOM     20  C   LIG    1       28.795 -20.667   6.518  0.00  0.00    +0.105 C 
ENDBRANCH  17  18
ENDBRANCH  15  17
ENDBRANCH   1  15
TORSDOF 3
ENDMDL
