MODEL 1
REMARK VINA RESULT:      -7.6      0.000      0.000
REMARK  Name = *****
REMARK                            x       y       z     vdW  Elec       q    Type
REMARK                         _______ _______ _______ _____ _____    ______ ____
ROOT
ATOM      1  C   UNK A  0       27.790 -20.757   7.868  0.00  0.00    +0.071 A 
ATOM      2  N   UNK A  1       28.808 -21.374   8.531  0.00  0.00    -0.248 NA
ATOM      3  C   UNK A  1       30.089 -21.025   8.193  0.00  0.00    +0.108 A 
ATOM      4  C   UNK A  1       30.375 -20.079   7.210  0.00  0.00    +0.140 A 
ATOM      5  C   UNK A  1       29.327 -19.457   6.549  0.00  0.00    +0.049 A 
ATOM      6  C   UNK A  1       28.018 -19.800   6.879  0.00  0.00    +0.029 A 
ENDROOT
BRANCH   4   7
ATOM      7  O   UNK A  1       31.670 -19.778   6.902  0.00  0.00    -0.505 OA
ATOM      8  H   UNK A  1       31.803 -18.820   6.989  0.00  0.00    +0.292 HD
ENDBRANCH   4   7
BRANCH   1   9
ATOM      9  C   UNK A  0       26.366 -21.182   8.192  0.00  0.00    +0.176 C 
BRANCH   9  10
ATOM     10  O   UNK A  0       26.019 -20.663   9.481  0.00  0.00    -0.384 OA
ATOM     11  H   UNK A  0       26.630 -21.096  10.105  0.00  0.00    +0.210 HD
ENDBRANCH   9  10
BRANCH   9  12
ATOM     12  C   UNK A  0       25.361 -20.686   7.118  0.00  0.00    +0.119 C 
BRANCH  12  13
ATOM     13  N   UNK A  0       24.006 -21.223   7.342  0.00  0.00    -0.308 NA
ATOM     14  H   UNK A  0       23.990 -21.775   8.199  0.00  0.00    +0.122 HD
BRANCH  13  16
ATOM     15  C   UNK A  0       24.562 -22.449   5.335  0.00  0.00    +0.027 C 
ATOM     16  C   UNK A  0       23.400 -21.981   6.235  0.00  0.00    +0.011 C 
ATOM     17  C   UNK A  0       22.656 -23.225   6.744  0.00  0.00    +0.027 C 
ATOM     18  C   UNK A  0       22.457 -21.109   5.390  0.00  0.00    +0.027 C 
ENDBRANCH  13  16
ENDBRANCH  12  13
ENDBRANCH   9  12
ENDBRANCH   1   9
BRANCH   3  19
ATOM     19  C   UNK A  1       31.216 -21.726   8.922  0.00  0.00    +0.215 C 
BRANCH  19  20
ATOM     20  O   UNK A  1       32.210 -20.802   9.365  0.00  0.00    -0.389 OA
ATOM     21  H   UNK A  1       32.980 -21.361   9.595  0.00  0.00    +0.210 HD
ENDBRANCH  19  20
ENDBRANCH   3  19
TORSDOF 8
ENDMDL
MODEL 2
REMARK VINA RESULT:      -7.5      1.710      2.001
REMARK  Name = *****
REMARK                            x       y       z     vdW  Elec       q    Type
REMARK                         _______ _______ _______ _____ _____    ______ ____
ROOT
ATOM      1  C   UNK A  0       28.689 -20.058   7.200  0.00  0.00    +0.071 A 
ATOM      2  N   UNK A  1       29.196 -21.114   7.896  0.00  0.00    -0.248 NA
ATOM      3  C   UNK A  1       30.392 -20.935   8.539  0.00  0.00    +0.108 A 
ATOM      4  C   UNK A  1       31.090 -19.730   8.502  0.00  0.00    +0.140 A 
ATOM      5  C   UNK A  1       30.557 -18.663   7.794  0.00  0.00    +0.049 A 
ATOM      6  C   UNK A  1       29.343 -18.828   7.132  0.00  0.00    +0.029 A 
ENDROOT
BRANCH   4   7
ATOM      7  O   UNK A  1       32.286 -19.608   9.149  0.00  0.00    -0.505 OA
ATOM      8  H   UNK A  1       32.198 -19.965  10.049  0.00  0.00    +0.292 HD
ENDBRANCH   4   7
BRANCH   1   9
ATOM      9  C   UNK A  0       27.393 -20.265   6.431  0.00  0.00    +0.176 C 
BRANCH   9  10
ATOM     10  O   UNK A  0       27.694 -20.290   5.031  0.00  0.00    -0.384 OA
ATOM     11  H   UNK A  0       28.230 -21.093   4.897  0.00  0.00    +0.210 HD
ENDBRANCH   9  10
BRANCH   9  12
ATOM     12  C   UNK A  0       26.677 -21.576   6.856  0.00  0.00    +0.119 C 
BRANCH  12  13
ATOM     13  N   UNK A  0       25.647 -21.981   5.882  0.00  0.00    -0.308 NA
ATOM     14  H   UNK A  0       25.799 -21.499   4.997  0.00  0.00    +0.122 HD
BRANCH  13  16
ATOM     15  C   UNK A  0       23.484 -21.229   5.110  0.00  0.00    +0.027 C 
ATOM     16  C   UNK A  0       24.243 -21.843   6.304  0.00  0.00    +0.011 C 
ATOM     17  C   UNK A  0       23.613 -23.207   6.624  0.00  0.00    +0.027 C 
ATOM     18  C   UNK A  0       24.095 -20.897   7.508  0.00  0.00    +0.027 C 
ENDBRANCH  13  16
ENDBRANCH  12  13
ENDBRANCH   9  12
ENDBRANCH   1   9
BRANCH   3  19
ATOM     19  C   UNK A  1       30.958 -22.117   9.296  0.00  0.00    +0.215 C 
BRANCH  19  20
ATOM     20  O   UNK A  1       32.171 -22.586   8.708  0.00  0.00    -0.389 OA
ATOM     21  H   UNK A  1       32.153 -23.556   8.845  0.00  0.00    +0.210 HD
ENDBRANCH  19  20
ENDBRANCH   3  19
TORSDOF 8
ENDMDL
MODEL 3
REMARK VINA RESULT:      -7.5      2.676      6.310
REMARK  Name = *****
REMARK                            x       y       z     vdW  Elec       q    Type
REMARK                         _______ _______ _______ _____ _____    ______ ____
ROOT
ATOM      1  C   UNK A  0       25.198 -21.736   7.484  0.00  0.00    +0.071 A 
ATOM      2  N   UNK A  1       25.921 -22.853   7.188  0.00  0.00    -0.248 NA
ATOM      3  C   UNK A  1       25.233 -23.959   6.763  0.00  0.00    +0.108 A 
ATOM      4  C   UNK A  1       23.846 -23.974   6.628  0.00  0.00    +0.140 A 
ATOM      5  C   UNK A  1       23.127 -22.827   6.927  0.00  0.00    +0.049 A 
ATOM      6  C   UNK A  1       23.810 -21.693   7.362  0.00  0.00    +0.029 A 
ENDROOT
BRANCH   4   7
ATOM      7  O   UNK A  1       23.208 -25.108   6.213  0.00  0.00    -0.505 OA
ATOM      8  H   UNK A  1       23.221 -25.761   6.932  0.00  0.00    +0.292 HD
ENDBRANCH   4   7
BRANCH   1   9
ATOM      9  C   UNK A  0       25.946 -20.523   8.016  0.00  0.00    +0.176 C 
BRANCH   9  10
ATOM     10  O   UNK A  0       25.933 -20.573   9.447  0.00  0.00    -0.384 OA
ATOM     11  H   UNK A  0       25.672 -19.678   9.734  0.00  0.00    +0.210 HD
ENDBRANCH   9  10
BRANCH   9  12
ATOM     12  C   UNK A  0       27.405 -20.471   7.487  0.00  0.00    +0.119 C 
BRANCH  12  13
ATOM     13  N   UNK A  0       28.311 -19.803   8.439  0.00  0.00    -0.308 NA
ATOM     14  H   UNK A  0       27.843 -19.000   8.858  0.00  0.00    +0.122 HD
BRANCH  13  16
ATOM     15  C   UNK A  0       30.087 -18.196   8.768  0.00  0.00    +0.027 C 
ATOM     16  C   UNK A  0       29.637 -19.411   7.931  0.00  0.00    +0.011 C 
ATOM     17  C   UNK A  0       30.668 -20.534   8.122  0.00  0.00    +0.027 C 
ATOM     18  C   UNK A  0       29.584 -18.987   6.455  0.00  0.00    +0.027 C 
ENDBRANCH  13  16
ENDBRANCH  12  13
ENDBRANCH   9  12
ENDBRANCH   1   9
BRANCH   3  19
ATOM     19  C   UNK A  1       26.039 -25.202   6.452  0.00  0.00    +0.215 C 
BRANCH  19  20
ATOM     20  O   UNK A  1       25.835 -25.639   5.109  0.00  0.00    -0.389 OA
ATOM     21  H   UNK A  1       25.158 -25.028   4.751  0.00  0.00    +0.210 HD
ENDBRANCH  19  20
ENDBRANCH   3  19
TORSDOF 8
ENDMDL
MODEL 4
REMARK VINA RESULT:      -7.4      1.561      1.999
REMARK  Name = *****
REMARK                            x       y       z     vdW  Elec       q    Type
REMARK                         _______ _______ _______ _____ _____    ______ ____
ROOT
ATOM      1  C   UNK A  0       27.708 -20.544   7.636  0.00  0.00    +0.071 A 
ATOM      2  N   UNK A  1       28.764 -19.921   8.231  0.00  0.00    -0.248 NA
ATOM      3  C   UNK A  1       29.533 -19.097   7.453  0.00  0.00    +0.108 A 
ATOM      4  C   UNK A  1       29.274 -18.883   6.101  0.00  0.00    +0.140 A 
ATOM      5  C   UNK A  1       28.192 -19.521   5.513  0.00  0.00    +0.049 A 
ATOM      6  C   UNK A  1       27.399 -20.364   6.288  0.00  0.00    +0.029 A 
ENDROOT
BRANCH   4   7
ATOM      7  O   UNK A  1       30.081 -18.062   5.368  0.00  0.00    -0.505 OA
ATOM      8  H   UNK A  1       29.545 -17.600   4.702  0.00  0.00    +0.292 HD
ENDBRANCH   4   7
BRANCH   1   9
ATOM      9  C   UNK A  0       26.884 -21.510   8.475  0.00  0.00    +0.176 C 
BRANCH   9  10
ATOM     10  O   UNK A  0       25.948 -20.753   9.250  0.00  0.00    -0.384 OA
ATOM     11  H   UNK A  0       25.240 -20.503   8.628  0.00  0.00    +0.210 HD
ENDBRANCH   9  10
BRANCH   9  12
ATOM     12  C   UNK A  0       26.143 -22.549   7.591  0.00  0.00    +0.119 C 
BRANCH  12  13
ATOM     13  N   UNK A  0       24.689 -22.544   7.838  0.00  0.00    -0.308 NA
ATOM     14  H   UNK A  0       24.421 -23.389   8.341  0.00  0.00    +0.122 HD
BRANCH  13  16
ATOM     15  C   UNK A  0       23.287 -20.903   6.750  0.00  0.00    +0.027 C 
ATOM     16  C   UNK A  0       23.817 -22.349   6.668  0.00  0.00    +0.011 C 
ATOM     17  C   UNK A  0       24.596 -22.502   5.352  0.00  0.00    +0.027 C 
ATOM     18  C   UNK A  0       22.613 -23.306   6.683  0.00  0.00    +0.027 C 
ENDBRANCH  13  16
ENDBRANCH  12  13
ENDBRANCH   9  12
ENDBRANCH   1   9
BRANCH   3  19
ATOM     19  C   UNK A  1       30.714 -18.420   8.115  0.00  0.00    +0.215 C 
BRANCH  19  20
ATOM     20  O   UNK A  1       31.947 -18.794   7.501  0.00  0.00    -0.389 OA
ATOM     21  H   UNK A  1       31.696 -19.465   6.833  0.00  0.00    +0.210 HD
ENDBRANCH  19  20
ENDBRANCH   3  19
TORSDOF 8
ENDMDL
MODEL 5
REMARK VINA RESULT:      -7.2      1.939      2.650
REMARK  Name = *****
REMARK                            x       y       z     vdW  Elec       q    Type
REMARK                         _______ _______ _______ _____ _____    ______ ____
ROOT
ATOM      1  C   UNK A  0       28.823 -20.171   7.128  0.00  0.00    +0.071 A 
ATOM      2  N   UNK A  1       29.703 -19.158   7.371  0.00  0.00    -0.248 NA
ATOM      3  C   UNK A  1       30.809 -19.448   8.126  0.00  0.00    +0.108 A 
ATOM      4  C   UNK A  1       31.055 -20.718   8.642  0.00  0.00    +0.140 A 
ATOM      5  C   UNK A  1       30.152 -21.738   8.381  0.00  0.00    +0.049 A 
ATOM      6  C   UNK A  1       29.021 -21.462   7.616  0.00  0.00    +0.029 A 
ENDROOT
BRANCH   4   7
ATOM      7  O   UNK A  1       32.166 -20.949   9.400  0.00  0.00    -0.505 OA
ATOM      8  H   UNK A  1       32.818 -21.435   8.869  0.00  0.00    +0.292 HD
ENDBRANCH   4   7
BRANCH   1   9
ATOM      9  C   UNK A  0       27.561 -19.846   6.344  0.00  0.00    +0.176 C 
BRANCH   9  10
ATOM     10  O   UNK A  0       27.793 -20.150   4.964  0.00  0.00    -0.384 OA
ATOM     11  H   UNK A  0       26.952 -19.950   4.512  0.00  0.00    +0.210 HD
ENDBRANCH   9  10
BRANCH   9  12
ATOM     12  C   UNK A  0       26.336 -20.637   6.876  0.00  0.00    +0.119 C 
BRANCH  12  13
ATOM     13  N   UNK A  0       25.848 -21.622   5.893  0.00  0.00    -0.308 NA
ATOM     14  H   UNK A  0       25.308 -21.150   5.169  0.00  0.00    +0.122 HD
BRANCH  13  16
ATOM     15  C   UNK A  0       25.918 -23.330   7.603  0.00  0.00    +0.027 C 
ATOM     16  C   UNK A  0       25.096 -22.772   6.422  0.00  0.00    +0.011 C 
ATOM     17  C   UNK A  0       23.718 -22.350   6.953  0.00  0.00    +0.027 C 
ATOM     18  C   UNK A  0       24.940 -23.887   5.375  0.00  0.00    +0.027 C 
ENDBRANCH  13  16
ENDBRANCH  12  13
ENDBRANCH   9  12
ENDBRANCH   1   9
BRANCH   3  19
ATOM     19  C   UNK A  1       31.774 -18.315   8.406  0.00  0.00    +0.215 C 
BRANCH  19  20
ATOM     20  O   UNK A  1       32.150 -18.273   9.783  0.00  0.00    -0.389 OA
ATOM     21  H   UNK A  1       33.061 -18.632   9.800  0.00  0.00    +0.210 HD
ENDBRANCH  19  20
ENDBRANCH   3  19
TORSDOF 8
ENDMDL
MODEL 6
REMARK VINA RESULT:      -7.2      1.924      2.386
REMARK  Name = *****
REMARK                            x       y       z     vdW  Elec       q    Type
REMARK                         _______ _______ _______ _____ _____    ______ ____
ROOT
ATOM      1  C   UNK A  0       27.430 -20.914   7.442  0.00  0.00    +0.071 A 
ATOM      2  N   UNK A  1       28.625 -20.607   8.023  0.00  0.00    -0.248 NA
ATOM      3  C   UNK A  1       29.452 -19.743   7.354  0.00  0.00    +0.108 A 
ATOM      4  C   UNK A  1       29.115 -19.182   6.125  0.00  0.00    +0.140 A 
ATOM      5  C   UNK A  1       27.893 -19.501   5.550  0.00  0.00    +0.049 A 
ATOM      6  C   UNK A  1       27.040 -20.378   6.215  0.00  0.00    +0.029 A 
ENDROOT
BRANCH   4   7
ATOM      7  O   UNK A  1       29.982 -18.337   5.494  0.00  0.00    -0.505 OA
ATOM      8  H   UNK A  1       30.651 -18.035   6.130  0.00  0.00    +0.292 HD
ENDBRANCH   4   7
BRANCH   1   9
ATOM      9  C   UNK A  0       26.532 -21.920   8.145  0.00  0.00    +0.176 C 
BRANCH   9  10
ATOM     10  O   UNK A  0       25.879 -21.261   9.237  0.00  0.00    -0.384 OA
ATOM     11  H   UNK A  0       25.184 -20.713   8.828  0.00  0.00    +0.210 HD
ENDBRANCH   9  10
BRANCH   9  12
ATOM     12  C   UNK A  0       25.486 -22.531   7.175  0.00  0.00    +0.119 C 
BRANCH  12  13
ATOM     13  N   UNK A  0       26.030 -23.683   6.434  0.00  0.00    -0.308 NA
ATOM     14  H   UNK A  0       26.443 -23.367   5.557  0.00  0.00    +0.122 HD
BRANCH  13  16
ATOM     15  C   UNK A  0       25.089 -25.032   4.663  0.00  0.00    +0.027 C 
ATOM     16  C   UNK A  0       25.113 -24.809   6.189  0.00  0.00    +0.011 C 
ATOM     17  C   UNK A  0       25.613 -26.100   6.855  0.00  0.00    +0.027 C 
ATOM     18  C   UNK A  0       23.682 -24.495   6.653  0.00  0.00    +0.027 C 
ENDBRANCH  13  16
ENDBRANCH  12  13
ENDBRANCH   9  12
ENDBRANCH   1   9
BRANCH   3  19
ATOM     19  C   UNK A  1       30.783 -19.419   7.997  0.00  0.00    +0.215 C 
BRANCH  19  20
ATOM     20  O   UNK A  1       31.877 -19.821   7.172  0.00  0.00    -0.389 OA
ATOM     21  H   UNK A  1       32.644 -19.323   7.520  0.00  0.00    +0.210 HD
ENDBRANCH  19  20
ENDBRANCH   3  19
TORSDOF 8
ENDMDL
MODEL 7
REMARK VINA RESULT:      -7.0      1.958      2.217
REMARK  Name = *****
REMARK                            x       y       z     vdW  Elec       q    Type
REMARK                         _______ _______ _______ _____ _____    ______ ____
ROOT
ATOM      1  C   UNK A  0       28.886 -20.060   7.629  0.00  0.00    +0.071 A 
ATOM      2  N   UNK A  1       28.984 -19.285   8.745  0.00  0.00    -0.248 NA
ATOM      3  C   UNK A  1       30.090 -18.484   8.866  0.00  0.00    +0.108 A 
ATOM      4  C   UNK A  1       31.095 -18.441   7.902  0.00  0.00    +0.140 A 
ATOM      5  C   UNK A  1       30.976 -19.233   6.769  0.00  0.00    +0.049 A 
ATOM      6  C   UNK A  1       29.860 -20.054   6.630  0.00  0.00    +0.029 A 
ENDROOT
BRANCH   4   7
ATOM      7  O   UNK A  1       32.182 -17.636   8.079  0.00  0.00    -0.505 OA
ATOM      8  H   UNK A  1       32.286 -17.444   9.025  0.00  0.00    +0.292 HD
ENDBRANCH   4   7
BRANCH   1   9
ATOM      9  C   UNK A  0       27.695 -20.998   7.514  0.00  0.00    +0.176 C 
BRANCH   9  10
ATOM     10  O   UNK A  0       27.168 -21.226   8.826  0.00  0.00    -0.384 OA
ATOM     11  H   UNK A  0       27.638 -22.013   9.159  0.00  0.00    +0.210 HD
ENDBRANCH   9  10
BRANCH   9  12
ATOM     12  C   UNK A  0       26.597 -20.420   6.581  0.00  0.00    +0.119 C 
BRANCH  12  13
ATOM     13  N   UNK A  0       25.899 -21.480   5.830  0.00  0.00    -0.308 NA
ATOM     14  H   UNK A  0       26.046 -21.349   4.829  0.00  0.00    +0.122 HD
BRANCH  13  16
ATOM     15  C   UNK A  0       23.706 -21.241   4.841  0.00  0.00    +0.027 C 
ATOM     16  C   UNK A  0       24.467 -21.663   6.115  0.00  0.00    +0.011 C 
ATOM     17  C   UNK A  0       24.133 -23.134   6.409  0.00  0.00    +0.027 C 
ATOM     18  C   UNK A  0       23.994 -20.773   7.276  0.00  0.00    +0.027 C 
ENDBRANCH  13  16
ENDBRANCH  12  13
ENDBRANCH   9  12
ENDBRANCH   1   9
BRANCH   3  19
ATOM     19  C   UNK A  1       30.201 -17.638  10.116  0.00  0.00    +0.215 C 
BRANCH  19  20
ATOM     20  O   UNK A  1       31.300 -18.046  10.931  0.00  0.00    -0.389 OA
ATOM     21  H   UNK A  1       32.004 -17.391  10.741  0.00  0.00    +0.210 HD
ENDBRANCH  19  20
ENDBRANCH   3  19
TORSDOF 8
ENDMDL
MODEL 8
REMARK VINA RESULT:      -6.9      3.567      5.638
REMARK  Name = *****
REMARK                            x       y       z     vdW  Elec       q    Type
REMARK                         _______ _______ _______ _____ _____    ______ ____
ROOT
ATOM      1  C   UNK A  0       25.299 -23.183   7.032  0.00  0.00    +0.071 A 
ATOM      2  N   UNK A  1       26.164 -24.193   6.732  0.00  0.00    -0.248 NA
ATOM      3  C   UNK A  1       25.628 -25.386   6.325  0.00  0.00    +0.108 A 
ATOM      4  C   UNK A  1       24.255 -25.593   6.211  0.00  0.00    +0.140 A 
ATOM      5  C   UNK A  1       23.390 -24.553   6.515  0.00  0.00    +0.049 A 
ATOM      6  C   UNK A  1       23.916 -23.333   6.932  0.00  0.00    +0.029 A 
ENDROOT
BRANCH   4   7
ATOM      7  O   UNK A  1       23.774 -26.807   5.812  0.00  0.00    -0.505 OA
ATOM      8  H   UNK A  1       22.835 -26.716   5.581  0.00  0.00    +0.292 HD
ENDBRANCH   4   7
BRANCH   1   9
ATOM      9  C   UNK A  0       25.880 -21.875   7.546  0.00  0.00    +0.176 C 
BRANCH   9  10
ATOM     10  O   UNK A  0       27.251 -21.795   7.137  0.00  0.00    -0.384 OA
ATOM     11  H   UNK A  0       27.706 -21.316   7.855  0.00  0.00    +0.210 HD
ENDBRANCH   9  10
BRANCH   9  12
ATOM     12  C   UNK A  0       25.085 -20.649   7.021  0.00  0.00    +0.119 C 
BRANCH  12  13
ATOM     13  N   UNK A  0       25.375 -20.371   5.603  0.00  0.00    -0.308 NA
ATOM     14  H   UNK A  0       25.966 -19.545   5.526  0.00  0.00    +0.122 HD
BRANCH  13  16
ATOM     15  C   UNK A  0       24.504 -19.058   3.770  0.00  0.00    +0.027 C 
ATOM     16  C   UNK A  0       24.218 -20.256   4.698  0.00  0.00    +0.011 C 
ATOM     17  C   UNK A  0       24.056 -21.511   3.827  0.00  0.00    +0.027 C 
ATOM     18  C   UNK A  0       22.916 -19.972   5.465  0.00  0.00    +0.027 C 
ENDBRANCH  13  16
ENDBRANCH  12  13
ENDBRANCH   9  12
ENDBRANCH   1   9
BRANCH   3  19
ATOM     19  C   UNK A  1       26.593 -26.509   6.009  0.00  0.00    +0.215 C 
BRANCH  19  20
ATOM     20  O   UNK A  1       26.516 -26.899   4.637  0.00  0.00    -0.389 OA
ATOM     21  H   UNK A  1       27.429 -26.788   4.299  0.00  0.00    +0.210 HD
ENDBRANCH  19  20
ENDBRANCH   3  19
TORSDOF 8
ENDMDL
MODEL 9
REMARK VINA RESULT:      -6.8      3.616      5.522
REMARK  Name = *****
REMARK                            x       y       z     vdW  Elec       q    Type
REMARK                         _______ _______ _______ _____ _____    ______ ____
ROOT
ATOM      1  C   UNK A  0       25.084 -20.920   6.829  0.00  0.00    +0.071 A 
ATOM      2  N   UNK A  1       25.539 -20.523   5.606  0.00  0.00    -0.248 NA
ATOM      3  C   UNK A  1       24.626 -19.994   4.732  0.00  0.00    +0.108 A 
ATOM      4  C   UNK A  1       23.277 -19.853   5.049  0.00  0.00    +0.140 A 
ATOM      5  C   UNK A  1       22.833 -20.256   6.300  0.00  0.00    +0.049 A 
ATOM      6  C   UNK A  1       23.746 -20.798   7.201  0.00  0.00    +0.029 A 
ENDROOT
BRANCH   4   7
ATOM      7  O   UNK A  1       22.407 -19.331   4.136  0.00  0.00    -0.505 OA
ATOM      8  H   UNK A  1       22.794 -19.407   3.248  0.00  0.00    +0.292 HD
ENDBRANCH   4   7
BRANCH   1   9
ATOM      9  C   UNK A  0       26.076 -21.567   7.783  0.00  0.00    +0.176 C 
BRANCH   9  10
ATOM     10  O   UNK A  0       25.532 -21.516   9.107  0.00  0.00    -0.384 OA
ATOM     11  H   UNK A  0       25.644 -22.416   9.466  0.00  0.00    +0.210 HD
ENDBRANCH   9  10
BRANCH   9  12
ATOM     12  C   UNK A  0       26.388 -23.033   7.380  0.00  0.00    +0.119 C 
BRANCH  12  13
ATOM     13  N   UNK A  0       25.746 -23.401   6.104  0.00  0.00    -0.308 NA
ATOM     14  H   UNK A  0       25.088 -22.674   5.826  0.00  0.00    +0.122 HD
BRANCH  13  16
ATOM     15  C   UNK A  0       23.660 -24.534   6.556  0.00  0.00    +0.027 C 
ATOM     16  C   UNK A  0       25.102 -24.723   6.042  0.00  0.00    +0.011 C 
ATOM     17  C   UNK A  0       25.033 -25.250   4.601  0.00  0.00    +0.027 C 
ATOM     18  C   UNK A  0       25.805 -25.748   6.947  0.00  0.00    +0.027 C 
ENDBRANCH  13  16
ENDBRANCH  12  13
ENDBRANCH   9  12
ENDBRANCH   1   9
BRANCH   3  19
ATOM     19  C   UNK A  1       25.134 -19.570   3.371  0.00  0.00    +0.215 C 
BRANCH  19  20
ATOM     20  O   UNK A  1       25.962 -18.411   3.455  0.00  0.00    -0.389 OA
ATOM     21  H   UNK A  1       25.487 -17.813   4.069  0.00  0.00    +0.210 HD
ENDBRANCH  19  20
ENDBRANCH   3  19
TORSDOF 8
ENDMDL
