MODEL 1
REMARK VINA RESULT:     -10.2      0.000      0.000
REMARK  Name = *****
REMARK                            x       y       z     vdW  Elec       q    Type
REMARK                         _______ _______ _______ _____ _____    ______ ____
ROOT
ATOM      1  C   LIG    1       24.580 -21.470   7.290  0.00  0.00    +0.213 C 
ENDROOT
BRANCH   1   2
ATOM      2  C   LIG    1       24.720 -22.981   7.006  0.00  0.00    -0.001 A 
ATOM      3  C   LIG    1       23.589 -23.742   6.638  0.00  0.00    +0.007 A 
ATOM      4  C   LIG    1       23.701 -25.100   6.328  0.00  0.00    +0.000 A 
ATOM      5  C   LIG    1       24.946 -25.722   6.353  0.00  0.00    +0.000 A 
ATOM      6  C   LIG    1       26.077 -24.989   6.695  0.00  0.00    +0.000 A 
ATOM      7  C   LIG    1       25.968 -23.632   7.017  0.00  0.00    +0.007 A 
ENDBRANCH   1   2
BRANCH   1   8
ATOM      8  C   LIG    1       24.214 -20.665   6.024  0.00  0.00    -0.001 A 
ATOM      9  C   LIG    1       25.000 -20.729   4.859  0.00  0.00    +0.007 A 
ATOM     10  C   LIG    1       24.623 -20.055   3.694  0.00  0.00    +0.000 A 
ATOM     11  C   LIG    1       23.476 -19.267   3.680  0.00  0.00    +0.000 A 
ATOM     12  C   LIG    1       22.710 -19.143   4.835  0.00  0.00    +0.000 A 
ATOM     13  C   LIG    1       23.074 -19.835   5.994  0.00  0.00    +0.007 A 
ENDBRANCH   1   8
BRANCH   1  14
ATOM     14  C   LIG    1       25.793 -20.863   8.068  0.00  0.00    +0.349 C 
ATOM     15  O   LIG    1       25.938 -20.892   9.284  0.00  0.00    -0.247 OA
BRANCH  14  16
ATOM     16  O   LIG    1       26.635 -20.153   7.245  0.00  0.00    -0.454 OA
BRANCH  16  20
ATOM     17  C   LIG    1       30.936 -20.534   8.601  0.00  0.00    +0.192 C 
ATOM     18  N   LIG    1       29.678 -20.010   7.894  0.00  0.00    +0.242 N 
ATOM     19  C   LIG    1       28.794 -21.230   7.529  0.00  0.00    +0.178 C 
ATOM     20  C   LIG    1       27.648 -20.908   6.549  0.00  0.00    +0.221 C 
ATOM     21  C   LIG    1       28.161 -20.133   5.338  0.00  0.00    +0.055 C 
ATOM     22  C   LIG    1       28.927 -18.885   5.756  0.00  0.00    +0.055 C 
ATOM     23  C   LIG    1       30.110 -19.234   6.649  0.00  0.00    +0.133 C 
ATOM     24  C   LIG    1       28.967 -19.080   8.881  0.00  0.00    +0.192 C 
ENDBRANCH  16  20
ENDBRANCH  14  16
ENDBRANCH   1  14
BRANCH   1  25
ATOM     25  O   LIG    1       23.503 -21.305   8.251  0.00  0.00    -0.370 OA
ATOM     26  H   LIG    1       22.673 -21.360   7.741  0.00  0.00    +0.212 HD
ENDBRANCH   1  25
TORSDOF 6
ENDMDL
MODEL 2
REMARK VINA RESULT:      -8.5      1.061      4.178
REMARK  Name = *****
REMARK                            x       y       z     vdW  Elec       q    Type
REMARK                         _______ _______ _______ _____ _____    ______ ____
ROOT
ATOM      1  C   LIG    1       25.550 -21.173   6.335  0.00  0.00    +0.213 C 
ENDROOT
BRANCH   1   2
ATOM      2  C   LIG    1       24.530 -20.325   5.544  0.00  0.00    -0.001 A 
ATOM      3  C   LIG    1       24.874 -19.796   4.282  0.00  0.00    +0.007 A 
ATOM      4  C   LIG    1       23.950 -19.069   3.526  0.00  0.00    +0.000 A 
ATOM      5  C   LIG    1       22.657 -18.876   4.001  0.00  0.00    +0.000 A 
ATOM      6  C   LIG    1       22.288 -19.404   5.235  0.00  0.00    +0.000 A 
ATOM      7  C   LIG    1       23.213 -20.123   5.999  0.00  0.00    +0.007 A 
ENDBRANCH   1   2
BRANCH   1   8
ATOM      8  C   LIG    1       25.113 -22.647   6.469  0.00  0.00    -0.001 A 
ATOM      9  C   LIG    1       23.754 -23.011   6.509  0.00  0.00    +0.007 A 
ATOM     10  C   LIG    1       23.365 -24.353   6.557  0.00  0.00    +0.000 A 
ATOM     11  C   LIG    1       24.325 -25.359   6.608  0.00  0.00    +0.000 A 
ATOM     12  C   LIG    1       25.675 -25.025   6.624  0.00  0.00    +0.000 A 
ATOM     13  C   LIG    1       26.065 -23.684   6.553  0.00  0.00    +0.007 A 
ENDBRANCH   1   8
BRANCH   1  14
ATOM     14  C   LIG    1       25.969 -20.536   7.700  0.00  0.00    +0.349 C 
ATOM     15  O   LIG    1       25.264 -20.481   8.701  0.00  0.00    -0.247 OA
BRANCH  14  16
ATOM     16  O   LIG    1       27.188 -19.904   7.624  0.00  0.00    -0.454 OA
BRANCH  16  20
ATOM     17  C   LIG    1       31.269 -17.982   7.993  0.00  0.00    +0.192 C 
ATOM     18  N   LIG    1       30.164 -18.981   7.627  0.00  0.00    +0.242 N 
ATOM     19  C   LIG    1       29.120 -18.978   8.772  0.00  0.00    +0.178 C 
ATOM     20  C   LIG    1       28.109 -20.141   8.709  0.00  0.00    +0.221 C 
ATOM     21  C   LIG    1       28.821 -21.479   8.528  0.00  0.00    +0.055 C 
ATOM     22  C   LIG    1       29.751 -21.459   7.322  0.00  0.00    +0.055 C 
ATOM     23  C   LIG    1       30.799 -20.362   7.448  0.00  0.00    +0.133 C 
ATOM     24  C   LIG    1       29.550 -18.503   6.309  0.00  0.00    +0.192 C 
ENDBRANCH  16  20
ENDBRANCH  14  16
ENDBRANCH   1  14
BRANCH   1  25
ATOM     25  O   LIG    1       26.803 -21.143   5.600  0.00  0.00    -0.370 OA
ATOM     26  H   LIG    1       27.068 -20.206   5.552  0.00  0.00    +0.212 HD
ENDBRANCH   1  25
TORSDOF 6
ENDMDL
MODEL 3
REMARK VINA RESULT:      -8.3      0.946      1.910
REMARK  Name = *****
REMARK                            x       y       z     vdW  Elec       q    Type
REMARK                         _______ _______ _______ _____ _____    ______ ____
ROOT
ATOM      1  C   LIG    1       24.269 -21.898   7.218  0.00  0.00    +0.213 C 
ENDROOT
BRANCH   1   2
ATOM      2  C   LIG    1       24.550 -23.358   6.801  0.00  0.00    -0.001 A 
ATOM      3  C   LIG    1       25.865 -23.869   6.846  0.00  0.00    +0.007 A 
ATOM      4  C   LIG    1       26.134 -25.202   6.521  0.00  0.00    +0.000 A 
ATOM      5  C   LIG    1       25.096 -26.058   6.171  0.00  0.00    +0.000 A 
ATOM      6  C   LIG    1       23.789 -25.583   6.137  0.00  0.00    +0.000 A 
ATOM      7  C   LIG    1       23.516 -24.247   6.450  0.00  0.00    +0.007 A 
ENDBRANCH   1   2
BRANCH   1   8
ATOM      8  C   LIG    1       24.037 -20.973   6.004  0.00  0.00    -0.001 A 
ATOM      9  C   LIG    1       24.842 -21.053   4.853  0.00  0.00    +0.007 A 
ATOM     10  C   LIG    1       24.580 -20.263   3.729  0.00  0.00    +0.000 A 
ATOM     11  C   LIG    1       23.534 -19.345   3.747  0.00  0.00    +0.000 A 
ATOM     12  C   LIG    1       22.755 -19.208   4.892  0.00  0.00    +0.000 A 
ATOM     13  C   LIG    1       23.003 -20.014   6.008  0.00  0.00    +0.007 A 
ENDBRANCH   1   8
BRANCH   1  14
ATOM     14  C   LIG    1       25.314 -21.323   8.230  0.00  0.00    +0.349 C 
ATOM     15  O   LIG    1       25.251 -21.431   9.448  0.00  0.00    -0.247 OA
BRANCH  14  16
ATOM     16  O   LIG    1       26.263 -20.546   7.609  0.00  0.00    -0.454 OA
BRANCH  16  20
ATOM     17  C   LIG    1       29.828 -18.279   5.986  0.00  0.00    +0.192 C 
ATOM     18  N   LIG    1       28.882 -19.434   6.338  0.00  0.00    +0.242 N 
ATOM     19  C   LIG    1       28.221 -19.109   7.702  0.00  0.00    +0.178 C 
ATOM     20  C   LIG    1       27.480 -20.299   8.344  0.00  0.00    +0.221 C 
ATOM     21  C   LIG    1       28.358 -21.547   8.367  0.00  0.00    +0.055 C 
ATOM     22  C   LIG    1       28.890 -21.882   6.980  0.00  0.00    +0.055 C 
ATOM     23  C   LIG    1       29.696 -20.727   6.401  0.00  0.00    +0.133 C 
ATOM     24  C   LIG    1       27.841 -19.515   5.218  0.00  0.00    +0.192 C 
ENDBRANCH  16  20
ENDBRANCH  14  16
ENDBRANCH   1  14
BRANCH   1  25
ATOM     25  O   LIG    1       23.056 -21.899   8.018  0.00  0.00    -0.370 OA
ATOM     26  H   LIG    1       22.467 -22.566   7.618  0.00  0.00    +0.212 HD
ENDBRANCH   1  25
TORSDOF 6
ENDMDL
MODEL 4
REMARK VINA RESULT:      -7.5      1.212      2.423
REMARK  Name = *****
REMARK                            x       y       z     vdW  Elec       q    Type
REMARK                         _______ _______ _______ _____ _____    ______ ____
ROOT
ATOM      1  C   LIG    1       25.670 -20.974   6.303  0.00  0.00    +0.213 C 
ENDROOT
BRANCH   1   2
ATOM      2  C   LIG    1       25.578 -22.513   6.209  0.00  0.00    -0.001 A 
ATOM      3  C   LIG    1       25.948 -23.315   7.310  0.00  0.00    +0.007 A 
ATOM      4  C   LIG    1       25.825 -24.706   7.265  0.00  0.00    +0.000 A 
ATOM      5  C   LIG    1       25.307 -25.325   6.132  0.00  0.00    +0.000 A 
ATOM      6  C   LIG    1       24.919 -24.555   5.040  0.00  0.00    +0.000 A 
ATOM      7  C   LIG    1       25.050 -23.163   5.077  0.00  0.00    +0.007 A 
ENDBRANCH   1   2
BRANCH   1   8
ATOM      8  C   LIG    1       24.553 -20.268   5.504  0.00  0.00    -0.001 A 
ATOM      9  C   LIG    1       23.245 -20.157   6.009  0.00  0.00    +0.007 A 
ATOM     10  C   LIG    1       22.258 -19.452   5.313  0.00  0.00    +0.000 A 
ATOM     11  C   LIG    1       22.545 -18.880   4.077  0.00  0.00    +0.000 A 
ATOM     12  C   LIG    1       23.816 -19.021   3.530  0.00  0.00    +0.000 A 
ATOM     13  C   LIG    1       24.810 -19.706   4.236  0.00  0.00    +0.007 A 
ENDBRANCH   1   8
BRANCH   1  14
ATOM     14  C   LIG    1       27.094 -20.411   5.988  0.00  0.00    +0.349 C 
ATOM     15  O   LIG    1       27.349 -19.572   5.133  0.00  0.00    -0.247 OA
BRANCH  14  16
ATOM     16  O   LIG    1       28.078 -21.067   6.689  0.00  0.00    -0.454 OA
BRANCH  16  20
ATOM     17  C   LIG    1       30.758 -17.836   8.380  0.00  0.00    +0.192 C 
ATOM     18  N   LIG    1       30.268 -19.205   7.889  0.00  0.00    +0.242 N 
ATOM     19  C   LIG    1       28.763 -19.326   8.239  0.00  0.00    +0.178 C 
ATOM     20  C   LIG    1       28.194 -20.751   8.092  0.00  0.00    +0.221 C 
ATOM     21  C   LIG    1       29.076 -21.773   8.804  0.00  0.00    +0.055 C 
ATOM     22  C   LIG    1       30.524 -21.682   8.338  0.00  0.00    +0.055 C 
ATOM     23  C   LIG    1       31.096 -20.291   8.578  0.00  0.00    +0.133 C 
ATOM     24  C   LIG    1       30.494 -19.242   6.375  0.00  0.00    +0.192 C 
ENDBRANCH  16  20
ENDBRANCH  14  16
ENDBRANCH   1  14
BRANCH   1  25
ATOM     25  O   LIG    1       25.514 -20.613   7.702  0.00  0.00    -0.370 OA
ATOM     26  H   LIG    1       25.937 -19.740   7.806  0.00  0.00    +0.212 HD
ENDBRANCH   1  25
TORSDOF 6
ENDMDL
MODEL 5
REMARK VINA RESULT:      -7.4      2.086      5.637
REMARK  Name = *****
REMARK                            x       y       z     vdW  Elec       q    Type
REMARK                         _______ _______ _______ _____ _____    ______ ____
ROOT
ATOM      1  C   LIG    1       26.019 -21.047   7.447  0.00  0.00    +0.213 C 
ENDROOT
BRANCH   1   2
ATOM      2  C   LIG    1       25.031 -20.663   6.324  0.00  0.00    -0.001 A 
ATOM      3  C   LIG    1       23.668 -20.449   6.620  0.00  0.00    +0.007 A 
ATOM      4  C   LIG    1       22.766 -20.052   5.628  0.00  0.00    +0.000 A 
ATOM      5  C   LIG    1       23.210 -19.835   4.328  0.00  0.00    +0.000 A 
ATOM      6  C   LIG    1       24.553 -20.021   4.015  0.00  0.00    +0.000 A 
ATOM      7  C   LIG    1       25.456 -20.429   5.002  0.00  0.00    +0.007 A 
ENDBRANCH   1   2
BRANCH   1   8
ATOM      8  C   LIG    1       27.464 -20.601   7.138  0.00  0.00    -0.001 A 
ATOM      9  C   LIG    1       27.744 -19.655   6.134  0.00  0.00    +0.007 A 
ATOM     10  C   LIG    1       29.047 -19.202   5.909  0.00  0.00    +0.000 A 
ATOM     11  C   LIG    1       30.105 -19.715   6.654  0.00  0.00    +0.000 A 
ATOM     12  C   LIG    1       29.863 -20.691   7.616  0.00  0.00    +0.000 A 
ATOM     13  C   LIG    1       28.557 -21.128   7.857  0.00  0.00    +0.007 A 
ENDBRANCH   1   8
BRANCH   1  14
ATOM     14  C   LIG    1       25.924 -22.546   7.880  0.00  0.00    +0.349 C 
ATOM     15  O   LIG    1       26.061 -22.961   9.025  0.00  0.00    -0.247 OA
BRANCH  14  16
ATOM     16  O   LIG    1       25.805 -23.391   6.802  0.00  0.00    -0.454 OA
BRANCH  16  20
ATOM     17  C   LIG    1       24.813 -27.796   6.497  0.00  0.00    +0.192 C 
ATOM     18  N   LIG    1       25.219 -26.370   6.103  0.00  0.00    +0.242 N 
ATOM     19  C   LIG    1       24.430 -25.384   7.001  0.00  0.00    +0.178 C 
ATOM     20  C   LIG    1       24.489 -23.917   6.533  0.00  0.00    +0.221 C 
ATOM     21  C   LIG    1       24.155 -23.799   5.048  0.00  0.00    +0.055 C 
ATOM     22  C   LIG    1       25.037 -24.708   4.203  0.00  0.00    +0.055 C 
ATOM     23  C   LIG    1       24.894 -26.165   4.622  0.00  0.00    +0.133 C 
ATOM     24  C   LIG    1       26.727 -26.255   6.338  0.00  0.00    +0.192 C 
ENDBRANCH  16  20
ENDBRANCH  14  16
ENDBRANCH   1  14
BRANCH   1  25
ATOM     25  O   LIG    1       25.590 -20.364   8.656  0.00  0.00    -0.370 OA
ATOM     26  H   LIG    1       24.998 -20.984   9.123  0.00  0.00    +0.212 HD
ENDBRANCH   1  25
TORSDOF 6
ENDMDL
