MODEL 1
REMARK VINA RESULT:     -10.4      0.000      0.000
REMARK  Name = *****
REMARK                            x       y       z     vdW  Elec       q    Type
REMARK                         _______ _______ _______ _____ _____    ______ ____
ROOT
ATOM      1  O   LIG    1       25.450 -21.399   7.041  0.00  0.00    -0.422 OA
ENDROOT
BRANCH   1   7
ATOM      2  C   LIG    1       25.012 -27.674   5.856  0.00  0.00    +0.065 A 
ATOM      3  C   LIG    1       24.019 -26.717   6.098  0.00  0.00    +0.024 A 
ATOM      4  C   LIG    1       24.354 -25.380   6.348  0.00  0.00    -0.017 A 
ATOM      5  C   LIG    1       25.714 -24.990   6.350  0.00  0.00    -0.014 A 
ATOM      6  C   LIG    1       26.041 -23.650   6.588  0.00  0.00    +0.055 A 
ATOM      7  C   LIG    1       25.032 -22.720   6.833  0.00  0.00    +0.133 A 
ATOM      8  C   LIG    1       23.692 -23.095   6.815  0.00  0.00    +0.047 A 
ATOM      9  C   LIG    1       26.704 -25.954   6.116  0.00  0.00    +0.009 A 
ATOM     10  C   LIG    1       23.357 -24.426   6.587  0.00  0.00    +0.012 A 
ATOM     11  C   LIG    1       26.356 -27.286   5.875  0.00  0.00    +0.016 A 
BRANCH   2  14
ATOM     12  N   LIG    1       23.353 -29.375   5.437  0.00  0.00    -0.099 NA
ATOM     13  H   LIG    1       23.242 -30.379   5.289  0.00  0.00    +0.363 HD
ATOM     14  C   LIG    1       24.607 -29.089   5.581  0.00  0.00    +0.308 C 
BRANCH  14  15
ATOM     15  N   LIG    1       25.530 -30.088   5.471  0.00  0.00    -0.247 N 
ATOM     16  H   LIG    1       25.363 -30.943   5.983  0.00  0.00    +0.288 HD
ATOM     17  H   LIG    1       26.501 -29.803   5.519  0.00  0.00    +0.288 HD
ENDBRANCH  14  15
ENDBRANCH   2  14
ENDBRANCH   1   7
BRANCH   1  18
ATOM     18  C   LIG    1       25.952 -20.628   6.014  0.00  0.00    +0.344 C 
ATOM     19  O   LIG    1       25.455 -20.394   4.918  0.00  0.00    -0.244 OA
BRANCH  18  20
ATOM     20  C   LIG    1       27.277 -20.139   6.408  0.00  0.00    +0.060 A 
ATOM     21  C   LIG    1       28.006 -19.371   5.496  0.00  0.00    +0.018 A 
ATOM     22  C   LIG    1       29.256 -18.870   5.856  0.00  0.00    +0.046 A 
ATOM     23  C   LIG    1       29.820 -19.164   7.105  0.00  0.00    +0.142 A 
ATOM     24  C   LIG    1       29.066 -19.912   8.017  0.00  0.00    +0.046 A 
ATOM     25  C   LIG    1       27.800 -20.394   7.682  0.00  0.00    +0.018 A 
BRANCH  23  26
ATOM     26  N   LIG    1       31.050 -18.660   7.544  0.00  0.00    -0.073 NA
ATOM     27  C   LIG    1       31.173 -17.828   8.519  0.00  0.00    +0.382 C 
BRANCH  27  28
ATOM     28  N   LIG    1       32.412 -17.454   8.914  0.00  0.00    -0.289 N 
ATOM     29  H   LIG    1       33.132 -18.007   8.466  0.00  0.00    +0.255 HD
ATOM     30  H   LIG    1       32.547 -16.470   8.698  0.00  0.00    +0.255 HD
ENDBRANCH  27  28
BRANCH  27  31
ATOM     31  N   LIG    1       30.247 -17.208   9.289  0.00  0.00    -0.289 N 
ATOM     32  H   LIG    1       29.401 -16.984   8.779  0.00  0.00    +0.255 HD
ATOM     33  H   LIG    1       30.034 -17.711  10.142  0.00  0.00    +0.255 HD
ENDBRANCH  27  31
ENDBRANCH  23  26
ENDBRANCH  18  20
ENDBRANCH   1  18
TORSDOF 8
ENDMDL
MODEL 2
REMARK VINA RESULT:     -10.1      4.773      6.596
REMARK  Name = *****
REMARK                            x       y       z     vdW  Elec       q    Type
REMARK                         _______ _______ _______ _____ _____    ______ ____
ROOT
ATOM      1  O   LIG    1       30.469 -19.480   8.826  0.00  0.00    -0.422 OA
ENDROOT
BRANCH   1   7
ATOM      2  C   LIG    1       24.891 -20.771   5.966  0.00  0.00    +0.065 A 
ATOM      3  C   LIG    1       26.108 -20.323   5.438  0.00  0.00    +0.024 A 
ATOM      4  C   LIG    1       27.212 -20.094   6.269  0.00  0.00    -0.017 A 
ATOM      5  C   LIG    1       27.098 -20.324   7.660  0.00  0.00    -0.014 A 
ATOM      6  C   LIG    1       28.209 -20.105   8.484  0.00  0.00    +0.055 A 
ATOM      7  C   LIG    1       29.406 -19.652   7.931  0.00  0.00    +0.133 A 
ATOM      8  C   LIG    1       29.528 -19.442   6.561  0.00  0.00    +0.047 A 
ATOM      9  C   LIG    1       25.874 -20.763   8.185  0.00  0.00    +0.009 A 
ATOM     10  C   LIG    1       28.428 -19.649   5.736  0.00  0.00    +0.012 A 
ATOM     11  C   LIG    1       24.779 -20.980   7.345  0.00  0.00    +0.016 A 
BRANCH   2  14
ATOM     12  N   LIG    1       23.894 -21.813   4.032  0.00  0.00    -0.099 NA
ATOM     13  H   LIG    1       23.034 -21.845   3.483  0.00  0.00    +0.363 HD
ATOM     14  C   LIG    1       23.740 -21.014   5.039  0.00  0.00    +0.308 C 
BRANCH  14  15
ATOM     15  N   LIG    1       22.528 -20.419   5.233  0.00  0.00    -0.247 N 
ATOM     16  H   LIG    1       22.510 -19.536   5.725  0.00  0.00    +0.288 HD
ATOM     17  H   LIG    1       21.775 -21.029   5.526  0.00  0.00    +0.288 HD
ENDBRANCH  14  15
ENDBRANCH   2  14
ENDBRANCH   1   7
BRANCH   1  18
ATOM     18  C   LIG    1       31.474 -18.564   8.591  0.00  0.00    +0.344 C 
ATOM     19  O   LIG    1       32.151 -18.411   7.580  0.00  0.00    -0.244 OA
BRANCH  18  20
ATOM     20  C   LIG    1       31.680 -17.780   9.812  0.00  0.00    +0.060 A 
ATOM     21  C   LIG    1       32.712 -16.838   9.838  0.00  0.00    +0.018 A 
ATOM     22  C   LIG    1       32.911 -16.061  10.977  0.00  0.00    +0.046 A 
ATOM     23  C   LIG    1       32.122 -16.239  12.123  0.00  0.00    +0.142 A 
ATOM     24  C   LIG    1       31.076 -17.168  12.072  0.00  0.00    +0.046 A 
ATOM     25  C   LIG    1       30.845 -17.932  10.927  0.00  0.00    +0.018 A 
BRANCH  23  26
ATOM     26  N   LIG    1       32.243 -15.465  13.282  0.00  0.00    -0.073 NA
ATOM     27  C   LIG    1       32.529 -15.953  14.439  0.00  0.00    +0.382 C 
BRANCH  27  28
ATOM     28  N   LIG    1       32.694 -15.112  15.486  0.00  0.00    -0.289 N 
ATOM     29  H   LIG    1       32.995 -15.603  16.319  0.00  0.00    +0.255 HD
ATOM     30  H   LIG    1       33.376 -14.401  15.238  0.00  0.00    +0.255 HD
ENDBRANCH  27  28
BRANCH  27  31
ATOM     31  N   LIG    1       32.715 -17.229  14.851  0.00  0.00    -0.289 N 
ATOM     32  H   LIG    1       32.476 -17.364  15.826  0.00  0.00    +0.255 HD
ATOM     33  H   LIG    1       32.248 -17.911  14.265  0.00  0.00    +0.255 HD
ENDBRANCH  27  31
ENDBRANCH  23  26
ENDBRANCH  18  20
ENDBRANCH   1  18
TORSDOF 8
ENDMDL
MODEL 3
REMARK VINA RESULT:      -9.8      4.683      6.180
REMARK  Name = *****
REMARK                            x       y       z     vdW  Elec       q    Type
REMARK                         _______ _______ _______ _____ _____    ______ ____
ROOT
ATOM      1  O   LIG    1       30.132 -20.146   8.232  0.00  0.00    -0.422 OA
ENDROOT
BRANCH   1   7
ATOM      2  C   LIG    1       24.105 -20.683   6.144  0.00  0.00    +0.065 A 
ATOM      3  C   LIG    1       25.282 -20.341   5.466  0.00  0.00    +0.024 A 
ATOM      4  C   LIG    1       26.507 -20.276   6.140  0.00  0.00    -0.017 A 
ATOM      5  C   LIG    1       26.559 -20.563   7.524  0.00  0.00    -0.014 A 
ATOM      6  C   LIG    1       27.790 -20.507   8.190  0.00  0.00    +0.055 A 
ATOM      7  C   LIG    1       28.943 -20.157   7.490  0.00  0.00    +0.133 A 
ATOM      8  C   LIG    1       28.901 -19.891   6.125  0.00  0.00    +0.047 A 
ATOM      9  C   LIG    1       25.377 -20.895   8.200  0.00  0.00    +0.009 A 
ATOM     10  C   LIG    1       27.682 -19.936   5.457  0.00  0.00    +0.012 A 
ATOM     11  C   LIG    1       24.159 -20.950   7.517  0.00  0.00    +0.016 A 
BRANCH   2  14
ATOM     12  N   LIG    1       22.145 -21.858   5.373  0.00  0.00    -0.099 NA
ATOM     13  H   LIG    1       21.317 -21.753   4.785  0.00  0.00    +0.363 HD
ATOM     14  C   LIG    1       22.819 -20.753   5.380  0.00  0.00    +0.308 C 
BRANCH  14  15
ATOM     15  N   LIG    1       22.334 -19.677   4.697  0.00  0.00    -0.247 N 
ATOM     16  H   LIG    1       22.792 -19.421   3.833  0.00  0.00    +0.288 HD
ATOM     17  H   LIG    1       22.101 -18.864   5.255  0.00  0.00    +0.288 HD
ENDBRANCH  14  15
ENDBRANCH   2  14
ENDBRANCH   1   7
BRANCH   1  18
ATOM     18  C   LIG    1       31.152 -19.261   7.952  0.00  0.00    +0.344 C 
ATOM     19  O   LIG    1       31.881 -19.217   6.967  0.00  0.00    -0.244 OA
BRANCH  18  20
ATOM     20  C   LIG    1       31.301 -18.352   9.092  0.00  0.00    +0.060 A 
ATOM     21  C   LIG    1       30.456 -18.514  10.194  0.00  0.00    +0.018 A 
ATOM     22  C   LIG    1       30.595 -17.681  11.302  0.00  0.00    +0.046 A 
ATOM     23  C   LIG    1       31.540 -16.645  11.314  0.00  0.00    +0.142 A 
ATOM     24  C   LIG    1       32.396 -16.512  10.215  0.00  0.00    +0.046 A 
ATOM     25  C   LIG    1       32.289 -17.358   9.111  0.00  0.00    +0.018 A 
BRANCH  23  26
ATOM     26  N   LIG    1       31.759 -15.801  12.410  0.00  0.00    -0.073 NA
ATOM     27  C   LIG    1       32.437 -16.143  13.449  0.00  0.00    +0.382 C 
BRANCH  27  28
ATOM     28  N   LIG    1       32.652 -15.231  14.425  0.00  0.00    -0.289 N 
ATOM     29  H   LIG    1       31.814 -14.703  14.637  0.00  0.00    +0.255 HD
ATOM     30  H   LIG    1       32.980 -15.708  15.260  0.00  0.00    +0.255 HD
ENDBRANCH  27  28
BRANCH  27  31
ATOM     31  N   LIG    1       33.025 -17.314  13.788  0.00  0.00    -0.289 N 
ATOM     32  H   LIG    1       33.563 -17.248  14.644  0.00  0.00    +0.255 HD
ATOM     33  H   LIG    1       32.376 -18.091  13.827  0.00  0.00    +0.255 HD
ENDBRANCH  27  31
ENDBRANCH  23  26
ENDBRANCH  18  20
ENDBRANCH   1  18
TORSDOF 8
ENDMDL
MODEL 4
REMARK VINA RESULT:      -9.7      1.556      1.869
REMARK  Name = *****
REMARK                            x       y       z     vdW  Elec       q    Type
REMARK                         _______ _______ _______ _____ _____    ______ ____
ROOT
ATOM      1  O   LIG    1       24.728 -21.918   4.948  0.00  0.00    -0.422 OA
ENDROOT
BRANCH   1   7
ATOM      2  C   LIG    1       24.790 -28.260   5.812  0.00  0.00    +0.065 A 
ATOM      3  C   LIG    1       24.103 -27.250   6.496  0.00  0.00    +0.024 A 
ATOM      4  C   LIG    1       24.252 -25.905   6.133  0.00  0.00    -0.017 A 
ATOM      5  C   LIG    1       25.105 -25.563   5.058  0.00  0.00    -0.014 A 
ATOM      6  C   LIG    1       25.240 -24.218   4.692  0.00  0.00    +0.055 A 
ATOM      7  C   LIG    1       24.548 -23.233   5.396  0.00  0.00    +0.133 A 
ATOM      8  C   LIG    1       23.694 -23.566   6.442  0.00  0.00    +0.047 A 
ATOM      9  C   LIG    1       25.799 -26.577   4.383  0.00  0.00    +0.009 A 
ATOM     10  C   LIG    1       23.559 -24.899   6.818  0.00  0.00    +0.012 A 
ATOM     11  C   LIG    1       25.646 -27.914   4.760  0.00  0.00    +0.016 A 
BRANCH   2  14
ATOM     12  N   LIG    1       23.527 -30.314   5.844  0.00  0.00    -0.099 NA
ATOM     13  H   LIG    1       23.525 -31.258   6.234  0.00  0.00    +0.363 HD
ATOM     14  C   LIG    1       24.591 -29.685   6.226  0.00  0.00    +0.308 C 
BRANCH  14  15
ATOM     15  N   LIG    1       25.510 -30.342   6.992  0.00  0.00    -0.247 N 
ATOM     16  H   LIG    1       26.214 -29.789   7.461  0.00  0.00    +0.288 HD
ATOM     17  H   LIG    1       25.899 -31.187   6.592  0.00  0.00    +0.288 HD
ENDBRANCH  14  15
ENDBRANCH   2  14
ENDBRANCH   1   7
BRANCH   1  18
ATOM     18  C   LIG    1       24.564 -20.837   5.790  0.00  0.00    +0.344 C 
ATOM     19  O   LIG    1       23.560 -20.161   5.982  0.00  0.00    -0.244 OA
BRANCH  18  20
ATOM     20  C   LIG    1       25.853 -20.546   6.425  0.00  0.00    +0.060 A 
ATOM     21  C   LIG    1       26.928 -20.169   5.616  0.00  0.00    +0.018 A 
ATOM     22  C   LIG    1       28.157 -19.860   6.197  0.00  0.00    +0.046 A 
ATOM     23  C   LIG    1       28.350 -19.967   7.582  0.00  0.00    +0.142 A 
ATOM     24  C   LIG    1       27.256 -20.322   8.381  0.00  0.00    +0.046 A 
ATOM     25  C   LIG    1       26.012 -20.604   7.816  0.00  0.00    +0.018 A 
BRANCH  23  26
ATOM     26  N   LIG    1       29.543 -19.633   8.232  0.00  0.00    -0.073 NA
ATOM     27  C   LIG    1       30.499 -20.469   8.443  0.00  0.00    +0.382 C 
BRANCH  27  28
ATOM     28  N   LIG    1       31.643 -20.031   9.017  0.00  0.00    -0.289 N 
ATOM     29  H   LIG    1       31.498 -19.756   9.981  0.00  0.00    +0.255 HD
ATOM     30  H   LIG    1       32.342 -20.768   8.970  0.00  0.00    +0.255 HD
ENDBRANCH  27  28
BRANCH  27  31
ATOM     31  N   LIG    1       30.600 -21.795   8.188  0.00  0.00    -0.289 N 
ATOM     32  H   LIG    1       30.000 -22.355   8.780  0.00  0.00    +0.255 HD
ATOM     33  H   LIG    1       30.463 -22.026   7.211  0.00  0.00    +0.255 HD
ENDBRANCH  27  31
ENDBRANCH  23  26
ENDBRANCH  18  20
ENDBRANCH   1  18
TORSDOF 8
ENDMDL
MODEL 5
REMARK VINA RESULT:      -9.7      1.317      8.879
REMARK  Name = *****
REMARK                            x       y       z     vdW  Elec       q    Type
REMARK                         _______ _______ _______ _____ _____    ______ ____
ROOT
ATOM      1  O   LIG    1       25.157 -21.433   5.403  0.00  0.00    -0.422 OA
ENDROOT
BRANCH   1   7
ATOM      2  C   LIG    1       30.346 -18.682   7.949  0.00  0.00    +0.065 A 
ATOM      3  C   LIG    1       29.232 -19.274   8.557  0.00  0.00    +0.024 A 
ATOM      4  C   LIG    1       28.194 -19.813   7.787  0.00  0.00    -0.017 A 
ATOM      5  C   LIG    1       28.272 -19.762   6.376  0.00  0.00    -0.014 A 
ATOM      6  C   LIG    1       27.236 -20.313   5.612  0.00  0.00    +0.055 A 
ATOM      7  C   LIG    1       26.136 -20.890   6.245  0.00  0.00    +0.133 A 
ATOM      8  C   LIG    1       26.062 -20.958   7.633  0.00  0.00    +0.047 A 
ATOM      9  C   LIG    1       29.385 -19.160   5.772  0.00  0.00    +0.009 A 
ATOM     10  C   LIG    1       27.083 -20.407   8.400  0.00  0.00    +0.012 A 
ATOM     11  C   LIG    1       30.411 -18.621   6.552  0.00  0.00    +0.016 A 
BRANCH   2  14
ATOM     12  N   LIG    1       32.282 -17.289   8.306  0.00  0.00    -0.099 NA
ATOM     13  H   LIG    1       32.979 -17.036   9.007  0.00  0.00    +0.363 HD
ATOM     14  C   LIG    1       31.439 -18.131   8.811  0.00  0.00    +0.308 C 
BRANCH  14  15
ATOM     15  N   LIG    1       31.564 -18.488  10.121  0.00  0.00    -0.247 N 
ATOM     16  H   LIG    1       31.221 -19.398  10.397  0.00  0.00    +0.288 HD
ATOM     17  H   LIG    1       31.328 -17.775  10.801  0.00  0.00    +0.288 HD
ENDBRANCH  14  15
ENDBRANCH   2  14
ENDBRANCH   1   7
BRANCH   1  18
ATOM     18  C   LIG    1       24.152 -22.244   5.888  0.00  0.00    +0.344 C 
ATOM     19  O   LIG    1       23.068 -21.922   6.360  0.00  0.00    -0.244 OA
BRANCH  18  20
ATOM     20  C   LIG    1       24.606 -23.636   5.815  0.00  0.00    +0.060 A 
ATOM     21  C   LIG    1       24.677 -24.254   4.564  0.00  0.00    +0.018 A 
ATOM     22  C   LIG    1       25.132 -25.567   4.465  0.00  0.00    +0.046 A 
ATOM     23  C   LIG    1       25.476 -26.302   5.608  0.00  0.00    +0.142 A 
ATOM     24  C   LIG    1       25.425 -25.661   6.851  0.00  0.00    +0.046 A 
ATOM     25  C   LIG    1       25.001 -24.337   6.963  0.00  0.00    +0.018 A 
BRANCH  23  26
ATOM     26  N   LIG    1       25.978 -27.608   5.574  0.00  0.00    -0.073 NA
ATOM     27  C   LIG    1       25.240 -28.652   5.421  0.00  0.00    +0.382 C 
BRANCH  27  28
ATOM     28  N   LIG    1       25.828 -29.867   5.331  0.00  0.00    -0.289 N 
ATOM     29  H   LIG    1       25.454 -30.410   4.562  0.00  0.00    +0.255 HD
ATOM     30  H   LIG    1       26.830 -29.744   5.211  0.00  0.00    +0.255 HD
ENDBRANCH  27  28
BRANCH  27  31
ATOM     31  N   LIG    1       23.897 -28.792   5.323  0.00  0.00    -0.289 N 
ATOM     32  H   LIG    1       23.403 -28.384   6.107  0.00  0.00    +0.255 HD
ATOM     33  H   LIG    1       23.523 -28.456   4.443  0.00  0.00    +0.255 HD
ENDBRANCH  27  31
ENDBRANCH  23  26
ENDBRANCH  18  20
ENDBRANCH   1  18
TORSDOF 8
ENDMDL
MODEL 6
REMARK VINA RESULT:      -9.6      1.378      8.712
REMARK  Name = *****
REMARK                            x       y       z     vdW  Elec       q    Type
REMARK                         _______ _______ _______ _____ _____    ______ ____
ROOT
ATOM      1  O   LIG    1       24.806 -21.209   5.384  0.00  0.00    -0.422 OA
ENDROOT
BRANCH   1   7
ATOM      2  C   LIG    1       30.296 -19.005   7.828  0.00  0.00    +0.065 A 
ATOM      3  C   LIG    1       29.152 -19.511   8.457  0.00  0.00    +0.024 A 
ATOM      4  C   LIG    1       28.046 -19.933   7.708  0.00  0.00    -0.017 A 
ATOM      5  C   LIG    1       28.087 -19.852   6.297  0.00  0.00    -0.014 A 
ATOM      6  C   LIG    1       26.983 -20.287   5.553  0.00  0.00    +0.055 A 
ATOM      7  C   LIG    1       25.854 -20.779   6.208  0.00  0.00    +0.133 A 
ATOM      8  C   LIG    1       25.816 -20.878   7.595  0.00  0.00    +0.047 A 
ATOM      9  C   LIG    1       29.231 -19.336   5.672  0.00  0.00    +0.009 A 
ATOM     10  C   LIG    1       26.905 -20.441   8.342  0.00  0.00    +0.012 A 
ATOM     11  C   LIG    1       30.324 -18.912   6.432  0.00  0.00    +0.016 A 
BRANCH   2  14
ATOM     12  N   LIG    1       32.111 -19.464   9.349  0.00  0.00    -0.099 NA
ATOM     13  H   LIG    1       32.848 -19.011   9.890  0.00  0.00    +0.363 HD
ATOM     14  C   LIG    1       31.459 -18.577   8.668  0.00  0.00    +0.308 C 
BRANCH  14  15
ATOM     15  N   LIG    1       31.857 -17.274   8.726  0.00  0.00    -0.247 N 
ATOM     16  H   LIG    1       32.839 -17.087   8.883  0.00  0.00    +0.288 HD
ATOM     17  H   LIG    1       31.265 -16.652   9.262  0.00  0.00    +0.288 HD
ENDBRANCH  14  15
ENDBRANCH   2  14
ENDBRANCH   1   7
BRANCH   1  18
ATOM     18  C   LIG    1       23.863 -22.115   5.825  0.00  0.00    +0.344 C 
ATOM     19  O   LIG    1       22.737 -21.898   6.260  0.00  0.00    -0.244 OA
BRANCH  18  20
ATOM     20  C   LIG    1       24.445 -23.458   5.757  0.00  0.00    +0.060 A 
ATOM     21  C   LIG    1       24.789 -24.101   6.950  0.00  0.00    +0.018 A 
ATOM     22  C   LIG    1       25.318 -25.389   6.914  0.00  0.00    +0.046 A 
ATOM     23  C   LIG    1       25.559 -26.039   5.696  0.00  0.00    +0.142 A 
ATOM     24  C   LIG    1       25.185 -25.393   4.511  0.00  0.00    +0.046 A 
ATOM     25  C   LIG    1       24.625 -24.115   4.533  0.00  0.00    +0.018 A 
BRANCH  23  26
ATOM     26  N   LIG    1       26.049 -27.346   5.592  0.00  0.00    -0.073 NA
ATOM     27  C   LIG    1       25.294 -28.387   5.526  0.00  0.00    +0.382 C 
BRANCH  27  28
ATOM     28  N   LIG    1       25.863 -29.604   5.356  0.00  0.00    -0.289 N 
ATOM     29  H   LIG    1       26.850 -29.531   5.146  0.00  0.00    +0.255 HD
ATOM     30  H   LIG    1       25.729 -30.154   6.200  0.00  0.00    +0.255 HD
ENDBRANCH  27  28
BRANCH  27  31
ATOM     31  N   LIG    1       23.949 -28.524   5.596  0.00  0.00    -0.289 N 
ATOM     32  H   LIG    1       23.666 -29.408   5.999  0.00  0.00    +0.255 HD
ATOM     33  H   LIG    1       23.492 -27.750   6.063  0.00  0.00    +0.255 HD
ENDBRANCH  27  31
ENDBRANCH  23  26
ENDBRANCH  18  20
ENDBRANCH   1  18
TORSDOF 8
ENDMDL
MODEL 7
REMARK VINA RESULT:      -8.3      4.630      9.247
REMARK  Name = *****
REMARK                            x       y       z     vdW  Elec       q    Type
REMARK                         _______ _______ _______ _____ _____    ______ ____
ROOT
ATOM      1  O   LIG    1       25.502 -24.924   6.763  0.00  0.00    -0.422 OA
ENDROOT
BRANCH   1   7
ATOM      2  C   LIG    1       22.852 -19.503   4.626  0.00  0.00    +0.065 A 
ATOM      3  C   LIG    1       22.308 -20.555   5.374  0.00  0.00    +0.024 A 
ATOM      4  C   LIG    1       23.086 -21.665   5.725  0.00  0.00    -0.017 A 
ATOM      5  C   LIG    1       24.441 -21.723   5.323  0.00  0.00    -0.014 A 
ATOM      6  C   LIG    1       25.217 -22.831   5.688  0.00  0.00    +0.055 A 
ATOM      7  C   LIG    1       24.647 -23.866   6.427  0.00  0.00    +0.133 A 
ATOM      8  C   LIG    1       23.319 -23.806   6.840  0.00  0.00    +0.047 A 
ATOM      9  C   LIG    1       24.978 -20.672   4.567  0.00  0.00    +0.009 A 
ATOM     10  C   LIG    1       22.539 -22.714   6.475  0.00  0.00    +0.012 A 
ATOM     11  C   LIG    1       24.188 -19.574   4.217  0.00  0.00    +0.016 A 
BRANCH   2  14
ATOM     12  N   LIG    1       22.328 -17.150   4.690  0.00  0.00    -0.099 NA
ATOM     13  H   LIG    1       21.622 -16.469   4.406  0.00  0.00    +0.363 HD
ATOM     14  C   LIG    1       21.986 -18.330   4.285  0.00  0.00    +0.308 C 
BRANCH  14  15
ATOM     15  N   LIG    1       20.848 -18.473   3.547  0.00  0.00    -0.247 N 
ATOM     16  H   LIG    1       20.562 -19.410   3.297  0.00  0.00    +0.288 HD
ATOM     17  H   LIG    1       20.734 -17.826   2.776  0.00  0.00    +0.288 HD
ENDBRANCH  14  15
ENDBRANCH   2  14
ENDBRANCH   1   7
BRANCH   1  18
ATOM     18  C   LIG    1       25.668 -26.013   5.933  0.00  0.00    +0.344 C 
ATOM     19  O   LIG    1       25.849 -26.033   4.720  0.00  0.00    -0.244 OA
BRANCH  18  20
ATOM     20  C   LIG    1       25.530 -27.232   6.736  0.00  0.00    +0.060 A 
ATOM     21  C   LIG    1       24.610 -28.203   6.329  0.00  0.00    +0.018 A 
ATOM     22  C   LIG    1       24.480 -29.382   7.059  0.00  0.00    +0.046 A 
ATOM     23  C   LIG    1       25.222 -29.594   8.230  0.00  0.00    +0.142 A 
ATOM     24  C   LIG    1       26.157 -28.624   8.610  0.00  0.00    +0.046 A 
ATOM     25  C   LIG    1       26.321 -27.452   7.871  0.00  0.00    +0.018 A 
BRANCH  23  26
ATOM     26  N   LIG    1       25.169 -30.772   8.985  0.00  0.00    -0.073 NA
ATOM     27  C   LIG    1       25.965 -31.768   8.810  0.00  0.00    +0.382 C 
BRANCH  27  28
ATOM     28  N   LIG    1       25.879 -32.834   9.639  0.00  0.00    -0.289 N 
ATOM     29  H   LIG    1       26.340 -32.660  10.523  0.00  0.00    +0.255 HD
ATOM     30  H   LIG    1       24.899 -33.054   9.797  0.00  0.00    +0.255 HD
ENDBRANCH  27  28
BRANCH  27  31
ATOM     31  N   LIG    1       26.944 -31.982   7.899  0.00  0.00    -0.289 N 
ATOM     32  H   LIG    1       27.872 -31.855   8.285  0.00  0.00    +0.255 HD
ATOM     33  H   LIG    1       26.866 -32.877   7.431  0.00  0.00    +0.255 HD
ENDBRANCH  27  31
ENDBRANCH  23  26
ENDBRANCH  18  20
ENDBRANCH   1  18
TORSDOF 8
ENDMDL
MODEL 8
REMARK VINA RESULT:      -8.2      1.378      1.755
REMARK  Name = *****
REMARK                            x       y       z     vdW  Elec       q    Type
REMARK                         _______ _______ _______ _____ _____    ______ ____
ROOT
ATOM      1  O   LIG    1       25.688 -22.737   5.892  0.00  0.00    -0.422 OA
ENDROOT
BRANCH   1   7
ATOM      2  C   LIG    1       24.977 -29.017   6.904  0.00  0.00    +0.065 A 
ATOM      3  C   LIG    1       24.396 -28.172   5.951  0.00  0.00    +0.024 A 
ATOM      4  C   LIG    1       24.697 -26.804   5.923  0.00  0.00    -0.017 A 
ATOM      5  C   LIG    1       25.603 -26.270   6.868  0.00  0.00    -0.014 A 
ATOM      6  C   LIG    1       25.909 -24.903   6.827  0.00  0.00    +0.055 A 
ATOM      7  C   LIG    1       25.309 -24.085   5.871  0.00  0.00    +0.133 A 
ATOM      8  C   LIG    1       24.431 -24.610   4.928  0.00  0.00    +0.047 A 
ATOM      9  C   LIG    1       26.174 -27.118   7.827  0.00  0.00    +0.009 A 
ATOM     10  C   LIG    1       24.115 -25.964   4.965  0.00  0.00    +0.012 A 
ATOM     11  C   LIG    1       25.860 -28.479   7.847  0.00  0.00    +0.016 A 
BRANCH   2  14
ATOM     12  N   LIG    1       23.728 -30.906   6.074  0.00  0.00    -0.099 NA
ATOM     13  H   LIG    1       23.592 -31.909   6.209  0.00  0.00    +0.363 HD
ATOM     14  C   LIG    1       24.637 -30.475   6.889  0.00  0.00    +0.308 C 
BRANCH  14  15
ATOM     15  N   LIG    1       25.268 -31.364   7.708  0.00  0.00    -0.247 N 
ATOM     16  H   LIG    1       24.794 -32.234   7.914  0.00  0.00    +0.288 HD
ATOM     17  H   LIG    1       25.713 -30.974   8.530  0.00  0.00    +0.288 HD
ENDBRANCH  14  15
ENDBRANCH   2  14
ENDBRANCH   1   7
BRANCH   1  18
ATOM     18  C   LIG    1       25.799 -22.034   7.074  0.00  0.00    +0.344 C 
ATOM     19  O   LIG    1       24.968 -21.895   7.964  0.00  0.00    -0.244 OA
BRANCH  18  20
ATOM     20  C   LIG    1       27.111 -21.380   7.101  0.00  0.00    +0.060 A 
ATOM     21  C   LIG    1       27.337 -20.296   6.248  0.00  0.00    +0.018 A 
ATOM     22  C   LIG    1       28.566 -19.640   6.275  0.00  0.00    +0.046 A 
ATOM     23  C   LIG    1       29.603 -20.078   7.111  0.00  0.00    +0.142 A 
ATOM     24  C   LIG    1       29.352 -21.148   7.978  0.00  0.00    +0.046 A 
ATOM     25  C   LIG    1       28.116 -21.795   7.984  0.00  0.00    +0.018 A 
BRANCH  23  26
ATOM     26  N   LIG    1       30.844 -19.439   7.215  0.00  0.00    -0.073 NA
ATOM     27  C   LIG    1       31.114 -18.546   8.103  0.00  0.00    +0.382 C 
BRANCH  27  28
ATOM     28  N   LIG    1       32.367 -18.038   8.166  0.00  0.00    -0.289 N 
ATOM     29  H   LIG    1       32.692 -17.726   7.260  0.00  0.00    +0.255 HD
ATOM     30  H   LIG    1       32.378 -17.262   8.823  0.00  0.00    +0.255 HD
ENDBRANCH  27  28
BRANCH  27  31
ATOM     31  N   LIG    1       30.344 -17.971   9.057  0.00  0.00    -0.289 N 
ATOM     32  H   LIG    1       30.581 -18.283   9.991  0.00  0.00    +0.255 HD
ATOM     33  H   LIG    1       30.332 -16.959   9.004  0.00  0.00    +0.255 HD
ENDBRANCH  27  31
ENDBRANCH  23  26
ENDBRANCH  18  20
ENDBRANCH   1  18
TORSDOF 8
ENDMDL
MODEL 9
REMARK VINA RESULT:      -8.2      1.760      2.850
REMARK  Name = *****
REMARK                            x       y       z     vdW  Elec       q    Type
REMARK                         _______ _______ _______ _____ _____    ______ ____
ROOT
ATOM      1  O   LIG    1       24.626 -23.454   5.233  0.00  0.00    -0.422 OA
ENDROOT
BRANCH   1   7
ATOM      2  C   LIG    1       25.047 -29.624   6.884  0.00  0.00    +0.065 A 
ATOM      3  C   LIG    1       25.702 -28.495   7.389  0.00  0.00    +0.024 A 
ATOM      4  C   LIG    1       25.457 -27.223   6.857  0.00  0.00    -0.017 A 
ATOM      5  C   LIG    1       24.530 -27.075   5.800  0.00  0.00    -0.014 A 
ATOM      6  C   LIG    1       24.279 -25.799   5.281  0.00  0.00    +0.055 A 
ATOM      7  C   LIG    1       24.953 -24.693   5.799  0.00  0.00    +0.133 A 
ATOM      8  C   LIG    1       25.853 -24.831   6.852  0.00  0.00    +0.047 A 
ATOM      9  C   LIG    1       23.883 -28.210   5.291  0.00  0.00    +0.009 A 
ATOM     10  C   LIG    1       26.113 -26.095   7.368  0.00  0.00    +0.012 A 
ATOM     11  C   LIG    1       24.143 -29.475   5.826  0.00  0.00    +0.016 A 
BRANCH   2  14
ATOM     12  N   LIG    1       24.358 -31.650   7.997  0.00  0.00    -0.099 NA
ATOM     13  H   LIG    1       24.719 -32.517   8.397  0.00  0.00    +0.363 HD
ATOM     14  C   LIG    1       25.331 -30.963   7.491  0.00  0.00    +0.308 C 
BRANCH  14  15
ATOM     15  N   LIG    1       26.592 -31.483   7.517  0.00  0.00    -0.247 N 
ATOM     16  H   LIG    1       27.103 -31.523   6.645  0.00  0.00    +0.288 HD
ATOM     17  H   LIG    1       26.714 -32.326   8.064  0.00  0.00    +0.288 HD
ENDBRANCH  14  15
ENDBRANCH   2  14
ENDBRANCH   1   7
BRANCH   1  18
ATOM     18  C   LIG    1       24.124 -22.419   5.995  0.00  0.00    +0.344 C 
ATOM     19  O   LIG    1       22.957 -22.081   6.156  0.00  0.00    -0.244 OA
BRANCH  18  20
ATOM     20  C   LIG    1       25.252 -21.689   6.581  0.00  0.00    +0.060 A 
ATOM     21  C   LIG    1       26.184 -21.095   5.725  0.00  0.00    +0.018 A 
ATOM     22  C   LIG    1       27.250 -20.372   6.256  0.00  0.00    +0.046 A 
ATOM     23  C   LIG    1       27.434 -20.267   7.642  0.00  0.00    +0.142 A 
ATOM     24  C   LIG    1       26.478 -20.845   8.486  0.00  0.00    +0.046 A 
ATOM     25  C   LIG    1       25.389 -21.546   7.968  0.00  0.00    +0.018 A 
BRANCH  23  26
ATOM     26  N   LIG    1       28.457 -19.523   8.240  0.00  0.00    -0.073 NA
ATOM     27  C   LIG    1       29.699 -19.861   8.205  0.00  0.00    +0.382 C 
BRANCH  27  28
ATOM     28  N   LIG    1       30.622 -19.037   8.752  0.00  0.00    -0.289 N 
ATOM     29  H   LIG    1       31.473 -19.531   8.990  0.00  0.00    +0.255 HD
ATOM     30  H   LIG    1       30.830 -18.288   8.097  0.00  0.00    +0.255 HD
ENDBRANCH  27  28
BRANCH  27  31
ATOM     31  N   LIG    1       30.315 -20.953   7.693  0.00  0.00    -0.289 N 
ATOM     32  H   LIG    1       31.123 -21.235   8.234  0.00  0.00    +0.255 HD
ATOM     33  H   LIG    1       29.687 -21.733   7.544  0.00  0.00    +0.255 HD
ENDBRANCH  27  31
ENDBRANCH  23  26
ENDBRANCH  18  20
ENDBRANCH   1  18
TORSDOF 8
ENDMDL
