MODEL 1
REMARK VINA RESULT:      -2.0      0.000      0.000
REMARK  Name = *****
REMARK                            x       y       z     vdW  Elec       q    Type
REMARK                         _______ _______ _______ _____ _____    ______ ____
ROOT
ATOM      1  C   LIG    1       24.797 -19.865   4.403  0.00  0.00    +0.247 A 
ATOM      2  C   LIG    1       25.536 -18.732   4.047  0.00  0.00    +0.169 A 
ATOM      3  N   LIG    1       26.887 -18.478   3.932  0.00  0.00    -0.229 NA
ATOM      4  C   LIG    1       26.964 -17.231   3.525  0.00  0.00    +0.204 A 
ATOM      5  N   LIG    1       25.729 -16.660   3.387  0.00  0.00    -0.285 N 
ATOM      6  C   LIG    1       24.797 -17.610   3.707  0.00  0.00    +0.171 A 
ATOM      7  N   LIG    1       23.460 -17.497   3.677  0.00  0.00    -0.195 NA
ATOM      8  C   LIG    1       22.851 -18.632   4.054  0.00  0.00    +0.218 A 
ATOM      9  N   LIG    1       23.438 -19.793   4.391  0.00  0.00    -0.178 NA
ENDROOT
BRANCH   5  10
ATOM     10  C1* LIG    1       25.447 -15.321   2.928  0.00  0.00    +0.253 C 
ATOM     11  C2* LIG    1       25.051 -14.309   4.010  0.00  0.00    +0.195 C 
ATOM     12  C3* LIG    1       25.570 -13.007   3.411  0.00  0.00    +0.178 C 
ATOM     13  C4* LIG    1       26.818 -13.429   2.629  0.00  0.00    +0.177 C 
ATOM     14  O4* LIG    1       26.605 -14.799   2.226  0.00  0.00    -0.346 OA
BRANCH  11  15
ATOM     15  O2* LIG    1       25.639 -14.546   5.292  0.00  0.00    -0.385 OA
ATOM     16  H2* LIG    1       26.419 -13.958   5.392  0.00  0.00    +0.210 HD
ENDBRANCH  11  15
BRANCH  12  17
ATOM     17  O3* LIG    1       24.595 -12.465   2.507  0.00  0.00    -0.386 OA
ATOM     18  H3* LIG    1       23.859 -13.095   2.404  0.00  0.00    +0.210 HD
ENDBRANCH  12  17
BRANCH  13  19
ATOM     19  C5* LIG    1       28.136 -13.335   3.410  0.00  0.00    +0.190 C 
BRANCH  19  20
ATOM     20  O5* LIG    1       27.925 -12.896   4.750  0.00  0.00    -0.392 OA
ATOM     21  H5* LIG    1       27.493 -12.021   4.694  0.00  0.00    +0.209 HD
ENDBRANCH  19  20
ENDBRANCH  13  19
ENDBRANCH   5  10
BRANCH   8  22
ATOM     22  N   LIG    1       21.467 -18.637   4.037  0.00  0.00    -0.327 N 
ATOM     23  H   LIG    1       21.110 -17.796   4.465  0.00  0.00    +0.145 HD
ATOM     24  H   LIG    1       21.147 -18.855   3.104  0.00  0.00    +0.145 HD
ENDBRANCH   8  22
BRANCH   1  26
ATOM     25  C   LIG    1       25.490 -21.289   6.151  0.00  0.00    +0.279 C 
ATOM     26  O   LIG    1       25.301 -21.107   4.752  0.00  0.00    -0.478 OA
ENDBRANCH   1  26
TORSDOF 7
ENDMDL
MODEL 2
REMARK VINA RESULT:      -1.9      1.806      3.406
REMARK  Name = *****
REMARK                            x       y       z     vdW  Elec       q    Type
REMARK                         _______ _______ _______ _____ _____    ______ ____
ROOT
ATOM      1  C   LIG    1       26.325 -19.965   4.621  0.00  0.00    +0.247 A 
ATOM      2  C   LIG    1       26.186 -18.682   4.081  0.00  0.00    +0.169 A 
ATOM      3  N   LIG    1       25.204 -18.070   3.328  0.00  0.00    -0.229 NA
ATOM      4  C   LIG    1       25.628 -16.839   3.156  0.00  0.00    +0.204 A 
ATOM      5  N   LIG    1       26.844 -16.628   3.744  0.00  0.00    -0.285 N 
ATOM      6  C   LIG    1       27.215 -17.795   4.353  0.00  0.00    +0.171 A 
ATOM      7  N   LIG    1       28.320 -18.033   5.078  0.00  0.00    -0.195 NA
ATOM      8  C   LIG    1       28.363 -19.296   5.530  0.00  0.00    +0.218 A 
ATOM      9  N   LIG    1       27.432 -20.250   5.358  0.00  0.00    -0.178 NA
ENDROOT
BRANCH   5  10
ATOM     10  C1* LIG    1       27.580 -15.387   3.776  0.00  0.00    +0.253 C 
ATOM     11  C2* LIG    1       27.338 -14.431   2.601  0.00  0.00    +0.195 C 
ATOM     12  C3* LIG    1       27.569 -13.077   3.261  0.00  0.00    +0.178 C 
ATOM     13  C4* LIG    1       27.087 -13.277   4.700  0.00  0.00    +0.177 C 
ATOM     14  O4* LIG    1       27.274 -14.677   5.004  0.00  0.00    -0.346 OA
BRANCH  11  15
ATOM     15  O2* LIG    1       26.027 -14.502   2.035  0.00  0.00    -0.385 OA
ATOM     16  H2* LIG    1       25.372 -14.539   2.767  0.00  0.00    +0.210 HD
ENDBRANCH  11  15
BRANCH  12  17
ATOM     17  O3* LIG    1       28.971 -12.768   3.260  0.00  0.00    -0.386 OA
ATOM     18  H3* LIG    1       29.282 -12.664   2.342  0.00  0.00    +0.210 HD
ENDBRANCH  12  17
BRANCH  13  19
ATOM     19  C5* LIG    1       25.621 -12.901   4.953  0.00  0.00    +0.190 C 
BRANCH  19  20
ATOM     20  O5* LIG    1       24.739 -13.981   4.651  0.00  0.00    -0.392 OA
ATOM     21  H5* LIG    1       24.777 -14.112   3.683  0.00  0.00    +0.209 HD
ENDBRANCH  19  20
ENDBRANCH  13  19
ENDBRANCH   5  10
BRANCH   8  22
ATOM     22  N   LIG    1       29.450 -19.645   6.313  0.00  0.00    -0.327 N 
ATOM     23  H   LIG    1       30.069 -18.856   6.422  0.00  0.00    +0.145 HD
ATOM     24  H   LIG    1       29.122 -20.098   7.154  0.00  0.00    +0.145 HD
ENDBRANCH   8  22
BRANCH   1  26
ATOM     25  C   LIG    1       24.352 -20.958   5.447  0.00  0.00    +0.279 C 
ATOM     26  O   LIG    1       25.424 -21.011   4.513  0.00  0.00    -0.478 OA
ENDBRANCH   1  26
TORSDOF 7
ENDMDL
MODEL 3
REMARK VINA RESULT:      -1.8      2.200      5.955
REMARK  Name = *****
REMARK                            x       y       z     vdW  Elec       q    Type
REMARK                         _______ _______ _______ _____ _____    ______ ____
ROOT
ATOM      1  C   LIG    1       26.919 -14.035   4.230  0.00  0.00    +0.247 A 
ATOM      2  C   LIG    1       26.984 -15.423   4.069  0.00  0.00    +0.169 A 
ATOM      3  N   LIG    1       27.959 -16.364   4.327  0.00  0.00    -0.229 NA
ATOM      4  C   LIG    1       27.416 -17.514   3.996  0.00  0.00    +0.204 A 
ATOM      5  N   LIG    1       26.143 -17.362   3.520  0.00  0.00    -0.285 N 
ATOM      6  C   LIG    1       25.842 -16.028   3.569  0.00  0.00    +0.171 A 
ATOM      7  N   LIG    1       24.688 -15.430   3.232  0.00  0.00    -0.195 NA
ATOM      8  C   LIG    1       24.741 -14.100   3.406  0.00  0.00    +0.218 A 
ATOM      9  N   LIG    1       25.770 -13.388   3.896  0.00  0.00    -0.178 NA
ENDROOT
BRANCH   5  10
ATOM     10  C1* LIG    1       25.251 -18.415   3.101  0.00  0.00    +0.253 C 
ATOM     11  C2* LIG    1       25.660 -19.840   3.495  0.00  0.00    +0.195 C 
ATOM     12  C3* LIG    1       24.302 -20.519   3.628  0.00  0.00    +0.178 C 
ATOM     13  C4* LIG    1       23.377 -19.406   4.129  0.00  0.00    +0.177 C 
ATOM     14  O4* LIG    1       23.925 -18.164   3.635  0.00  0.00    -0.346 OA
BRANCH  11  15
ATOM     15  O2* LIG    1       26.394 -19.932   4.718  0.00  0.00    -0.385 OA
ATOM     16  H2* LIG    1       26.591 -20.878   4.895  0.00  0.00    +0.210 HD
ENDBRANCH  11  15
BRANCH  12  17
ATOM     17  O3* LIG    1       23.857 -20.972   2.340  0.00  0.00    -0.386 OA
ATOM     18  H3* LIG    1       24.622 -21.274   1.818  0.00  0.00    +0.210 HD
ENDBRANCH  12  17
BRANCH  13  19
ATOM     19  C5* LIG    1       23.233 -19.319   5.655  0.00  0.00    +0.190 C 
BRANCH  19  20
ATOM     20  O5* LIG    1       23.742 -20.484   6.300  0.00  0.00    -0.392 OA
ATOM     21  H5* LIG    1       23.236 -20.591   7.129  0.00  0.00    +0.209 HD
ENDBRANCH  19  20
ENDBRANCH  13  19
ENDBRANCH   5  10
BRANCH   8  22
ATOM     22  N   LIG    1       23.595 -13.383   3.112  0.00  0.00    -0.327 N 
ATOM     23  H   LIG    1       23.018 -13.294   3.935  0.00  0.00    +0.145 HD
ATOM     24  H   LIG    1       23.848 -12.533   2.628  0.00  0.00    +0.145 HD
ENDBRANCH   8  22
BRANCH   1  26
ATOM     25  C   LIG    1       28.897 -12.832   3.781  0.00  0.00    +0.279 C 
ATOM     26  O   LIG    1       27.913 -13.213   4.735  0.00  0.00    -0.478 OA
ENDBRANCH   1  26
TORSDOF 7
ENDMDL
MODEL 4
REMARK VINA RESULT:      -1.7      1.834      3.107
REMARK  Name = *****
REMARK                            x       y       z     vdW  Elec       q    Type
REMARK                         _______ _______ _______ _____ _____    ______ ____
ROOT
ATOM      1  C   LIG    1       22.852 -19.099   4.423  0.00  0.00    +0.247 A 
ATOM      2  C   LIG    1       22.993 -17.707   4.399  0.00  0.00    +0.169 A 
ATOM      3  N   LIG    1       22.154 -16.662   4.730  0.00  0.00    -0.229 NA
ATOM      4  C   LIG    1       22.868 -15.578   4.526  0.00  0.00    +0.204 A 
ATOM      5  N   LIG    1       24.121 -15.868   4.062  0.00  0.00    -0.285 N 
ATOM      6  C   LIG    1       24.226 -17.230   3.983  0.00  0.00    +0.171 A 
ATOM      7  N   LIG    1       25.292 -17.956   3.610  0.00  0.00    -0.195 NA
ATOM      8  C   LIG    1       25.043 -19.274   3.651  0.00  0.00    +0.218 A 
ATOM      9  N   LIG    1       23.907 -19.871   4.048  0.00  0.00    -0.178 NA
ENDROOT
BRANCH   5  10
ATOM     10  C1* LIG    1       25.168 -14.921   3.766  0.00  0.00    +0.253 C 
ATOM     11  C2* LIG    1       24.911 -13.981   2.582  0.00  0.00    +0.195 C 
ATOM     12  C3* LIG    1       25.698 -12.745   3.001  0.00  0.00    +0.178 C 
ATOM     13  C4* LIG    1       25.585 -12.732   4.529  0.00  0.00    +0.177 C 
ATOM     14  O4* LIG    1       25.427 -14.107   4.940  0.00  0.00    -0.346 OA
BRANCH  11  15
ATOM     15  O2* LIG    1       23.535 -13.656   2.368  0.00  0.00    -0.385 OA
ATOM     16  H2* LIG    1       23.187 -13.220   3.176  0.00  0.00    +0.210 HD
ENDBRANCH  11  15
BRANCH  12  17
ATOM     17  O3* LIG    1       27.075 -12.893   2.621  0.00  0.00    -0.386 OA
ATOM     18  H3* LIG    1       27.139 -12.971   1.652  0.00  0.00    +0.210 HD
ENDBRANCH  12  17
BRANCH  13  19
ATOM     19  C5* LIG    1       24.419 -11.905   5.087  0.00  0.00    +0.190 C 
BRANCH  19  20
ATOM     20  O5* LIG    1       23.553 -11.447   4.050  0.00  0.00    -0.392 OA
ATOM     21  H5* LIG    1       24.117 -11.264   3.273  0.00  0.00    +0.209 HD
ENDBRANCH  19  20
ENDBRANCH  13  19
ENDBRANCH   5  10
BRANCH   8  22
ATOM     22  N   LIG    1       26.084 -20.119   3.309  0.00  0.00    -0.327 N 
ATOM     23  H   LIG    1       26.957 -19.762   3.669  0.00  0.00    +0.145 HD
ATOM     24  H   LIG    1       25.836 -21.068   3.551  0.00  0.00    +0.145 HD
ENDBRANCH   8  22
BRANCH   1  26
ATOM     25  C   LIG    1       21.997 -21.169   5.163  0.00  0.00    +0.279 C 
ATOM     26  O   LIG    1       21.735 -19.811   4.824  0.00  0.00    -0.478 OA
ENDBRANCH   1  26
TORSDOF 7
ENDMDL
MODEL 5
REMARK VINA RESULT:      -1.7      1.987      6.088
REMARK  Name = *****
REMARK                            x       y       z     vdW  Elec       q    Type
REMARK                         _______ _______ _______ _____ _____    ______ ____
ROOT
ATOM      1  C   LIG    1       26.175 -15.300   3.347  0.00  0.00    +0.247 A 
ATOM      2  C   LIG    1       25.853 -16.661   3.354  0.00  0.00    +0.169 A 
ATOM      3  N   LIG    1       26.565 -17.808   3.067  0.00  0.00    -0.229 NA
ATOM      4  C   LIG    1       25.725 -18.793   3.289  0.00  0.00    +0.204 A 
ATOM      5  N   LIG    1       24.498 -18.341   3.689  0.00  0.00    -0.285 N 
ATOM      6  C   LIG    1       24.562 -16.975   3.748  0.00  0.00    +0.171 A 
ATOM      7  N   LIG    1       23.598 -16.120   4.126  0.00  0.00    -0.195 NA
ATOM      8  C   LIG    1       24.006 -14.843   4.064  0.00  0.00    +0.218 A 
ATOM      9  N   LIG    1       25.227 -14.399   3.719  0.00  0.00    -0.178 NA
ENDROOT
BRANCH   5  10
ATOM     10  C1* LIG    1       23.359 -19.150   4.047  0.00  0.00    +0.253 C 
ATOM     11  C2* LIG    1       23.497 -20.656   3.791  0.00  0.00    +0.195 C 
ATOM     12  C3* LIG    1       22.607 -21.231   4.887  0.00  0.00    +0.178 C 
ATOM     13  C4* LIG    1       22.755 -20.241   6.046  0.00  0.00    +0.177 C 
ATOM     14  O4* LIG    1       23.053 -18.958   5.452  0.00  0.00    -0.346 OA
BRANCH  11  15
ATOM     15  O2* LIG    1       24.830 -21.160   3.906  0.00  0.00    -0.385 OA
ATOM     16  H2* LIG    1       24.932 -21.920   3.293  0.00  0.00    +0.210 HD
ENDBRANCH  11  15
BRANCH  12  17
ATOM     17  O3* LIG    1       21.242 -21.253   4.443  0.00  0.00    -0.386 OA
ATOM     18  H3* LIG    1       21.052 -22.106   4.012  0.00  0.00    +0.210 HD
ENDBRANCH  12  17
BRANCH  13  19
ATOM     19  C5* LIG    1       23.851 -20.589   7.062  0.00  0.00    +0.190 C 
BRANCH  19  20
ATOM     20  O5* LIG    1       25.155 -20.455   6.498  0.00  0.00    -0.392 OA
ATOM     21  H5* LIG    1       25.726 -21.105   6.953  0.00  0.00    +0.209 HD
ENDBRANCH  19  20
ENDBRANCH  13  19
ENDBRANCH   5  10
BRANCH   8  22
ATOM     22  N   LIG    1       23.099 -13.875   4.457  0.00  0.00    -0.327 N 
ATOM     23  H   LIG    1       22.589 -13.529   3.657  0.00  0.00    +0.145 HD
ATOM     24  H   LIG    1       22.558 -14.222   5.237  0.00  0.00    +0.145 HD
ENDBRANCH   8  22
BRANCH   1  26
ATOM     25  C   LIG    1       27.820 -13.703   3.900  0.00  0.00    +0.279 C 
ATOM     26  O   LIG    1       27.400 -14.741   3.022  0.00  0.00    -0.478 OA
ENDBRANCH   1  26
TORSDOF 7
ENDMDL
MODEL 6
REMARK VINA RESULT:      -1.5      3.237      5.777
REMARK  Name = *****
REMARK                            x       y       z     vdW  Elec       q    Type
REMARK                         _______ _______ _______ _____ _____    ______ ____
ROOT
ATOM      1  C   LIG    1       28.192 -18.579   5.067  0.00  0.00    +0.247 A 
ATOM      2  C   LIG    1       27.262 -19.610   5.235  0.00  0.00    +0.169 A 
ATOM      3  N   LIG    1       27.277 -20.797   5.939  0.00  0.00    -0.229 NA
ATOM      4  C   LIG    1       26.091 -21.326   5.737  0.00  0.00    +0.204 A 
ATOM      5  N   LIG    1       25.315 -20.548   4.923  0.00  0.00    -0.285 N 
ATOM      6  C   LIG    1       26.044 -19.437   4.598  0.00  0.00    +0.171 A 
ATOM      7  N   LIG    1       25.662 -18.390   3.847  0.00  0.00    -0.195 NA
ATOM      8  C   LIG    1       26.634 -17.472   3.735  0.00  0.00    +0.218 A 
ATOM      9  N   LIG    1       27.848 -17.503   4.310  0.00  0.00    -0.178 NA
ENDROOT
BRANCH   5  10
ATOM     10  C1* LIG    1       23.953 -20.813   4.524  0.00  0.00    +0.253 C 
ATOM     11  C2* LIG    1       22.954 -21.050   5.663  0.00  0.00    +0.195 C 
ATOM     12  C3* LIG    1       21.661 -20.535   5.042  0.00  0.00    +0.178 C 
ATOM     13  C4* LIG    1       22.115 -19.394   4.127  0.00  0.00    +0.177 C 
ATOM     14  O4* LIG    1       23.464 -19.710   3.718  0.00  0.00    -0.346 OA
BRANCH  11  15
ATOM     15  O2* LIG    1       23.250 -20.346   6.872  0.00  0.00    -0.385 OA
ATOM     16  H2* LIG    1       22.508 -20.480   7.502  0.00  0.00    +0.210 HD
ENDBRANCH  11  15
BRANCH  12  17
ATOM     17  O3* LIG    1       21.053 -21.571   4.255  0.00  0.00    -0.386 OA
ATOM     18  H3* LIG    1       20.136 -21.711   4.551  0.00  0.00    +0.210 HD
ENDBRANCH  12  17
BRANCH  13  19
ATOM     19  C5* LIG    1       22.100 -18.001   4.770  0.00  0.00    +0.190 C 
BRANCH  19  20
ATOM     20  O5* LIG    1       22.969 -17.096   4.090  0.00  0.00    -0.392 OA
ATOM     21  H5* LIG    1       22.977 -17.367   3.151  0.00  0.00    +0.209 HD
ENDBRANCH  19  20
ENDBRANCH  13  19
ENDBRANCH   5  10
BRANCH   8  22
ATOM     22  N   LIG    1       26.341 -16.336   3.001  0.00  0.00    -0.327 N 
ATOM     23  H   LIG    1       26.686 -15.515   3.475  0.00  0.00    +0.145 HD
ATOM     24  H   LIG    1       26.630 -16.474   2.043  0.00  0.00    +0.145 HD
ENDBRANCH   8  22
BRANCH   1  26
ATOM     25  C   LIG    1       29.475 -18.528   7.045  0.00  0.00    +0.279 C 
ATOM     26  O   LIG    1       29.459 -18.508   5.622  0.00  0.00    -0.478 OA
ENDBRANCH   1  26
TORSDOF 7
ENDMDL
MODEL 7
REMARK VINA RESULT:      -1.5      1.764      3.102
REMARK  Name = *****
REMARK                            x       y       z     vdW  Elec       q    Type
REMARK                         _______ _______ _______ _____ _____    ______ ____
ROOT
ATOM      1  C   LIG    1       26.157 -20.454   5.465  0.00  0.00    +0.247 A 
ATOM      2  C   LIG    1       25.722 -19.432   4.615  0.00  0.00    +0.169 A 
ATOM      3  N   LIG    1       24.529 -19.176   3.970  0.00  0.00    -0.229 NA
ATOM      4  C   LIG    1       24.721 -18.039   3.340  0.00  0.00    +0.204 A 
ATOM      5  N   LIG    1       25.986 -17.555   3.531  0.00  0.00    -0.285 N 
ATOM      6  C   LIG    1       26.641 -18.428   4.356  0.00  0.00    +0.171 A 
ATOM      7  N   LIG    1       27.892 -18.330   4.834  0.00  0.00    -0.195 NA
ATOM      8  C   LIG    1       28.213 -19.370   5.620  0.00  0.00    +0.218 A 
ATOM      9  N   LIG    1       27.419 -20.396   5.968  0.00  0.00    -0.178 NA
ENDROOT
BRANCH   5  10
ATOM     10  C1* LIG    1       26.519 -16.318   3.013  0.00  0.00    +0.253 C 
ATOM     11  C2* LIG    1       25.529 -15.152   2.901  0.00  0.00    +0.195 C 
ATOM     12  C3* LIG    1       26.449 -13.954   3.099  0.00  0.00    +0.178 C 
ATOM     13  C4* LIG    1       27.524 -14.464   4.063  0.00  0.00    +0.177 C 
ATOM     14  O4* LIG    1       27.630 -15.888   3.842  0.00  0.00    -0.346 OA
BRANCH  11  15
ATOM     15  O2* LIG    1       24.489 -15.159   3.883  0.00  0.00    -0.385 OA
ATOM     16  H2* LIG    1       23.995 -14.312   3.821  0.00  0.00    +0.210 HD
ENDBRANCH  11  15
BRANCH  12  17
ATOM     17  O3* LIG    1       27.055 -13.595   1.847  0.00  0.00    -0.386 OA
ATOM     18  H3* LIG    1       26.911 -14.308   1.199  0.00  0.00    +0.210 HD
ENDBRANCH  12  17
BRANCH  13  19
ATOM     19  C5* LIG    1       27.239 -14.207   5.549  0.00  0.00    +0.190 C 
BRANCH  19  20
ATOM     20  O5* LIG    1       26.219 -13.226   5.728  0.00  0.00    -0.392 OA
ATOM     21  H5* LIG    1       25.989 -12.894   4.839  0.00  0.00    +0.209 HD
ENDBRANCH  19  20
ENDBRANCH  13  19
ENDBRANCH   5  10
BRANCH   8  22
ATOM     22  N   LIG    1       29.474 -19.359   6.188  0.00  0.00    -0.327 N 
ATOM     23  H   LIG    1       29.403 -19.360   7.195  0.00  0.00    +0.145 HD
ATOM     24  H   LIG    1       30.038 -20.082   5.762  0.00  0.00    +0.145 HD
ENDBRANCH   8  22
BRANCH   1  26
ATOM     25  C   LIG    1       24.338 -21.215   6.759  0.00  0.00    +0.279 C 
ATOM     26  O   LIG    1       25.419 -21.544   5.894  0.00  0.00    -0.478 OA
ENDBRANCH   1  26
TORSDOF 7
ENDMDL
MODEL 8
REMARK VINA RESULT:      -1.3      2.151      6.501
REMARK  Name = *****
REMARK                            x       y       z     vdW  Elec       q    Type
REMARK                         _______ _______ _______ _____ _____    ______ ____
ROOT
ATOM      1  C   LIG    1       24.378 -14.166   4.396  0.00  0.00    +0.247 A 
ATOM      2  C   LIG    1       23.596 -15.324   4.471  0.00  0.00    +0.169 A 
ATOM      3  N   LIG    1       22.328 -15.585   4.948  0.00  0.00    -0.229 NA
ATOM      4  C   LIG    1       22.132 -16.862   4.709  0.00  0.00    +0.204 A 
ATOM      5  N   LIG    1       23.218 -17.445   4.117  0.00  0.00    -0.285 N 
ATOM      6  C   LIG    1       24.165 -16.473   3.944  0.00  0.00    +0.171 A 
ATOM      7  N   LIG    1       25.374 -16.590   3.370  0.00  0.00    -0.195 NA
ATOM      8  C   LIG    1       26.045 -15.428   3.369  0.00  0.00    +0.218 A 
ATOM      9  N   LIG    1       25.611 -14.242   3.827  0.00  0.00    -0.178 NA
ENDROOT
BRANCH   5  10
ATOM     10  C1* LIG    1       23.329 -18.819   3.690  0.00  0.00    +0.253 C 
ATOM     11  C2* LIG    1       24.722 -19.451   3.812  0.00  0.00    +0.195 C 
ATOM     12  C3* LIG    1       24.369 -20.915   4.048  0.00  0.00    +0.178 C 
ATOM     13  C4* LIG    1       23.056 -20.860   4.834  0.00  0.00    +0.177 C 
ATOM     14  O4* LIG    1       22.397 -19.635   4.445  0.00  0.00    -0.346 OA
BRANCH  11  15
ATOM     15  O2* LIG    1       25.514 -18.941   4.887  0.00  0.00    -0.385 OA
ATOM     16  H2* LIG    1       25.015 -19.054   5.726  0.00  0.00    +0.210 HD
ENDBRANCH  11  15
BRANCH  12  17
ATOM     17  O3* LIG    1       24.151 -21.571   2.790  0.00  0.00    -0.386 OA
ATOM     18  H3* LIG    1       23.922 -20.910   2.112  0.00  0.00    +0.210 HD
ENDBRANCH  12  17
BRANCH  13  19
ATOM     19  C5* LIG    1       23.211 -20.882   6.361  0.00  0.00    +0.190 C 
BRANCH  19  20
ATOM     20  O5* LIG    1       24.570 -21.072   6.750  0.00  0.00    -0.392 OA
ATOM     21  H5* LIG    1       24.900 -20.204   7.055  0.00  0.00    +0.209 HD
ENDBRANCH  19  20
ENDBRANCH  13  19
ENDBRANCH   5  10
BRANCH   8  22
ATOM     22  N   LIG    1       27.296 -15.428   2.778  0.00  0.00    -0.327 N 
ATOM     23  H   LIG    1       27.438 -16.283   2.262  0.00  0.00    +0.145 HD
ATOM     24  H   LIG    1       27.430 -14.558   2.282  0.00  0.00    +0.145 HD
ENDBRANCH   8  22
BRANCH   1  26
ATOM     25  C   LIG    1       23.897 -11.941   3.779  0.00  0.00    +0.279 C 
ATOM     26  O   LIG    1       24.022 -12.898   4.825  0.00  0.00    -0.478 OA
ENDBRANCH   1  26
TORSDOF 7
ENDMDL
MODEL 9
REMARK VINA RESULT:      -0.9      1.795      2.587
REMARK  Name = *****
REMARK                            x       y       z     vdW  Elec       q    Type
REMARK                         _______ _______ _______ _____ _____    ______ ____
ROOT
ATOM      1  C   LIG    1       23.043 -19.172   4.700  0.00  0.00    +0.247 A 
ATOM      2  C   LIG    1       23.101 -17.789   4.498  0.00  0.00    +0.169 A 
ATOM      3  N   LIG    1       22.276 -16.741   4.853  0.00  0.00    -0.229 NA
ATOM      4  C   LIG    1       22.884 -15.665   4.409  0.00  0.00    +0.204 A 
ATOM      5  N   LIG    1       24.055 -15.965   3.768  0.00  0.00    -0.285 N 
ATOM      6  C   LIG    1       24.219 -17.322   3.824  0.00  0.00    +0.171 A 
ATOM      7  N   LIG    1       25.245 -18.049   3.353  0.00  0.00    -0.195 NA
ATOM      8  C   LIG    1       25.078 -19.361   3.582  0.00  0.00    +0.218 A 
ATOM      9  N   LIG    1       24.059 -19.946   4.234  0.00  0.00    -0.178 NA
ENDROOT
BRANCH   5  10
ATOM     10  C1* LIG    1       24.984 -15.024   3.192  0.00  0.00    +0.253 C 
ATOM     11  C2* LIG    1       24.605 -13.543   3.315  0.00  0.00    +0.195 C 
ATOM     12  C3* LIG    1       25.978 -12.883   3.360  0.00  0.00    +0.178 C 
ATOM     13  C4* LIG    1       26.862 -13.909   4.075  0.00  0.00    +0.177 C 
ATOM     14  O4* LIG    1       26.291 -15.206   3.796  0.00  0.00    -0.346 OA
BRANCH  11  15
ATOM     15  O2* LIG    1       23.848 -13.217   4.483  0.00  0.00    -0.385 OA
ATOM     16  H2* LIG    1       22.912 -13.474   4.331  0.00  0.00    +0.210 HD
ENDBRANCH  11  15
BRANCH  12  17
ATOM     17  O3* LIG    1       26.463 -12.677   2.024  0.00  0.00    -0.386 OA
ATOM     18  H3* LIG    1       26.468 -13.524   1.544  0.00  0.00    +0.210 HD
ENDBRANCH  12  17
BRANCH  13  19
ATOM     19  C5* LIG    1       26.970 -13.726   5.595  0.00  0.00    +0.190 C 
BRANCH  19  20
ATOM     20  O5* LIG    1       27.994 -12.796   5.943  0.00  0.00    -0.392 OA
ATOM     21  H5* LIG    1       28.835 -13.293   5.948  0.00  0.00    +0.209 HD
ENDBRANCH  19  20
ENDBRANCH  13  19
ENDBRANCH   5  10
BRANCH   8  22
ATOM     22  N   LIG    1       26.090 -20.205   3.159  0.00  0.00    -0.327 N 
ATOM     23  H   LIG    1       26.533 -20.643   3.953  0.00  0.00    +0.145 HD
ATOM     24  H   LIG    1       25.738 -20.810   2.431  0.00  0.00    +0.145 HD
ENDBRANCH   8  22
BRANCH   1  26
ATOM     25  C   LIG    1       22.354 -21.240   5.599  0.00  0.00    +0.279 C 
ATOM     26  O   LIG    1       22.050 -19.870   5.366  0.00  0.00    -0.478 OA
ENDBRANCH   1  26
TORSDOF 7
ENDMDL
