MODEL 1
REMARK VINA RESULT:      -5.8      0.000      0.000
REMARK  Name = *****
REMARK                            x       y       z     vdW  Elec       q    Type
REMARK                         _______ _______ _______ _____ _____    ______ ____
ROOT
ATOM      1  C   LIG    1       25.898 -28.845   5.742  0.00  0.00    +0.008 C 
ATOM      2  C   LIG    1       24.775 -29.752   6.244  0.00  0.00    -0.003 C 
ATOM      3  C   LIG    1       25.230 -31.214   6.438  0.00  0.00    +0.067 C 
ATOM      4  C   LIG    1       25.288 -31.439   7.984  0.00  0.00    -0.017 C 
ATOM      5  C   LIG    1       24.123 -30.561   8.485  0.00  0.00    +0.002 C 
ATOM      6  C   LIG    1       24.108 -30.228   9.994  0.00  0.00    +0.036 C 
ATOM      7  C   LIG    1       25.462 -30.389  10.727  0.00  0.00    +0.153 C 
ATOM      8  C   LIG    1       26.617 -30.033   9.779  0.00  0.00    +0.153 C 
ATOM      9  F   LIG    1       25.620 -31.736  10.987  0.00  0.00    -0.238 F 
ATOM     10  C   LIG    1       25.400 -29.681  12.145  0.00  0.00    +0.047 C 
ATOM     11  C   LIG    1       23.972 -29.838  12.715  0.00  0.00    -0.020 C 
ATOM     12  C   LIG    1       23.366 -28.897  13.460  0.00  0.00    +0.054 C 
ATOM     13  C   LIG    1       24.002 -27.584  13.693  0.00  0.00    +0.179 C 
ATOM     14  C   LIG    1       25.181 -27.261  12.857  0.00  0.00    +0.047 C 
ATOM     15  O   LIG    1       23.538 -26.775  14.481  0.00  0.00    -0.288 OA
ATOM     16  C   LIG    1       23.236 -31.075  12.268  0.00  0.00    +0.194 C 
ATOM     17  F   LIG    1       22.009 -31.174  12.856  0.00  0.00    -0.241 F 
ATOM     18  C   LIG    1       26.367 -30.370  13.139  0.00  0.00    +0.023 C 
ATOM     19  C   LIG    1       25.794 -28.208  12.130  0.00  0.00    -0.009 C 
ATOM     20  C   LIG    1       23.027 -31.045  10.747  0.00  0.00    +0.048 C 
ATOM     21  C   LIG    1       25.094 -32.930   8.332  0.00  0.00    +0.012 C 
ATOM     22  C   LIG    1       26.665 -30.970   8.552  0.00  0.00    +0.042 C 
ATOM     23  C   LIG    1       24.231 -29.294   7.607  0.00  0.00    +0.008 C 
ENDROOT
BRANCH   3  24
ATOM     24  C   LIG    1       24.237 -32.135   5.708  0.00  0.00    +0.162 C 
ATOM     25  O   LIG    1       23.018 -32.070   5.885  0.00  0.00    -0.295 OA
BRANCH  24  26
ATOM     26  C   LIG    1       24.830 -33.169   4.757  0.00  0.00    +0.230 C 
BRANCH  26  27
ATOM     27  O   LIG    1       24.902 -32.705   3.419  0.00  0.00    -0.388 OA
ATOM     28  H   LIG    1       24.293 -33.264   2.897  0.00  0.00    +0.210 HD
ENDBRANCH  26  27
ENDBRANCH  24  26
ENDBRANCH   3  24
BRANCH   8  29
ATOM     29  O   LIG    1       27.890 -30.095  10.423  0.00  0.00    -0.389 OA
ATOM     30  H   LIG    1       28.061 -29.217  10.816  0.00  0.00    +0.210 HD
ENDBRANCH   8  29
TORSDOF 4
ENDMDL
MODEL 2
REMARK VINA RESULT:      -5.7      1.304      1.544
REMARK  Name = *****
REMARK                            x       y       z     vdW  Elec       q    Type
REMARK                         _______ _______ _______ _____ _____    ______ ____
ROOT
ATOM      1  C   LIG    1       25.482 -29.859   6.120  0.00  0.00    +0.008 C 
ATOM      2  C   LIG    1       24.383 -30.388   7.041  0.00  0.00    -0.003 C 
ATOM      3  C   LIG    1       24.682 -31.804   7.576  0.00  0.00    +0.067 C 
ATOM      4  C   LIG    1       25.029 -31.620   9.090  0.00  0.00    -0.017 C 
ATOM      5  C   LIG    1       24.111 -30.449   9.495  0.00  0.00    +0.002 C 
ATOM      6  C   LIG    1       24.449 -29.734  10.823  0.00  0.00    +0.036 C 
ATOM      7  C   LIG    1       25.894 -29.934  11.341  0.00  0.00    +0.153 C 
ATOM      8  C   LIG    1       26.865 -30.051  10.155  0.00  0.00    +0.153 C 
ATOM      9  F   LIG    1       25.933 -31.171  11.953  0.00  0.00    -0.238 F 
ATOM     10  C   LIG    1       26.215 -28.878  12.480  0.00  0.00    +0.047 C 
ATOM     11  C   LIG    1       24.927 -28.624  13.296  0.00  0.00    -0.020 C 
ATOM     12  C   LIG    1       24.609 -27.428  13.822  0.00  0.00    +0.054 C 
ATOM     13  C   LIG    1       25.438 -26.234  13.554  0.00  0.00    +0.179 C 
ATOM     14  C   LIG    1       26.451 -26.357  12.480  0.00  0.00    +0.047 C 
ATOM     15  O   LIG    1       25.251 -25.177  14.136  0.00  0.00    -0.288 OA
ATOM     16  C   LIG    1       23.966 -29.783  13.355  0.00  0.00    +0.194 C 
ATOM     17  F   LIG    1       22.884 -29.505  14.138  0.00  0.00    -0.241 F 
ATOM     18  C   LIG    1       27.272 -29.442  13.460  0.00  0.00    +0.023 C 
ATOM     19  C   LIG    1       26.777 -27.556  11.972  0.00  0.00    -0.009 C 
ATOM     20  C   LIG    1       23.454 -30.119  11.947  0.00  0.00    +0.048 C 
ATOM     21  C   LIG    1       24.728 -32.908   9.884  0.00  0.00    +0.012 C 
ATOM     22  C   LIG    1       26.541 -31.271   9.264  0.00  0.00    +0.042 C 
ATOM     23  C   LIG    1       24.193 -29.498   8.280  0.00  0.00    +0.008 C 
ENDROOT
BRANCH   3  24
ATOM     24  C   LIG    1       23.454 -32.693   7.318  0.00  0.00    +0.162 C 
ATOM     25  O   LIG    1       22.457 -32.675   8.045  0.00  0.00    -0.295 OA
BRANCH  24  26
ATOM     26  C   LIG    1       23.526 -33.634   6.122  0.00  0.00    +0.230 C 
BRANCH  26  27
ATOM     27  O   LIG    1       23.065 -33.033   4.923  0.00  0.00    -0.388 OA
ATOM     28  H   LIG    1       23.211 -33.686   4.209  0.00  0.00    +0.210 HD
ENDBRANCH  26  27
ENDBRANCH  24  26
ENDBRANCH   3  24
BRANCH   8  29
ATOM     29  O   LIG    1       28.225 -30.166  10.573  0.00  0.00    -0.389 OA
ATOM     30  H   LIG    1       28.723 -29.442  10.147  0.00  0.00    +0.210 HD
ENDBRANCH   8  29
TORSDOF 4
ENDMDL
MODEL 3
REMARK VINA RESULT:      -5.5      2.160      3.174
REMARK  Name = *****
REMARK                            x       y       z     vdW  Elec       q    Type
REMARK                         _______ _______ _______ _____ _____    ______ ____
ROOT
ATOM      1  C   LIG    1       25.752 -31.243   7.996  0.00  0.00    +0.008 C 
ATOM      2  C   LIG    1       24.357 -30.994   8.569  0.00  0.00    -0.003 C 
ATOM      3  C   LIG    1       23.910 -32.096   9.552  0.00  0.00    +0.067 C 
ATOM      4  C   LIG    1       23.954 -31.442  10.971  0.00  0.00    -0.017 C 
ATOM      5  C   LIG    1       23.543 -29.986  10.671  0.00  0.00    +0.002 C 
ATOM      6  C   LIG    1       23.842 -28.943  11.772  0.00  0.00    +0.036 C 
ATOM      7  C   LIG    1       24.916 -29.355  12.809  0.00  0.00    +0.153 C 
ATOM      8  C   LIG    1       25.987 -30.227  12.135  0.00  0.00    +0.153 C 
ATOM      9  F   LIG    1       24.297 -30.192  13.716  0.00  0.00    -0.238 F 
ATOM     10  C   LIG    1       25.383 -28.088  13.640  0.00  0.00    +0.047 C 
ATOM     11  C   LIG    1       24.172 -27.146  13.831  0.00  0.00    -0.020 C 
ATOM     12  C   LIG    1       24.274 -25.805  13.847  0.00  0.00    +0.054 C 
ATOM     13  C   LIG    1       25.562 -25.136  13.571  0.00  0.00    +0.179 C 
ATOM     14  C   LIG    1       26.642 -25.982  13.014  0.00  0.00    +0.047 C 
ATOM     15  O   LIG    1       25.707 -23.934  13.723  0.00  0.00    -0.288 OA
ATOM     16  C   LIG    1       22.829 -27.829  13.865  0.00  0.00    +0.194 C 
ATOM     17  F   LIG    1       21.817 -26.943  14.094  0.00  0.00    -0.241 F 
ATOM     18  C   LIG    1       25.860 -28.510  15.051  0.00  0.00    +0.023 C 
ATOM     19  C   LIG    1       26.544 -27.321  13.017  0.00  0.00    -0.009 C 
ATOM     20  C   LIG    1       22.553 -28.522  12.523  0.00  0.00    +0.048 C 
ATOM     21  C   LIG    1       22.973 -32.146  11.932  0.00  0.00    +0.012 C 
ATOM     22  C   LIG    1       25.392 -31.536  11.571  0.00  0.00    +0.042 C 
ATOM     23  C   LIG    1       24.283 -29.673   9.352  0.00  0.00    +0.008 C 
ENDROOT
BRANCH   3  24
ATOM     24  C   LIG    1       22.515 -32.589   9.131  0.00  0.00    +0.162 C 
ATOM     25  O   LIG    1       21.476 -32.038   9.504  0.00  0.00    -0.295 OA
BRANCH  24  26
ATOM     26  C   LIG    1       22.462 -33.825   8.240  0.00  0.00    +0.230 C 
BRANCH  26  27
ATOM     27  O   LIG    1       22.684 -33.523   6.873  0.00  0.00    -0.388 OA
ATOM     28  H   LIG    1       23.589 -33.829   6.662  0.00  0.00    +0.210 HD
ENDBRANCH  26  27
ENDBRANCH  24  26
ENDBRANCH   3  24
BRANCH   8  29
ATOM     29  O   LIG    1       27.043 -30.579  13.029  0.00  0.00    -0.389 OA
ATOM     30  H   LIG    1       27.777 -30.931  12.489  0.00  0.00    +0.210 HD
ENDBRANCH   8  29
TORSDOF 4
ENDMDL
MODEL 4
REMARK VINA RESULT:      -5.4      3.241      4.586
REMARK  Name = *****
REMARK                            x       y       z     vdW  Elec       q    Type
REMARK                         _______ _______ _______ _____ _____    ______ ____
ROOT
ATOM      1  C   LIG    1       23.907 -32.505   8.915  0.00  0.00    +0.008 C 
ATOM      2  C   LIG    1       22.722 -31.687   9.429  0.00  0.00    -0.003 C 
ATOM      3  C   LIG    1       21.993 -32.367  10.607  0.00  0.00    +0.067 C 
ATOM      4  C   LIG    1       22.353 -31.522  11.873  0.00  0.00    -0.017 C 
ATOM      5  C   LIG    1       22.445 -30.094  11.296  0.00  0.00    +0.002 C 
ATOM      6  C   LIG    1       23.155 -29.040  12.175  0.00  0.00    +0.036 C 
ATOM      7  C   LIG    1       24.091 -29.604  13.271  0.00  0.00    +0.153 C 
ATOM      8  C   LIG    1       24.752 -30.901  12.780  0.00  0.00    +0.153 C 
ATOM      9  F   LIG    1       23.286 -29.994  14.324  0.00  0.00    -0.238 F 
ATOM     10  C   LIG    1       25.018 -28.451  13.842  0.00  0.00    +0.047 C 
ATOM     11  C   LIG    1       24.217 -27.128  13.847  0.00  0.00    -0.020 C 
ATOM     12  C   LIG    1       24.771 -25.928  13.603  0.00  0.00    +0.054 C 
ATOM     13  C   LIG    1       26.189 -25.811  13.203  0.00  0.00    +0.179 C 
ATOM     14  C   LIG    1       26.875 -27.066  12.821  0.00  0.00    +0.047 C 
ATOM     15  O   LIG    1       26.746 -24.728  13.119  0.00  0.00    -0.288 OA
ATOM     16  C   LIG    1       22.727 -27.282  14.012  0.00  0.00    +0.194 C 
ATOM     17  F   LIG    1       22.097 -26.074  14.065  0.00  0.00    -0.241 F 
ATOM     18  C   LIG    1       25.415 -28.749  15.308  0.00  0.00    +0.023 C 
ATOM     19  C   LIG    1       26.326 -28.262  13.083  0.00  0.00    -0.009 C 
ATOM     20  C   LIG    1       22.142 -28.067  12.829  0.00  0.00    +0.048 C 
ATOM     21  C   LIG    1       21.258 -31.653  12.952  0.00  0.00    +0.012 C 
ATOM     22  C   LIG    1       23.710 -32.001  12.480  0.00  0.00    +0.042 C 
ATOM     23  C   LIG    1       23.157 -30.304   9.942  0.00  0.00    +0.008 C 
ENDROOT
BRANCH   3  24
ATOM     24  C   LIG    1       20.488 -32.410  10.289  0.00  0.00    +0.162 C 
ATOM     25  O   LIG    1       19.852 -31.409   9.948  0.00  0.00    -0.295 OA
BRANCH  24  26
ATOM     26  C   LIG    1       19.793 -33.758  10.440  0.00  0.00    +0.230 C 
BRANCH  26  27
ATOM     27  O   LIG    1       18.699 -33.712  11.341  0.00  0.00    -0.388 OA
ATOM     28  H   LIG    1       18.894 -32.998  11.981  0.00  0.00    +0.210 HD
ENDBRANCH  26  27
ENDBRANCH  24  26
ENDBRANCH   3  24
BRANCH   8  29
ATOM     29  O   LIG    1       25.682 -31.431  13.725  0.00  0.00    -0.389 OA
ATOM     30  H   LIG    1       25.168 -31.912  14.401  0.00  0.00    +0.210 HD
ENDBRANCH   8  29
TORSDOF 4
ENDMDL
MODEL 5
REMARK VINA RESULT:      -5.3      1.487      1.713
REMARK  Name = *****
REMARK                            x       y       z     vdW  Elec       q    Type
REMARK                         _______ _______ _______ _____ _____    ______ ____
ROOT
ATOM      1  C   LIG    1       24.957 -28.486   6.604  0.00  0.00    +0.008 C 
ATOM      2  C   LIG    1       24.637 -29.845   7.228  0.00  0.00    -0.003 C 
ATOM      3  C   LIG    1       25.899 -30.692   7.491  0.00  0.00    +0.067 C 
ATOM      4  C   LIG    1       26.090 -30.698   9.043  0.00  0.00    -0.017 C 
ATOM      5  C   LIG    1       24.634 -30.684   9.551  0.00  0.00    +0.002 C 
ATOM      6  C   LIG    1       24.423 -30.301  11.033  0.00  0.00    +0.036 C 
ATOM      7  C   LIG    1       25.589 -29.530  11.697  0.00  0.00    +0.153 C 
ATOM      8  C   LIG    1       26.274 -28.622  10.662  0.00  0.00    +0.153 C 
ATOM      9  F   LIG    1       26.548 -30.465  12.035  0.00  0.00    -0.238 F 
ATOM     10  C   LIG    1       25.109 -28.890  13.066  0.00  0.00    +0.047 C 
ATOM     11  C   LIG    1       24.087 -29.842  13.726  0.00  0.00    -0.020 C 
ATOM     12  C   LIG    1       23.031 -29.413  14.441  0.00  0.00    +0.054 C 
ATOM     13  C   LIG    1       22.721 -27.973  14.549  0.00  0.00    +0.179 C 
ATOM     14  C   LIG    1       23.444 -27.067  13.628  0.00  0.00    +0.047 C 
ATOM     15  O   LIG    1       21.859 -27.556  15.307  0.00  0.00    -0.288 OA
ATOM     16  C   LIG    1       24.271 -31.303  13.404  0.00  0.00    +0.194 C 
ATOM     17  F   LIG    1       23.370 -32.084  14.066  0.00  0.00    -0.241 F 
ATOM     18  C   LIG    1       26.300 -28.748  14.046  0.00  0.00    +0.023 C 
ATOM     19  C   LIG    1       24.508 -27.495  12.931  0.00  0.00    -0.009 C 
ATOM     20  C   LIG    1       24.082 -31.540  11.898  0.00  0.00    +0.048 C 
ATOM     21  C   LIG    1       26.861 -31.955   9.498  0.00  0.00    +0.012 C 
ATOM     22  C   LIG    1       26.885 -29.434   9.499  0.00  0.00    +0.042 C 
ATOM     23  C   LIG    1       23.932 -29.702   8.586  0.00  0.00    +0.008 C 
ENDROOT
BRANCH   3  24
ATOM     24  C   LIG    1       25.685 -32.088   6.881  0.00  0.00    +0.162 C 
ATOM     25  O   LIG    1       24.629 -32.714   7.008  0.00  0.00    -0.295 OA
BRANCH  24  26
ATOM     26  C   LIG    1       26.860 -32.693   6.120  0.00  0.00    +0.230 C 
BRANCH  26  27
ATOM     27  O   LIG    1       26.646 -32.725   4.719  0.00  0.00    -0.388 OA
ATOM     28  H   LIG    1       25.779 -33.155   4.578  0.00  0.00    +0.210 HD
ENDBRANCH  26  27
ENDBRANCH  24  26
ENDBRANCH   3  24
BRANCH   8  29
ATOM     29  O   LIG    1       27.315 -27.831  11.235  0.00  0.00    -0.389 OA
ATOM     30  H   LIG    1       27.147 -26.903  10.984  0.00  0.00    +0.210 HD
ENDBRANCH   8  29
TORSDOF 4
ENDMDL
MODEL 6
REMARK VINA RESULT:      -5.3      2.709      6.265
REMARK  Name = *****
REMARK                            x       y       z     vdW  Elec       q    Type
REMARK                         _______ _______ _______ _____ _____    ______ ____
ROOT
ATOM      1  C   LIG    1       19.558 -32.080  10.505  0.00  0.00    +0.008 C 
ATOM      2  C   LIG    1       20.679 -31.509  11.374  0.00  0.00    -0.003 C 
ATOM      3  C   LIG    1       21.684 -32.585  11.834  0.00  0.00    +0.067 C 
ATOM      4  C   LIG    1       22.994 -32.316  11.022  0.00  0.00    -0.017 C 
ATOM      5  C   LIG    1       22.989 -30.779  10.896  0.00  0.00    +0.002 C 
ATOM      6  C   LIG    1       23.928 -30.172   9.829  0.00  0.00    +0.036 C 
ATOM      7  C   LIG    1       24.388 -31.141   8.713  0.00  0.00    +0.153 C 
ATOM      8  C   LIG    1       23.272 -32.151   8.403  0.00  0.00    +0.153 C 
ATOM      9  F   LIG    1       25.415 -31.900   9.240  0.00  0.00    -0.238 F 
ATOM     10  C   LIG    1       25.027 -30.325   7.513  0.00  0.00    +0.047 C 
ATOM     11  C   LIG    1       25.770 -29.098   8.088  0.00  0.00    -0.020 C 
ATOM     12  C   LIG    1       25.829 -27.909   7.461  0.00  0.00    +0.054 C 
ATOM     13  C   LIG    1       25.081 -27.671   6.209  0.00  0.00    +0.179 C 
ATOM     14  C   LIG    1       24.069 -28.686   5.838  0.00  0.00    +0.047 C 
ATOM     15  O   LIG    1       25.236 -26.654   5.552  0.00  0.00    -0.288 OA
ATOM     16  C   LIG    1       26.320 -29.276   9.479  0.00  0.00    +0.194 C 
ATOM     17  F   LIG    1       27.010 -28.175   9.895  0.00  0.00    -0.241 F 
ATOM     18  C   LIG    1       26.076 -31.186   6.769  0.00  0.00    +0.023 C 
ATOM     19  C   LIG    1       24.025 -29.877   6.454  0.00  0.00    -0.009 C 
ATOM     20  C   LIG    1       25.176 -29.518  10.474  0.00  0.00    +0.048 C 
ATOM     21  C   LIG    1       24.230 -32.843  11.781  0.00  0.00    +0.012 C 
ATOM     22  C   LIG    1       22.926 -33.022   9.630  0.00  0.00    +0.042 C 
ATOM     23  C   LIG    1       21.504 -30.450  10.625  0.00  0.00    +0.008 C 
ENDROOT
BRANCH   3  24
ATOM     24  C   LIG    1       21.858 -32.470  13.358  0.00  0.00    +0.162 C 
ATOM     25  O   LIG    1       21.966 -31.385  13.935  0.00  0.00    -0.295 OA
BRANCH  24  26
ATOM     26  C   LIG    1       21.919 -33.776  14.143  0.00  0.00    +0.230 C 
BRANCH  26  27
ATOM     27  O   LIG    1       22.992 -33.810  15.068  0.00  0.00    -0.388 OA
ATOM     28  H   LIG    1       23.498 -34.626  14.880  0.00  0.00    +0.210 HD
ENDBRANCH  26  27
ENDBRANCH  24  26
ENDBRANCH   3  24
BRANCH   8  29
ATOM     29  O   LIG    1       23.614 -33.029   7.330  0.00  0.00    -0.389 OA
ATOM     30  H   LIG    1       22.991 -33.779   7.358  0.00  0.00    +0.210 HD
ENDBRANCH   8  29
TORSDOF 4
ENDMDL
MODEL 7
REMARK VINA RESULT:      -5.3      1.839      6.899
REMARK  Name = *****
REMARK                            x       y       z     vdW  Elec       q    Type
REMARK                         _______ _______ _______ _____ _____    ______ ____
ROOT
ATOM      1  C   LIG    1       22.726 -30.982  13.745  0.00  0.00    +0.008 C 
ATOM      2  C   LIG    1       22.979 -29.786  12.828  0.00  0.00    -0.003 C 
ATOM      3  C   LIG    1       24.421 -29.247  12.933  0.00  0.00    +0.067 C 
ATOM      4  C   LIG    1       25.125 -29.655  11.597  0.00  0.00    -0.017 C 
ATOM      5  C   LIG    1       23.972 -29.556  10.578  0.00  0.00    +0.002 C 
ATOM      6  C   LIG    1       24.193 -30.252   9.216  0.00  0.00    +0.036 C 
ATOM      7  C   LIG    1       25.290 -31.343   9.193  0.00  0.00    +0.153 C 
ATOM      8  C   LIG    1       25.338 -32.067  10.548  0.00  0.00    +0.153 C 
ATOM      9  F   LIG    1       26.504 -30.690   9.099  0.00  0.00    -0.238 F 
ATOM     10  C   LIG    1       25.165 -32.213   7.873  0.00  0.00    +0.047 C 
ATOM     11  C   LIG    1       24.693 -31.299   6.720  0.00  0.00    -0.020 C 
ATOM     12  C   LIG    1       23.874 -31.712   5.737  0.00  0.00    +0.054 C 
ATOM     13  C   LIG    1       23.279 -33.064   5.760  0.00  0.00    +0.179 C 
ATOM     14  C   LIG    1       23.401 -33.820   7.027  0.00  0.00    +0.047 C 
ATOM     15  O   LIG    1       22.653 -33.507   4.810  0.00  0.00    -0.288 OA
ATOM     16  C   LIG    1       25.106 -29.854   6.838  0.00  0.00    +0.194 C 
ATOM     17  F   LIG    1       24.705 -29.123   5.758  0.00  0.00    -0.241 F 
ATOM     18  C   LIG    1       26.546 -32.785   7.467  0.00  0.00    +0.023 C 
ATOM     19  C   LIG    1       24.234 -33.414   7.998  0.00  0.00    -0.009 C 
ATOM     20  C   LIG    1       24.480 -29.225   8.091  0.00  0.00    +0.048 C 
ATOM     21  C   LIG    1       26.286 -28.694  11.271  0.00  0.00    +0.012 C 
ATOM     22  C   LIG    1       25.695 -31.106  11.703  0.00  0.00    +0.042 C 
ATOM     23  C   LIG    1       22.767 -30.142  11.347  0.00  0.00    +0.008 C 
ENDROOT
BRANCH   3  24
ATOM     24  C   LIG    1       24.358 -27.728  13.170  0.00  0.00    +0.162 C 
ATOM     25  O   LIG    1       23.367 -27.052  12.884  0.00  0.00    -0.295 OA
BRANCH  24  26
ATOM     26  C   LIG    1       25.603 -27.073  13.758  0.00  0.00    +0.230 C 
BRANCH  26  27
ATOM     27  O   LIG    1       25.711 -25.701  13.419  0.00  0.00    -0.388 OA
ATOM     28  H   LIG    1       25.154 -25.564  12.627  0.00  0.00    +0.210 HD
ENDBRANCH  26  27
ENDBRANCH  24  26
ENDBRANCH   3  24
BRANCH   8  29
ATOM     29  O   LIG    1       26.286 -33.134  10.562  0.00  0.00    -0.389 OA
ATOM     30  H   LIG    1       26.197 -33.592  11.420  0.00  0.00    +0.210 HD
ENDBRANCH   8  29
TORSDOF 4
ENDMDL
MODEL 8
REMARK VINA RESULT:      -5.2      4.381      5.875
REMARK  Name = *****
REMARK                            x       y       z     vdW  Elec       q    Type
REMARK                         _______ _______ _______ _____ _____    ______ ____
ROOT
ATOM      1  C   LIG    1       20.893 -33.394  10.041  0.00  0.00    +0.008 C 
ATOM      2  C   LIG    1       20.177 -32.060  10.249  0.00  0.00    -0.003 C 
ATOM      3  C   LIG    1       19.254 -32.064  11.485  0.00  0.00    +0.067 C 
ATOM      4  C   LIG    1       19.963 -31.162  12.547  0.00  0.00    -0.017 C 
ATOM      5  C   LIG    1       20.639 -30.091  11.667  0.00  0.00    +0.002 C 
ATOM      6  C   LIG    1       21.747 -29.246  12.337  0.00  0.00    +0.036 C 
ATOM      7  C   LIG    1       22.379 -29.860  13.610  0.00  0.00    +0.153 C 
ATOM      8  C   LIG    1       22.418 -31.392  13.489  0.00  0.00    +0.153 C 
ATOM      9  F   LIG    1       21.506 -29.610  14.651  0.00  0.00    -0.238 F 
ATOM     10  C   LIG    1       23.718 -29.095  13.976  0.00  0.00    +0.047 C 
ATOM     11  C   LIG    1       23.553 -27.603  13.607  0.00  0.00    -0.020 C 
ATOM     12  C   LIG    1       24.558 -26.841  13.141  0.00  0.00    +0.054 C 
ATOM     13  C   LIG    1       25.883 -27.425  12.848  0.00  0.00    +0.179 C 
ATOM     14  C   LIG    1       25.966 -28.903  12.826  0.00  0.00    +0.047 C 
ATOM     15  O   LIG    1       26.845 -26.728  12.565  0.00  0.00    -0.288 OA
ATOM     16  C   LIG    1       22.141 -27.079  13.675  0.00  0.00    +0.194 C 
ATOM     17  F   LIG    1       22.083 -25.745  13.393  0.00  0.00    -0.241 F 
ATOM     18  C   LIG    1       23.982 -29.161  15.500  0.00  0.00    +0.023 C 
ATOM     19  C   LIG    1       24.967 -29.659  13.309  0.00  0.00    -0.009 C 
ATOM     20  C   LIG    1       21.255 -27.813  12.659  0.00  0.00    +0.048 C 
ATOM     21  C   LIG    1       18.938 -30.558  13.530  0.00  0.00    +0.012 C 
ATOM     22  C   LIG    1       21.002 -31.996  13.363  0.00  0.00    +0.042 C 
ATOM     23  C   LIG    1       21.167 -30.903  10.464  0.00  0.00    +0.008 C 
ENDROOT
BRANCH   3  24
ATOM     24  C   LIG    1       17.866 -31.555  11.058  0.00  0.00    +0.162 C 
ATOM     25  O   LIG    1       16.973 -31.299  11.870  0.00  0.00    -0.295 OA
BRANCH  24  26
ATOM     26  C   LIG    1       17.621 -31.400   9.561  0.00  0.00    +0.230 C 
BRANCH  26  27
ATOM     27  O   LIG    1       17.657 -30.048   9.137  0.00  0.00    -0.388 OA
ATOM     28  H   LIG    1       18.347 -29.606   9.672  0.00  0.00    +0.210 HD
ENDBRANCH  26  27
ENDBRANCH  24  26
ENDBRANCH   3  24
BRANCH   8  29
ATOM     29  O   LIG    1       23.056 -32.010  14.607  0.00  0.00    -0.389 OA
ATOM     30  H   LIG    1       22.716 -32.924  14.668  0.00  0.00    +0.210 HD
ENDBRANCH   8  29
TORSDOF 4
ENDMDL
MODEL 9
REMARK VINA RESULT:      -5.1      1.820      2.325
REMARK  Name = *****
REMARK                            x       y       z     vdW  Elec       q    Type
REMARK                         _______ _______ _______ _____ _____    ______ ____
ROOT
ATOM      1  C   LIG    1       26.117 -28.075   7.317  0.00  0.00    +0.008 C 
ATOM      2  C   LIG    1       25.176 -29.279   7.313  0.00  0.00    -0.003 C 
ATOM      3  C   LIG    1       25.864 -30.577   7.784  0.00  0.00    +0.067 C 
ATOM      4  C   LIG    1       25.273 -30.880   9.200  0.00  0.00    -0.017 C 
ATOM      5  C   LIG    1       23.821 -30.378   9.062  0.00  0.00    +0.002 C 
ATOM      6  C   LIG    1       23.037 -30.162  10.376  0.00  0.00    +0.036 C 
ATOM      7  C   LIG    1       23.900 -30.005  11.651  0.00  0.00    +0.153 C 
ATOM      8  C   LIG    1       25.218 -29.293  11.308  0.00  0.00    +0.153 C 
ATOM      9  F   LIG    1       24.276 -31.276  12.040  0.00  0.00    -0.238 F 
ATOM     10  C   LIG    1       23.018 -29.434  12.839  0.00  0.00    +0.047 C 
ATOM     11  C   LIG    1       21.586 -30.002  12.709  0.00  0.00    -0.020 C 
ATOM     12  C   LIG    1       20.482 -29.307  13.037  0.00  0.00    +0.054 C 
ATOM     13  C   LIG    1       20.570 -27.890  13.448  0.00  0.00    +0.179 C 
ATOM     14  C   LIG    1       21.865 -27.212  13.218  0.00  0.00    +0.047 C 
ATOM     15  O   LIG    1       19.603 -27.288  13.887  0.00  0.00    -0.288 OA
ATOM     16  C   LIG    1       21.491 -31.358  12.057  0.00  0.00    +0.194 C 
ATOM     17  F   LIG    1       20.207 -31.817  12.031  0.00  0.00    -0.241 F 
ATOM     18  C   LIG    1       23.574 -29.906  14.204  0.00  0.00    +0.023 C 
ATOM     19  C   LIG    1       22.968 -27.912  12.909  0.00  0.00    -0.009 C 
ATOM     20  C   LIG    1       21.994 -31.284  10.608  0.00  0.00    +0.048 C 
ATOM     21  C   LIG    1       25.348 -32.388   9.517  0.00  0.00    +0.012 C 
ATOM     22  C   LIG    1       26.064 -30.101  10.299  0.00  0.00    +0.042 C 
ATOM     23  C   LIG    1       23.974 -29.073   8.249  0.00  0.00    +0.008 C 
ENDROOT
BRANCH   3  24
ATOM     24  C   LIG    1       25.594 -31.678   6.744  0.00  0.00    +0.162 C 
ATOM     25  O   LIG    1       26.116 -32.794   6.807  0.00  0.00    -0.295 OA
BRANCH  24  26
ATOM     26  C   LIG    1       24.659 -31.322   5.594  0.00  0.00    +0.230 C 
BRANCH  26  27
ATOM     27  O   LIG    1       23.315 -31.695   5.846  0.00  0.00    -0.388 OA
ATOM     28  H   LIG    1       23.028 -31.192   6.634  0.00  0.00    +0.210 HD
ENDBRANCH  26  27
ENDBRANCH  24  26
ENDBRANCH   3  24
BRANCH   8  29
ATOM     29  O   LIG    1       26.026 -29.058  12.461  0.00  0.00    -0.389 OA
ATOM     30  H   LIG    1       26.061 -29.892  12.968  0.00  0.00    +0.210 HD
ENDBRANCH   8  29
TORSDOF 4
ENDMDL
