MODEL 1
REMARK VINA RESULT:      -3.6      0.000      0.000
REMARK  Name = *****
REMARK                            x       y       z     vdW  Elec       q    Type
REMARK                         _______ _______ _______ _____ _____    ______ ____
ROOT
ATOM      1  N   LIG    1       24.406 -17.461   4.221  0.00  0.00    -0.284 N 
ATOM      2  H   LIG    1       23.623 -16.841   4.369  0.00  0.00    +0.155 HD
ATOM      3  C   LIG    1       25.378 -16.947   3.369  0.00  0.00    +0.234 C 
ATOM      4  O   LIG    1       26.121 -17.620   2.655  0.00  0.00    -0.274 OA
ENDROOT
BRANCH   1   7
ATOM      5  C   LIG    1       21.656 -18.300   4.170  0.00  0.00    +0.045 C 
ATOM      6  C   LIG    1       22.794 -19.264   4.371  0.00  0.00    -0.029 A 
ATOM      7  C   LIG    1       24.146 -18.844   4.388  0.00  0.00    +0.039 A 
ATOM      8  C   LIG    1       25.168 -19.792   4.614  0.00  0.00    -0.029 A 
ATOM      9  C   LIG    1       26.618 -19.435   4.811  0.00  0.00    +0.045 C 
ATOM     10  C   LIG    1       24.830 -21.154   4.702  0.00  0.00    +0.005 A 
ATOM     11  C   LIG    1       23.506 -21.572   4.629  0.00  0.00    +0.001 A 
ATOM     12  C   LIG    1       22.493 -20.631   4.480  0.00  0.00    +0.005 A 
ENDBRANCH   1   7
BRANCH   3  13
ATOM     13  C   LIG    1       25.406 -15.396   3.372  0.00  0.00    +0.143 C 
ATOM     14  N   LIG    1       26.449 -14.876   4.298  0.00  0.00    -0.295 NA
ATOM     15  C   LIG    1       27.798 -15.295   3.919  0.00  0.00    +0.105 C 
ATOM     16  C   LIG    1       26.396 -13.410   4.406  0.00  0.00    +0.085 C 
ATOM     17  C   LIG    1       25.022 -12.920   4.859  0.00  0.00    +0.015 C 
ATOM     18  C   LIG    1       23.932 -13.408   3.916  0.00  0.00    +0.003 C 
ATOM     19  C   LIG    1       24.001 -14.922   3.779  0.00  0.00    +0.028 C 
ENDBRANCH   3  13
TORSDOF 2
ENDMDL
MODEL 2
REMARK VINA RESULT:      -3.6      1.870      6.084
REMARK  Name = *****
REMARK                            x       y       z     vdW  Elec       q    Type
REMARK                         _______ _______ _______ _____ _____    ______ ____
ROOT
ATOM      1  N   LIG    1       26.602 -16.011   4.090  0.00  0.00    -0.284 N 
ATOM      2  H   LIG    1       27.523 -15.850   4.473  0.00  0.00    +0.155 HD
ATOM      3  C   LIG    1       26.443 -17.269   3.518  0.00  0.00    +0.234 C 
ATOM      4  O   LIG    1       25.673 -17.534   2.596  0.00  0.00    -0.274 OA
ENDROOT
BRANCH   1   7
ATOM      5  C   LIG    1       28.133 -13.790   3.090  0.00  0.00    +0.045 C 
ATOM      6  C   LIG    1       26.631 -13.758   3.199  0.00  0.00    -0.029 A 
ATOM      7  C   LIG    1       25.885 -14.857   3.686  0.00  0.00    +0.039 A 
ATOM      8  C   LIG    1       24.481 -14.754   3.796  0.00  0.00    -0.029 A 
ATOM      9  C   LIG    1       23.608 -15.795   4.446  0.00  0.00    +0.045 C 
ATOM     10  C   LIG    1       23.840 -13.600   3.310  0.00  0.00    +0.005 A 
ATOM     11  C   LIG    1       24.571 -12.542   2.780  0.00  0.00    +0.001 A 
ATOM     12  C   LIG    1       25.958 -12.614   2.739  0.00  0.00    +0.005 A 
ENDBRANCH   1   7
BRANCH   3  13
ATOM     13  C   LIG    1       27.389 -18.326   4.145  0.00  0.00    +0.143 C 
ATOM     14  N   LIG    1       26.651 -19.237   5.062  0.00  0.00    -0.295 NA
ATOM     15  C   LIG    1       25.604 -19.997   4.379  0.00  0.00    +0.105 C 
ATOM     16  C   LIG    1       27.560 -20.159   5.759  0.00  0.00    +0.085 C 
ATOM     17  C   LIG    1       28.639 -19.413   6.542  0.00  0.00    +0.015 C 
ATOM     18  C   LIG    1       29.437 -18.494   5.628  0.00  0.00    +0.003 C 
ATOM     19  C   LIG    1       28.497 -17.557   4.883  0.00  0.00    +0.028 C 
ENDBRANCH   3  13
TORSDOF 2
ENDMDL
MODEL 3
REMARK VINA RESULT:      -3.3      1.252      6.085
REMARK  Name = *****
REMARK                            x       y       z     vdW  Elec       q    Type
REMARK                         _______ _______ _______ _____ _____    ______ ____
ROOT
ATOM      1  N   LIG    1       24.947 -17.031   4.129  0.00  0.00    -0.284 N 
ATOM      2  H   LIG    1       24.818 -17.208   5.115  0.00  0.00    +0.155 HD
ATOM      3  C   LIG    1       25.094 -18.184   3.365  0.00  0.00    +0.234 C 
ATOM      4  O   LIG    1       25.730 -18.259   2.313  0.00  0.00    -0.274 OA
ENDROOT
BRANCH   1   7
ATOM      5  C   LIG    1       27.816 -16.852   4.041  0.00  0.00    +0.045 C 
ATOM      6  C   LIG    1       26.920 -15.677   3.750  0.00  0.00    -0.029 A 
ATOM      7  C   LIG    1       25.509 -15.775   3.790  0.00  0.00    +0.039 A 
ATOM      8  C   LIG    1       24.723 -14.629   3.541  0.00  0.00    -0.029 A 
ATOM      9  C   LIG    1       23.227 -14.580   3.712  0.00  0.00    +0.045 C 
ATOM     10  C   LIG    1       25.357 -13.437   3.144  0.00  0.00    +0.005 A 
ATOM     11  C   LIG    1       26.742 -13.358   3.051  0.00  0.00    +0.001 A 
ATOM     12  C   LIG    1       27.519 -14.466   3.368  0.00  0.00    +0.005 A 
ENDBRANCH   1   7
BRANCH   3  13
ATOM     13  C   LIG    1       24.396 -19.411   4.007  0.00  0.00    +0.143 C 
ATOM     14  N   LIG    1       23.216 -19.001   4.814  0.00  0.00    -0.295 NA
ATOM     15  C   LIG    1       22.189 -18.336   4.013  0.00  0.00    +0.105 C 
ATOM     16  C   LIG    1       22.625 -20.142   5.531  0.00  0.00    +0.085 C 
ATOM     17  C   LIG    1       23.643 -20.837   6.434  0.00  0.00    +0.015 C 
ATOM     18  C   LIG    1       24.853 -21.300   5.634  0.00  0.00    +0.003 C 
ATOM     19  C   LIG    1       25.450 -20.127   4.868  0.00  0.00    +0.028 C 
ENDBRANCH   3  13
TORSDOF 2
ENDMDL
MODEL 4
REMARK VINA RESULT:      -3.3      1.352      2.500
REMARK  Name = *****
REMARK                            x       y       z     vdW  Elec       q    Type
REMARK                         _______ _______ _______ _____ _____    ______ ____
ROOT
ATOM      1  N   LIG    1       24.550 -17.672   3.583  0.00  0.00    -0.284 N 
ATOM      2  H   LIG    1       25.479 -17.812   3.213  0.00  0.00    +0.155 HD
ATOM      3  C   LIG    1       24.275 -16.352   3.926  0.00  0.00    +0.234 C 
ATOM      4  O   LIG    1       23.489 -15.999   4.805  0.00  0.00    -0.274 OA
ENDROOT
BRANCH   1   7
ATOM      5  C   LIG    1       26.305 -19.707   4.606  0.00  0.00    +0.045 C 
ATOM      6  C   LIG    1       24.806 -19.806   4.702  0.00  0.00    -0.029 A 
ATOM      7  C   LIG    1       23.949 -18.796   4.201  0.00  0.00    +0.039 A 
ATOM      8  C   LIG    1       22.550 -18.962   4.290  0.00  0.00    -0.029 A 
ATOM      9  C   LIG    1       21.550 -18.034   3.652  0.00  0.00    +0.045 C 
ATOM     10  C   LIG    1       22.035 -20.075   4.980  0.00  0.00    +0.005 A 
ATOM     11  C   LIG    1       22.880 -21.038   5.521  0.00  0.00    +0.001 A 
ATOM     12  C   LIG    1       24.256 -20.912   5.369  0.00  0.00    +0.005 A 
ENDBRANCH   1   7
BRANCH   3  13
ATOM     13  C   LIG    1       25.111 -15.340   3.100  0.00  0.00    +0.143 C 
ATOM     14  N   LIG    1       26.474 -15.170   3.671  0.00  0.00    -0.295 NA
ATOM     15  C   LIG    1       27.244 -16.414   3.671  0.00  0.00    +0.105 C 
ATOM     16  C   LIG    1       27.228 -14.119   2.973  0.00  0.00    +0.085 C 
ATOM     17  C   LIG    1       26.495 -12.779   2.997  0.00  0.00    +0.015 C 
ATOM     18  C   LIG    1       25.106 -12.908   2.389  0.00  0.00    +0.003 C 
ATOM     19  C   LIG    1       24.332 -14.015   3.091  0.00  0.00    +0.028 C 
ENDBRANCH   3  13
TORSDOF 2
ENDMDL
MODEL 5
REMARK VINA RESULT:      -3.2      1.225      6.112
REMARK  Name = *****
REMARK                            x       y       z     vdW  Elec       q    Type
REMARK                         _______ _______ _______ _____ _____    ______ ____
ROOT
ATOM      1  N   LIG    1       24.975 -16.310   4.213  0.00  0.00    -0.284 N 
ATOM      2  H   LIG    1       24.853 -16.323   5.215  0.00  0.00    +0.155 HD
ATOM      3  C   LIG    1       25.058 -17.574   3.639  0.00  0.00    +0.234 C 
ATOM      4  O   LIG    1       25.673 -17.845   2.608  0.00  0.00    -0.274 OA
ENDROOT
BRANCH   1   7
ATOM      5  C   LIG    1       27.849 -16.205   4.243  0.00  0.00    +0.045 C 
ATOM      6  C   LIG    1       27.002 -15.089   3.691  0.00  0.00    -0.029 A 
ATOM      7  C   LIG    1       25.588 -15.151   3.674  0.00  0.00    +0.039 A 
ATOM      8  C   LIG    1       24.848 -14.057   3.174  0.00  0.00    -0.029 A 
ATOM      9  C   LIG    1       23.348 -13.949   3.255  0.00  0.00    +0.045 C 
ATOM     10  C   LIG    1       25.534 -12.974   2.596  0.00  0.00    +0.005 A 
ATOM     11  C   LIG    1       26.924 -12.940   2.563  0.00  0.00    +0.001 A 
ATOM     12  C   LIG    1       27.653 -13.983   3.121  0.00  0.00    +0.005 A 
ENDBRANCH   1   7
BRANCH   3  13
ATOM     13  C   LIG    1       24.314 -18.651   4.473  0.00  0.00    +0.143 C 
ATOM     14  N   LIG    1       24.971 -19.980   4.350  0.00  0.00    -0.295 NA
ATOM     15  C   LIG    1       26.348 -19.977   4.844  0.00  0.00    +0.105 C 
ATOM     16  C   LIG    1       24.201 -21.031   5.031  0.00  0.00    +0.085 C 
ATOM     17  C   LIG    1       22.769 -21.120   4.507  0.00  0.00    +0.015 C 
ATOM     18  C   LIG    1       22.055 -19.783   4.648  0.00  0.00    +0.003 C 
ATOM     19  C   LIG    1       22.863 -18.687   3.968  0.00  0.00    +0.028 C 
ENDBRANCH   3  13
TORSDOF 2
ENDMDL
MODEL 6
REMARK VINA RESULT:      -2.9      0.977      1.750
REMARK  Name = *****
REMARK                            x       y       z     vdW  Elec       q    Type
REMARK                         _______ _______ _______ _____ _____    ______ ____
ROOT
ATOM      1  N   LIG    1       24.481 -17.516   4.420  0.00  0.00    -0.284 N 
ATOM      2  H   LIG    1       23.788 -16.870   4.768  0.00  0.00    +0.155 HD
ATOM      3  C   LIG    1       25.368 -16.953   3.508  0.00  0.00    +0.234 C 
ATOM      4  O   LIG    1       25.938 -17.564   2.605  0.00  0.00    -0.274 OA
ENDROOT
BRANCH   1   7
ATOM      5  C   LIG    1       21.686 -18.143   4.170  0.00  0.00    +0.045 C 
ATOM      6  C   LIG    1       22.745 -19.203   4.319  0.00  0.00    -0.029 A 
ATOM      7  C   LIG    1       24.120 -18.886   4.435  0.00  0.00    +0.039 A 
ATOM      8  C   LIG    1       25.062 -19.923   4.606  0.00  0.00    -0.029 A 
ATOM      9  C   LIG    1       26.522 -19.694   4.898  0.00  0.00    +0.045 C 
ATOM     10  C   LIG    1       24.628 -21.259   4.541  0.00  0.00    +0.005 A 
ATOM     11  C   LIG    1       23.283 -21.570   4.371  0.00  0.00    +0.001 A 
ATOM     12  C   LIG    1       22.346 -20.549   4.276  0.00  0.00    +0.005 A 
ENDBRANCH   1   7
BRANCH   3  13
ATOM     13  C   LIG    1       25.540 -15.425   3.718  0.00  0.00    +0.143 C 
ATOM     14  N   LIG    1       24.259 -14.701   3.499  0.00  0.00    -0.295 NA
ATOM     15  C   LIG    1       23.211 -15.114   4.432  0.00  0.00    +0.105 C 
ATOM     16  C   LIG    1       24.441 -13.243   3.569  0.00  0.00    +0.085 C 
ATOM     17  C   LIG    1       25.484 -12.750   2.567  0.00  0.00    +0.015 C 
ATOM     18  C   LIG    1       26.819 -13.447   2.784  0.00  0.00    +0.003 C 
ATOM     19  C   LIG    1       26.630 -14.957   2.740  0.00  0.00    +0.028 C 
ENDBRANCH   3  13
TORSDOF 2
ENDMDL
MODEL 7
REMARK VINA RESULT:      -2.8      1.229      5.767
REMARK  Name = *****
REMARK                            x       y       z     vdW  Elec       q    Type
REMARK                         _______ _______ _______ _____ _____    ______ ____
ROOT
ATOM      1  N   LIG    1       24.930 -16.241   4.214  0.00  0.00    -0.284 N 
ATOM      2  H   LIG    1       24.736 -16.234   5.204  0.00  0.00    +0.155 HD
ATOM      3  C   LIG    1       25.015 -17.517   3.666  0.00  0.00    +0.234 C 
ATOM      4  O   LIG    1       25.694 -17.824   2.687  0.00  0.00    -0.274 OA
ENDROOT
BRANCH   1   7
ATOM      5  C   LIG    1       23.336 -14.119   3.108  0.00  0.00    +0.045 C 
ATOM      6  C   LIG    1       24.840 -14.065   3.153  0.00  0.00    -0.029 A 
ATOM      7  C   LIG    1       25.617 -15.111   3.705  0.00  0.00    +0.039 A 
ATOM      8  C   LIG    1       27.026 -15.017   3.687  0.00  0.00    -0.029 A 
ATOM      9  C   LIG    1       27.949 -16.134   4.098  0.00  0.00    +0.045 C 
ATOM     10  C   LIG    1       27.627 -13.832   3.226  0.00  0.00    +0.005 A 
ATOM     11  C   LIG    1       26.858 -12.781   2.735  0.00  0.00    +0.001 A 
ATOM     12  C   LIG    1       25.475 -12.903   2.685  0.00  0.00    +0.005 A 
ENDBRANCH   1   7
BRANCH   3  13
ATOM     13  C   LIG    1       24.179 -18.556   4.459  0.00  0.00    +0.143 C 
ATOM     14  N   LIG    1       24.747 -19.925   4.323  0.00  0.00    -0.295 NA
ATOM     15  C   LIG    1       26.108 -20.025   4.850  0.00  0.00    +0.105 C 
ATOM     16  C   LIG    1       23.890 -20.934   4.963  0.00  0.00    +0.085 C 
ATOM     17  C   LIG    1       22.469 -20.914   4.403  0.00  0.00    +0.015 C 
ATOM     18  C   LIG    1       21.844 -19.535   4.555  0.00  0.00    +0.003 C 
ATOM     19  C   LIG    1       22.742 -18.484   3.919  0.00  0.00    +0.028 C 
ENDBRANCH   3  13
TORSDOF 2
ENDMDL
MODEL 8
REMARK VINA RESULT:      -2.7      1.207      5.736
REMARK  Name = *****
REMARK                            x       y       z     vdW  Elec       q    Type
REMARK                         _______ _______ _______ _____ _____    ______ ____
ROOT
ATOM      1  N   LIG    1       24.850 -17.016   4.144  0.00  0.00    -0.284 N 
ATOM      2  H   LIG    1       24.618 -17.196   5.110  0.00  0.00    +0.155 HD
ATOM      3  C   LIG    1       25.020 -18.166   3.381  0.00  0.00    +0.234 C 
ATOM      4  O   LIG    1       25.751 -18.260   2.395  0.00  0.00    -0.274 OA
ENDROOT
BRANCH   1   7
ATOM      5  C   LIG    1       23.176 -14.727   3.663  0.00  0.00    +0.045 C 
ATOM      6  C   LIG    1       24.679 -14.653   3.634  0.00  0.00    -0.029 A 
ATOM      7  C   LIG    1       25.496 -15.783   3.879  0.00  0.00    +0.039 A 
ATOM      8  C   LIG    1       26.901 -15.657   3.805  0.00  0.00    -0.029 A 
ATOM      9  C   LIG    1       27.856 -16.819   3.888  0.00  0.00    +0.045 C 
ATOM     10  C   LIG    1       27.464 -14.384   3.603  0.00  0.00    +0.005 A 
ATOM     11  C   LIG    1       26.660 -13.264   3.419  0.00  0.00    +0.001 A 
ATOM     12  C   LIG    1       25.277 -13.401   3.418  0.00  0.00    +0.005 A 
ENDBRANCH   1   7
BRANCH   3  13
ATOM     13  C   LIG    1       24.210 -19.367   3.935  0.00  0.00    +0.143 C 
ATOM     14  N   LIG    1       23.042 -18.909   4.735  0.00  0.00    -0.295 NA
ATOM     15  C   LIG    1       22.094 -18.121   3.948  0.00  0.00    +0.105 C 
ATOM     16  C   LIG    1       22.343 -20.036   5.371  0.00  0.00    +0.085 C 
ATOM     17  C   LIG    1       23.277 -20.859   6.257  0.00  0.00    +0.015 C 
ATOM     18  C   LIG    1       24.469 -21.372   5.462  0.00  0.00    +0.003 C 
ATOM     19  C   LIG    1       25.178 -20.212   4.780  0.00  0.00    +0.028 C 
ENDBRANCH   3  13
TORSDOF 2
ENDMDL
MODEL 9
REMARK VINA RESULT:      -2.5      1.344      1.411
REMARK  Name = *****
REMARK                            x       y       z     vdW  Elec       q    Type
REMARK                         _______ _______ _______ _____ _____    ______ ____
ROOT
ATOM      1  N   LIG    1       24.495 -17.794   3.632  0.00  0.00    -0.284 N 
ATOM      2  H   LIG    1       25.413 -17.900   3.226  0.00  0.00    +0.155 HD
ATOM      3  C   LIG    1       24.189 -16.489   4.003  0.00  0.00    +0.234 C 
ATOM      4  O   LIG    1       23.426 -16.172   4.915  0.00  0.00    -0.274 OA
ENDROOT
BRANCH   1   7
ATOM      5  C   LIG    1       21.629 -18.009   3.744  0.00  0.00    +0.045 C 
ATOM      6  C   LIG    1       22.544 -19.056   4.322  0.00  0.00    -0.029 A 
ATOM      7  C   LIG    1       23.954 -18.945   4.258  0.00  0.00    +0.039 A 
ATOM      8  C   LIG    1       24.759 -19.943   4.849  0.00  0.00    -0.029 A 
ATOM      9  C   LIG    1       26.257 -19.849   4.979  0.00  0.00    +0.045 C 
ATOM     10  C   LIG    1       24.145 -21.087   5.390  0.00  0.00    +0.005 A 
ATOM     11  C   LIG    1       22.760 -21.220   5.402  0.00  0.00    +0.001 A 
ATOM     12  C   LIG    1       21.965 -20.204   4.886  0.00  0.00    +0.005 A 
ENDBRANCH   1   7
BRANCH   3  13
ATOM     13  C   LIG    1       24.961 -15.440   3.160  0.00  0.00    +0.143 C 
ATOM     14  N   LIG    1       26.359 -15.280   3.642  0.00  0.00    -0.295 NA
ATOM     15  C   LIG    1       27.134 -16.517   3.542  0.00  0.00    +0.105 C 
ATOM     16  C   LIG    1       27.058 -14.198   2.933  0.00  0.00    +0.085 C 
ATOM     17  C   LIG    1       26.320 -12.865   3.058  0.00  0.00    +0.015 C 
ATOM     18  C   LIG    1       24.893 -12.983   2.543  0.00  0.00    +0.003 C 
ATOM     19  C   LIG    1       24.176 -14.121   3.255  0.00  0.00    +0.028 C 
ENDBRANCH   3  13
TORSDOF 2
ENDMDL
