MODEL 1
REMARK VINA RESULT:      -4.4      0.000      0.000
REMARK  Name = *****
REMARK                            x       y       z     vdW  Elec       q    Type
REMARK                         _______ _______ _______ _____ _____    ______ ____
ROOT
ATOM      1  CA  PRO A  1       26.047 -13.955   3.437  0.00  0.00    +0.163 C 
ATOM      2  N   PRO A  1       25.765 -13.594   2.036  0.00  0.00    -0.304 NA
ATOM      3  H   PRO A  1       26.628 -13.388   1.534  0.00  0.00    +0.123 HD
ATOM      4  CD  PRO A  1       24.861 -12.458   2.102  0.00  0.00    +0.082 C 
ATOM      5  CG  PRO A  1       23.899 -12.851   3.210  0.00  0.00    +0.017 C 
ATOM      6  CB  PRO A  1       24.663 -13.859   4.067  0.00  0.00    +0.031 C 
ENDROOT
BRANCH   1   8
ATOM      7  O   PRO A  1       26.248 -16.372   3.114  0.00  0.00    -0.249 OA
ATOM      8  C   PRO A  1       26.730 -15.327   3.533  0.00  0.00    +0.322 C 
BRANCH   8   9
ATOM      9  OXT PRO A  1       27.996 -15.285   4.017  0.00  0.00    -0.479 OA
ATOM     10  HXT PRO A  1       28.664 -15.715   3.455  0.00  0.00    +0.295 HD
ENDBRANCH   8   9
ENDBRANCH   1   8
TORSDOF 2
ENDMDL
MODEL 2
REMARK VINA RESULT:      -4.3      1.168      1.697
REMARK  Name = *****
REMARK                            x       y       z     vdW  Elec       q    Type
REMARK                         _______ _______ _______ _____ _____    ______ ____
ROOT
ATOM      1  CA  PRO A  1       26.493 -13.232   3.440  0.00  0.00    +0.163 C 
ATOM      2  N   PRO A  1       25.957 -13.543   2.102  0.00  0.00    -0.304 NA
ATOM      3  H   PRO A  1       26.494 -13.068   1.378  0.00  0.00    +0.123 HD
ATOM      4  CD  PRO A  1       24.563 -13.133   2.136  0.00  0.00    +0.082 C 
ATOM      5  CG  PRO A  1       24.099 -13.617   3.499  0.00  0.00    +0.017 C 
ATOM      6  CB  PRO A  1       25.367 -13.716   4.345  0.00  0.00    +0.031 C 
ENDROOT
BRANCH   1   8
ATOM      7  O   PRO A  1       28.922 -13.289   3.726  0.00  0.00    -0.249 OA
ATOM      8  C   PRO A  1       27.859 -13.895   3.662  0.00  0.00    +0.322 C 
BRANCH   8   9
ATOM      9  OXT PRO A  1       27.796 -15.226   3.913  0.00  0.00    -0.479 OA
ATOM     10  HXT PRO A  1       27.401 -15.464   4.770  0.00  0.00    +0.295 HD
ENDBRANCH   8   9
ENDBRANCH   1   8
TORSDOF 2
ENDMDL
MODEL 3
REMARK VINA RESULT:      -4.2      5.891      6.491
REMARK  Name = *****
REMARK                            x       y       z     vdW  Elec       q    Type
REMARK                         _______ _______ _______ _____ _____    ______ ____
ROOT
ATOM      1  CA  PRO A  1       24.769 -20.409   4.879  0.00  0.00    +0.163 C 
ATOM      2  N   PRO A  1       23.671 -20.323   5.859  0.00  0.00    -0.304 NA
ATOM      3  H   PRO A  1       23.615 -21.174   6.416  0.00  0.00    +0.123 HD
ATOM      4  CD  PRO A  1       22.471 -20.077   5.076  0.00  0.00    +0.082 C 
ATOM      5  CG  PRO A  1       22.935 -19.054   4.053  0.00  0.00    +0.017 C 
ATOM      6  CB  PRO A  1       24.447 -19.247   3.948  0.00  0.00    +0.031 C 
ENDROOT
BRANCH   1   8
ATOM      7  O   PRO A  1       26.323 -20.557   6.763  0.00  0.00    -0.249 OA
ATOM      8  C   PRO A  1       26.139 -20.350   5.570  0.00  0.00    +0.322 C 
BRANCH   8   9
ATOM      9  OXT PRO A  1       27.182 -20.168   4.722  0.00  0.00    -0.479 OA
ATOM     10  HXT PRO A  1       26.933 -19.970   3.802  0.00  0.00    +0.295 HD
ENDBRANCH   8   9
ENDBRANCH   1   8
TORSDOF 2
ENDMDL
MODEL 4
REMARK VINA RESULT:      -4.1      1.387      1.998
REMARK  Name = *****
REMARK                            x       y       z     vdW  Elec       q    Type
REMARK                         _______ _______ _______ _____ _____    ______ ____
ROOT
ATOM      1  CA  PRO A  1       26.054 -14.139   3.558  0.00  0.00    +0.163 C 
ATOM      2  N   PRO A  1       25.525 -13.287   4.639  0.00  0.00    -0.304 NA
ATOM      3  H   PRO A  1       25.529 -13.786   5.527  0.00  0.00    +0.123 HD
ATOM      4  CD  PRO A  1       24.192 -12.899   4.210  0.00  0.00    +0.082 C 
ATOM      5  CG  PRO A  1       24.385 -12.580   2.738  0.00  0.00    +0.017 C 
ATOM      6  CB  PRO A  1       25.626 -13.365   2.316  0.00  0.00    +0.031 C 
ENDROOT
BRANCH   1   8
ATOM      7  O   PRO A  1       28.408 -13.481   3.658  0.00  0.00    -0.249 OA
ATOM      8  C   PRO A  1       27.564 -14.366   3.714  0.00  0.00    +0.322 C 
BRANCH   8   9
ATOM      9  OXT PRO A  1       27.902 -15.635   4.052  0.00  0.00    -0.479 OA
ATOM     10  HXT PRO A  1       28.309 -15.732   4.931  0.00  0.00    +0.295 HD
ENDBRANCH   8   9
ENDBRANCH   1   8
TORSDOF 2
ENDMDL
MODEL 5
REMARK VINA RESULT:      -4.1      2.893      3.651
REMARK  Name = *****
REMARK                            x       y       z     vdW  Elec       q    Type
REMARK                         _______ _______ _______ _____ _____    ______ ____
ROOT
ATOM      1  CA  PRO A  1       25.062 -13.429   3.484  0.00  0.00    +0.163 C 
ATOM      2  N   PRO A  1       26.097 -13.282   2.445  0.00  0.00    -0.304 NA
ATOM      3  H   PRO A  1       25.699 -13.414   1.517  0.00  0.00    +0.123 HD
ATOM      4  CD  PRO A  1       27.117 -14.265   2.771  0.00  0.00    +0.082 C 
ATOM      5  CG  PRO A  1       27.239 -14.143   4.280  0.00  0.00    +0.017 C 
ATOM      6  CB  PRO A  1       25.905 -13.562   4.746  0.00  0.00    +0.031 C 
ENDROOT
BRANCH   1   8
ATOM      7  O   PRO A  1       23.656 -11.680   4.460  0.00  0.00    -0.249 OA
ATOM      8  C   PRO A  1       24.077 -12.252   3.461  0.00  0.00    +0.322 C 
BRANCH   8   9
ATOM      9  OXT PRO A  1       23.789 -11.792   2.218  0.00  0.00    -0.479 OA
ATOM     10  HXT PRO A  1       24.434 -11.160   1.855  0.00  0.00    +0.295 HD
ENDBRANCH   8   9
ENDBRANCH   1   8
TORSDOF 2
ENDMDL
MODEL 6
REMARK VINA RESULT:      -4.1      7.010      7.695
REMARK  Name = *****
REMARK                            x       y       z     vdW  Elec       q    Type
REMARK                         _______ _______ _______ _____ _____    ______ ____
ROOT
ATOM      1  CA  PRO A  1       23.970 -20.920   5.517  0.00  0.00    +0.163 C 
ATOM      2  N   PRO A  1       25.007 -20.045   4.942  0.00  0.00    -0.304 NA
ATOM      3  H   PRO A  1       25.056 -20.158   3.930  0.00  0.00    +0.123 HD
ATOM      4  CD  PRO A  1       26.242 -20.412   5.614  0.00  0.00    +0.082 C 
ATOM      5  CG  PRO A  1       25.809 -20.572   7.061  0.00  0.00    +0.017 C 
ATOM      6  CB  PRO A  1       24.312 -20.871   7.002  0.00  0.00    +0.031 C 
ENDROOT
BRANCH   1   8
ATOM      7  O   PRO A  1       22.261 -19.270   4.933  0.00  0.00    -0.249 OA
ATOM      8  C   PRO A  1       22.562 -20.439   5.141  0.00  0.00    +0.322 C 
BRANCH   8   9
ATOM      9  OXT PRO A  1       21.672 -21.439   4.926  0.00  0.00    -0.479 OA
ATOM     10  HXT PRO A  1       22.014 -22.189   4.409  0.00  0.00    +0.295 HD
ENDBRANCH   8   9
ENDBRANCH   1   8
TORSDOF 2
ENDMDL
MODEL 7
REMARK VINA RESULT:      -4.0      5.466      6.208
REMARK  Name = *****
REMARK                            x       y       z     vdW  Elec       q    Type
REMARK                         _______ _______ _______ _____ _____    ______ ____
ROOT
ATOM      1  CA  PRO A  1       24.253 -19.837   3.877  0.00  0.00    +0.163 C 
ATOM      2  N   PRO A  1       24.132 -20.644   5.105  0.00  0.00    -0.304 NA
ATOM      3  H   PRO A  1       24.708 -21.482   5.046  0.00  0.00    +0.123 HD
ATOM      4  CD  PRO A  1       22.715 -20.938   5.238  0.00  0.00    +0.082 C 
ATOM      5  CG  PRO A  1       22.057 -19.616   4.883  0.00  0.00    +0.017 C 
ATOM      6  CB  PRO A  1       23.077 -18.878   4.020  0.00  0.00    +0.031 C 
ENDROOT
BRANCH   1   8
ATOM      7  O   PRO A  1       25.844 -18.063   3.325  0.00  0.00    -0.249 OA
ATOM      8  C   PRO A  1       25.638 -19.184   3.773  0.00  0.00    +0.322 C 
BRANCH   8   9
ATOM      9  OXT PRO A  1       26.636 -19.904   4.342  0.00  0.00    -0.479 OA
ATOM     10  HXT PRO A  1       27.530 -19.541   4.211  0.00  0.00    +0.295 HD
ENDBRANCH   8   9
ENDBRANCH   1   8
TORSDOF 2
ENDMDL
MODEL 8
REMARK VINA RESULT:      -4.0      6.685      7.333
REMARK  Name = *****
REMARK                            x       y       z     vdW  Elec       q    Type
REMARK                         _______ _______ _______ _____ _____    ______ ____
ROOT
ATOM      1  CA  PRO A  1       25.350 -20.948   5.091  0.00  0.00    +0.163 C 
ATOM      2  N   PRO A  1       26.448 -20.021   4.764  0.00  0.00    -0.304 NA
ATOM      3  H   PRO A  1       26.799 -20.192   3.823  0.00  0.00    +0.123 HD
ATOM      4  CD  PRO A  1       27.454 -20.234   5.792  0.00  0.00    +0.082 C 
ATOM      5  CG  PRO A  1       26.627 -20.341   7.062  0.00  0.00    +0.017 C 
ATOM      6  CB  PRO A  1       25.237 -20.776   6.601  0.00  0.00    +0.031 C 
ENDROOT
BRANCH   1   8
ATOM      7  O   PRO A  1       23.990 -19.693   3.490  0.00  0.00    -0.249 OA
ATOM      8  C   PRO A  1       24.084 -20.619   4.286  0.00  0.00    +0.322 C 
BRANCH   8   9
ATOM      9  OXT PRO A  1       23.084 -21.524   4.428  0.00  0.00    -0.479 OA
ATOM     10  HXT PRO A  1       23.375 -22.424   4.659  0.00  0.00    +0.295 HD
ENDBRANCH   8   9
ENDBRANCH   1   8
TORSDOF 2
ENDMDL
MODEL 9
REMARK VINA RESULT:      -4.0      6.628      7.297
REMARK  Name = *****
REMARK                            x       y       z     vdW  Elec       q    Type
REMARK                         _______ _______ _______ _____ _____    ______ ____
ROOT
ATOM      1  CA  PRO A  1       27.233 -20.081   6.210  0.00  0.00    +0.163 C 
ATOM      2  N   PRO A  1       26.777 -20.123   4.809  0.00  0.00    -0.304 NA
ATOM      3  H   PRO A  1       26.976 -19.243   4.337  0.00  0.00    +0.123 HD
ATOM      4  CD  PRO A  1       25.356 -20.426   4.872  0.00  0.00    +0.082 C 
ATOM      5  CG  PRO A  1       25.283 -21.499   5.944  0.00  0.00    +0.017 C 
ATOM      6  CB  PRO A  1       26.531 -21.297   6.802  0.00  0.00    +0.031 C 
ENDROOT
BRANCH   1   8
ATOM      7  O   PRO A  1       29.475 -19.106   6.115  0.00  0.00    -0.249 OA
ATOM      8  C   PRO A  1       28.765 -20.088   6.298  0.00  0.00    +0.322 C 
BRANCH   8   9
ATOM      9  OXT PRO A  1       29.292 -21.261   6.727  0.00  0.00    -0.479 OA
ATOM     10  HXT PRO A  1       29.210 -21.423   7.684  0.00  0.00    +0.295 HD
ENDBRANCH   8   9
ENDBRANCH   1   8
TORSDOF 2
ENDMDL
