MODEL 1
REMARK VINA RESULT:      -4.1      0.000      0.000
REMARK  Name = *****
REMARK                            x       y       z     vdW  Elec       q    Type
REMARK                         _______ _______ _______ _____ _____    ______ ____
ROOT
ATOM      1  C   LIG    1       26.263 -15.108   3.343  0.00  0.00    +0.186 A 
ATOM      2  C   LIG    1       26.032 -13.774   3.047  0.00  0.00    +0.171 A 
ATOM      3  N   LIG    1       27.208 -13.033   3.178  0.00  0.00    -0.229 NA
ATOM      4  C   LIG    1       28.118 -13.898   3.560  0.00  0.00    +0.199 A 
ATOM      5  N   LIG    1       27.595 -15.150   3.686  0.00  0.00    -0.328 N 
ATOM      6  H   LIG    1       28.082 -15.987   3.968  0.00  0.00    +0.168 HD
ENDROOT
BRANCH   2   7
ATOM      7  C   LIG    1       24.769 -13.167   2.640  0.00  0.00    +0.264 C 
ATOM      8  O   LIG    1       24.644 -12.273   1.812  0.00  0.00    -0.269 OA
ATOM      9  N   LIG    1       23.686 -13.701   3.282  0.00  0.00    -0.324 N 
ATOM     10  H   LIG    1       22.761 -13.371   3.057  0.00  0.00    +0.145 HD
ATOM     11  H   LIG    1       23.828 -14.453   3.946  0.00  0.00    +0.145 HD
ENDBRANCH   2   7
BRANCH   1  13
ATOM     12  N   LIG    1       26.078 -17.302   3.312  0.00  0.00    -0.077 NA
ATOM     13  N   LIG    1       25.474 -16.211   3.361  0.00  0.00    -0.113 NA
BRANCH  12  15
ATOM     14  C   LIG    1       23.875 -18.087   3.686  0.00  0.00    +0.153 C 
ATOM     15  N   LIG    1       25.245 -18.395   3.317  0.00  0.00    -0.243 N 
ATOM     16  C   LIG    1       25.756 -19.699   3.725  0.00  0.00    +0.153 C 
ENDBRANCH  12  15
ENDBRANCH   1  13
TORSDOF 3
ENDMDL
MODEL 2
REMARK VINA RESULT:      -4.1      1.034      1.056
REMARK  Name = *****
REMARK                            x       y       z     vdW  Elec       q    Type
REMARK                         _______ _______ _______ _____ _____    ______ ____
ROOT
ATOM      1  C   LIG    1       26.228 -15.698   3.440  0.00  0.00    +0.186 A 
ATOM      2  C   LIG    1       25.678 -14.446   3.662  0.00  0.00    +0.171 A 
ATOM      3  N   LIG    1       26.671 -13.531   4.015  0.00  0.00    -0.229 NA
ATOM      4  C   LIG    1       27.787 -14.220   4.022  0.00  0.00    +0.199 A 
ATOM      5  N   LIG    1       27.568 -15.526   3.698  0.00  0.00    -0.328 N 
ATOM      6  H   LIG    1       28.257 -16.261   3.636  0.00  0.00    +0.168 HD
ENDROOT
BRANCH   2   7
ATOM      7  C   LIG    1       24.272 -14.067   3.550  0.00  0.00    +0.264 C 
ATOM      8  O   LIG    1       23.837 -13.145   2.873  0.00  0.00    -0.269 OA
ATOM      9  N   LIG    1       23.442 -14.863   4.292  0.00  0.00    -0.324 N 
ATOM     10  H   LIG    1       22.448 -14.704   4.266  0.00  0.00    +0.145 HD
ATOM     11  H   LIG    1       23.839 -15.628   4.823  0.00  0.00    +0.145 HD
ENDBRANCH   2   7
BRANCH   1  13
ATOM     12  N   LIG    1       24.950 -17.426   3.920  0.00  0.00    -0.077 NA
ATOM     13  N   LIG    1       25.706 -16.897   3.079  0.00  0.00    -0.113 NA
BRANCH  12  15
ATOM     14  C   LIG    1       23.060 -18.852   3.879  0.00  0.00    +0.153 C 
ATOM     15  N   LIG    1       24.454 -18.645   3.526  0.00  0.00    -0.243 N 
ATOM     16  C   LIG    1       25.316 -19.822   3.540  0.00  0.00    +0.153 C 
ENDBRANCH  12  15
ENDBRANCH   1  13
TORSDOF 3
ENDMDL
MODEL 3
REMARK VINA RESULT:      -3.9      3.230      6.238
REMARK  Name = *****
REMARK                            x       y       z     vdW  Elec       q    Type
REMARK                         _______ _______ _______ _____ _____    ______ ____
ROOT
ATOM      1  C   LIG    1       25.289 -19.184   3.752  0.00  0.00    +0.186 A 
ATOM      2  C   LIG    1       25.596 -20.164   4.684  0.00  0.00    +0.171 A 
ATOM      3  N   LIG    1       24.713 -21.239   4.571  0.00  0.00    -0.229 NA
ATOM      4  C   LIG    1       23.887 -20.907   3.608  0.00  0.00    +0.199 A 
ATOM      5  N   LIG    1       24.183 -19.678   3.098  0.00  0.00    -0.328 N 
ATOM      6  H   LIG    1       23.700 -19.194   2.356  0.00  0.00    +0.168 HD
ENDROOT
BRANCH   2   7
ATOM      7  C   LIG    1       26.677 -20.141   5.664  0.00  0.00    +0.264 C 
ATOM      8  O   LIG    1       26.551 -20.330   6.867  0.00  0.00    -0.269 OA
ATOM      9  N   LIG    1       27.900 -19.884   5.106  0.00  0.00    -0.324 N 
ATOM     10  H   LIG    1       28.720 -19.871   5.691  0.00  0.00    +0.145 HD
ATOM     11  H   LIG    1       27.967 -19.752   4.104  0.00  0.00    +0.145 HD
ENDBRANCH   2   7
BRANCH   1  13
ATOM     12  N   LIG    1       25.100 -16.992   3.685  0.00  0.00    -0.077 NA
ATOM     13  N   LIG    1       25.830 -17.977   3.454  0.00  0.00    -0.113 NA
BRANCH  12  15
ATOM     14  C   LIG    1       27.114 -15.752   3.554  0.00  0.00    +0.153 C 
ATOM     15  N   LIG    1       25.676 -15.788   3.356  0.00  0.00    -0.243 N 
ATOM     16  C   LIG    1       24.950 -14.545   3.592  0.00  0.00    +0.153 C 
ENDBRANCH  12  15
ENDBRANCH   1  13
TORSDOF 3
ENDMDL
MODEL 4
REMARK VINA RESULT:      -3.6      2.638      5.266
REMARK  Name = *****
REMARK                            x       y       z     vdW  Elec       q    Type
REMARK                         _______ _______ _______ _____ _____    ______ ____
ROOT
ATOM      1  C   LIG    1       24.748 -18.183   3.642  0.00  0.00    +0.186 A 
ATOM      2  C   LIG    1       23.605 -18.915   3.922  0.00  0.00    +0.171 A 
ATOM      3  N   LIG    1       23.889 -20.282   3.922  0.00  0.00    -0.229 NA
ATOM      4  C   LIG    1       25.165 -20.369   3.633  0.00  0.00    +0.199 A 
ATOM      5  N   LIG    1       25.718 -19.138   3.442  0.00  0.00    -0.328 N 
ATOM      6  H   LIG    1       26.678 -18.932   3.207  0.00  0.00    +0.168 HD
ENDROOT
BRANCH   2   7
ATOM      7  C   LIG    1       22.269 -18.395   4.196  0.00  0.00    +0.264 C 
ATOM      8  O   LIG    1       21.219 -18.985   3.978  0.00  0.00    -0.269 OA
ATOM      9  N   LIG    1       22.284 -17.142   4.743  0.00  0.00    -0.324 N 
ATOM     10  H   LIG    1       21.415 -16.699   4.995  0.00  0.00    +0.145 HD
ATOM     11  H   LIG    1       23.174 -16.694   4.926  0.00  0.00    +0.145 HD
ENDBRANCH   2   7
BRANCH   1  13
ATOM     12  N   LIG    1       26.194 -16.555   3.314  0.00  0.00    -0.077 NA
ATOM     13  N   LIG    1       25.003 -16.855   3.531  0.00  0.00    -0.113 NA
BRANCH  12  15
ATOM     14  C   LIG    1       27.644 -14.765   3.863  0.00  0.00    +0.153 C 
ATOM     15  N   LIG    1       26.416 -15.202   3.224  0.00  0.00    -0.243 N 
ATOM     16  C   LIG    1       25.289 -14.275   3.264  0.00  0.00    +0.153 C 
ENDBRANCH  12  15
ENDBRANCH   1  13
TORSDOF 3
ENDMDL
MODEL 5
REMARK VINA RESULT:      -3.3      1.006      1.006
REMARK  Name = *****
REMARK                            x       y       z     vdW  Elec       q    Type
REMARK                         _______ _______ _______ _____ _____    ______ ____
ROOT
ATOM      1  C   LIG    1       25.855 -15.418   3.286  0.00  0.00    +0.186 A 
ATOM      2  C   LIG    1       25.646 -14.052   3.174  0.00  0.00    +0.171 A 
ATOM      3  N   LIG    1       26.864 -13.373   3.127  0.00  0.00    -0.229 NA
ATOM      4  C   LIG    1       27.781 -14.305   3.224  0.00  0.00    +0.199 A 
ATOM      5  N   LIG    1       27.225 -15.544   3.336  0.00  0.00    -0.328 N 
ATOM      6  H   LIG    1       27.710 -16.424   3.428  0.00  0.00    +0.168 HD
ENDROOT
BRANCH   2   7
ATOM      7  C   LIG    1       24.363 -13.360   3.102  0.00  0.00    +0.264 C 
ATOM      8  O   LIG    1       23.635 -13.111   4.056  0.00  0.00    -0.269 OA
ATOM      9  N   LIG    1       24.023 -12.991   1.830  0.00  0.00    -0.324 N 
ATOM     10  H   LIG    1       23.167 -12.483   1.671  0.00  0.00    +0.145 HD
ATOM     11  H   LIG    1       24.661 -13.197   1.070  0.00  0.00    +0.145 HD
ENDBRANCH   2   7
BRANCH   1  13
ATOM     12  N   LIG    1       25.578 -17.602   3.280  0.00  0.00    -0.077 NA
ATOM     13  N   LIG    1       25.024 -16.487   3.363  0.00  0.00    -0.113 NA
BRANCH  12  15
ATOM     14  C   LIG    1       23.388 -18.302   3.850  0.00  0.00    +0.153 C 
ATOM     15  N   LIG    1       24.703 -18.660   3.347  0.00  0.00    -0.243 N 
ATOM     16  C   LIG    1       25.195 -19.991   3.686  0.00  0.00    +0.153 C 
ENDBRANCH  12  15
ENDBRANCH   1  13
TORSDOF 3
ENDMDL
MODEL 6
REMARK VINA RESULT:      -3.1      1.680      2.717
REMARK  Name = *****
REMARK                            x       y       z     vdW  Elec       q    Type
REMARK                         _______ _______ _______ _____ _____    ______ ____
ROOT
ATOM      1  C   LIG    1       25.070 -15.183   3.754  0.00  0.00    +0.186 A 
ATOM      2  C   LIG    1       26.050 -14.216   3.917  0.00  0.00    +0.171 A 
ATOM      3  N   LIG    1       25.471 -12.976   4.196  0.00  0.00    -0.229 NA
ATOM      4  C   LIG    1       24.177 -13.190   4.184  0.00  0.00    +0.199 A 
ATOM      5  N   LIG    1       23.889 -14.493   3.908  0.00  0.00    -0.328 N 
ATOM      6  H   LIG    1       22.974 -14.913   3.837  0.00  0.00    +0.168 HD
ENDROOT
BRANCH   2   7
ATOM      7  C   LIG    1       27.495 -14.401   3.833  0.00  0.00    +0.264 C 
ATOM      8  O   LIG    1       28.308 -13.530   3.553  0.00  0.00    -0.269 OA
ATOM      9  N   LIG    1       27.888 -15.682   4.108  0.00  0.00    -0.324 N 
ATOM     10  H   LIG    1       28.869 -15.914   4.103  0.00  0.00    +0.145 HD
ATOM     11  H   LIG    1       27.187 -16.371   4.354  0.00  0.00    +0.145 HD
ENDBRANCH   2   7
BRANCH   1  13
ATOM     12  N   LIG    1       24.153 -17.176   3.936  0.00  0.00    -0.077 NA
ATOM     13  N   LIG    1       25.105 -16.511   3.481  0.00  0.00    -0.113 NA
BRANCH  12  15
ATOM     14  C   LIG    1       23.096 -19.286   4.133  0.00  0.00    +0.153 C 
ATOM     15  N   LIG    1       24.231 -18.518   3.652  0.00  0.00    -0.243 N 
ATOM     16  C   LIG    1       25.526 -19.190   3.658  0.00  0.00    +0.153 C 
ENDBRANCH  12  15
ENDBRANCH   1  13
TORSDOF 3
ENDMDL
MODEL 7
REMARK VINA RESULT:      -3.1      3.507      5.684
REMARK  Name = *****
REMARK                            x       y       z     vdW  Elec       q    Type
REMARK                         _______ _______ _______ _____ _____    ______ ____
ROOT
ATOM      1  C   LIG    1       27.860 -18.176   4.691  0.00  0.00    +0.186 A 
ATOM      2  C   LIG    1       27.455 -19.409   5.178  0.00  0.00    +0.171 A 
ATOM      3  N   LIG    1       28.476 -20.000   5.924  0.00  0.00    -0.229 NA
ATOM      4  C   LIG    1       29.474 -19.151   5.873  0.00  0.00    +0.199 A 
ATOM      5  N   LIG    1       29.157 -18.052   5.133  0.00  0.00    -0.328 N 
ATOM      6  H   LIG    1       29.749 -17.257   4.938  0.00  0.00    +0.168 HD
ENDROOT
BRANCH   2   7
ATOM      7  C   LIG    1       26.159 -20.051   4.983  0.00  0.00    +0.264 C 
ATOM      8  O   LIG    1       25.516 -20.631   5.850  0.00  0.00    -0.269 OA
ATOM      9  N   LIG    1       25.695 -19.947   3.701  0.00  0.00    -0.324 N 
ATOM     10  H   LIG    1       24.796 -20.334   3.464  0.00  0.00    +0.145 HD
ATOM     11  H   LIG    1       26.247 -19.443   3.017  0.00  0.00    +0.145 HD
ENDBRANCH   2   7
BRANCH   1  13
ATOM     12  N   LIG    1       27.647 -16.058   4.130  0.00  0.00    -0.077 NA
ATOM     13  N   LIG    1       27.256 -17.227   3.935  0.00  0.00    -0.113 NA
BRANCH  12  15
ATOM     14  C   LIG    1       27.708 -13.858   3.256  0.00  0.00    +0.153 C 
ATOM     15  N   LIG    1       27.002 -15.123   3.357  0.00  0.00    -0.243 N 
ATOM     16  C   LIG    1       25.544 -15.062   3.352  0.00  0.00    +0.153 C 
ENDBRANCH  12  15
ENDBRANCH   1  13
TORSDOF 3
ENDMDL
MODEL 8
REMARK VINA RESULT:      -2.9      2.894      5.306
REMARK  Name = *****
REMARK                            x       y       z     vdW  Elec       q    Type
REMARK                         _______ _______ _______ _____ _____    ______ ____
ROOT
ATOM      1  C   LIG    1       26.343 -18.174   3.895  0.00  0.00    +0.186 A 
ATOM      2  C   LIG    1       25.682 -19.369   4.136  0.00  0.00    +0.171 A 
ATOM      3  N   LIG    1       26.471 -20.216   4.915  0.00  0.00    -0.229 NA
ATOM      4  C   LIG    1       27.584 -19.555   5.123  0.00  0.00    +0.199 A 
ATOM      5  N   LIG    1       27.559 -18.334   4.518  0.00  0.00    -0.328 N 
ATOM      6  H   LIG    1       28.290 -17.637   4.523  0.00  0.00    +0.168 HD
ENDROOT
BRANCH   2   7
ATOM      7  C   LIG    1       24.348 -19.746   3.679  0.00  0.00    +0.264 C 
ATOM      8  O   LIG    1       24.021 -20.856   3.280  0.00  0.00    -0.269 OA
ATOM      9  N   LIG    1       23.450 -18.715   3.738  0.00  0.00    -0.324 N 
ATOM     10  H   LIG    1       22.492 -18.875   3.469  0.00  0.00    +0.145 HD
ATOM     11  H   LIG    1       23.753 -17.817   4.092  0.00  0.00    +0.145 HD
ENDBRANCH   2   7
BRANCH   1  13
ATOM     12  N   LIG    1       26.466 -15.986   3.692  0.00  0.00    -0.077 NA
ATOM     13  N   LIG    1       26.018 -17.048   3.215  0.00  0.00    -0.113 NA
BRANCH  12  15
ATOM     14  C   LIG    1       27.228 -14.062   2.541  0.00  0.00    +0.153 C 
ATOM     15  N   LIG    1       26.103 -14.865   2.984  0.00  0.00    -0.243 N 
ATOM     16  C   LIG    1       24.882 -14.147   3.333  0.00  0.00    +0.153 C 
ENDBRANCH  12  15
ENDBRANCH   1  13
TORSDOF 3
ENDMDL
MODEL 9
REMARK VINA RESULT:      -2.9      2.194      3.534
REMARK  Name = *****
REMARK                            x       y       z     vdW  Elec       q    Type
REMARK                         _______ _______ _______ _____ _____    ______ ____
ROOT
ATOM      1  C   LIG    1       24.367 -13.553   3.528  0.00  0.00    +0.186 A 
ATOM      2  C   LIG    1       25.632 -13.532   2.961  0.00  0.00    +0.171 A 
ATOM      3  N   LIG    1       25.732 -12.499   2.027  0.00  0.00    -0.229 NA
ATOM      4  C   LIG    1       24.553 -11.925   2.021  0.00  0.00    +0.199 A 
ATOM      5  N   LIG    1       23.698 -12.532   2.892  0.00  0.00    -0.328 N 
ATOM      6  H   LIG    1       22.736 -12.285   3.073  0.00  0.00    +0.168 HD
ENDROOT
BRANCH   2   7
ATOM      7  C   LIG    1       26.747 -14.426   3.259  0.00  0.00    +0.264 C 
ATOM      8  O   LIG    1       27.912 -14.082   3.409  0.00  0.00    -0.269 OA
ATOM      9  N   LIG    1       26.370 -15.736   3.367  0.00  0.00    -0.324 N 
ATOM     10  H   LIG    1       27.058 -16.435   3.596  0.00  0.00    +0.145 HD
ATOM     11  H   LIG    1       25.392 -15.978   3.255  0.00  0.00    +0.145 HD
ENDBRANCH   2   7
BRANCH   1  13
ATOM     12  N   LIG    1       23.245 -15.379   4.031  0.00  0.00    -0.077 NA
ATOM     13  N   LIG    1       23.776 -14.336   4.464  0.00  0.00    -0.113 NA
BRANCH  12  15
ATOM     14  C   LIG    1       22.200 -17.441   4.544  0.00  0.00    +0.153 C 
ATOM     15  N   LIG    1       22.644 -16.138   5.006  0.00  0.00    -0.243 N 
ATOM     16  C   LIG    1       21.831 -15.495   6.033  0.00  0.00    +0.153 C 
ENDBRANCH  12  15
ENDBRANCH   1  13
TORSDOF 3
ENDMDL
