MODEL 1
REMARK VINA RESULT:       4.9      0.000      0.000
REMARK  Name = *****
REMARK                            x       y       z     vdW  Elec       q    Type
REMARK                         _______ _______ _______ _____ _____    ______ ____
ROOT
ATOM      1  C   LIG    1       23.252 -19.506   3.904  0.00  0.00    +0.299 C 
ATOM      2  C   LIG    1       23.958 -20.537   3.049  0.00  0.00    +0.253 C 
ATOM      3  O   LIG    1       23.333 -21.316   2.321  0.00  0.00    -0.273 OA
ATOM      4  N   LIG    1       25.313 -20.702   3.137  0.00  0.00    -0.283 N 
ATOM      5  H   LIG    1       25.624 -21.534   2.649  0.00  0.00    +0.155 HD
ATOM      6  C   LIG    1       26.206 -20.052   3.997  0.00  0.00    +0.043 A 
ATOM      7  C   LIG    1       26.022 -18.768   4.526  0.00  0.00    +0.023 A 
ATOM      8  C   LIG    1       26.907 -18.286   5.506  0.00  0.00    +0.032 A 
ATOM      9  C   LIG    1       28.023 -19.035   5.869  0.00  0.00    +0.042 A 
ATOM     10  C   LIG    1       28.264 -20.269   5.275  0.00  0.00    +0.022 A 
ATOM     11 CL   LIG    1       29.138 -18.411   7.019  0.00  0.00    -0.084 Cl
ATOM     12  C   LIG    1       25.005 -17.830   3.962  0.00  0.00    +0.079 C 
ATOM     13  C   LIG    1       27.356 -20.776   4.344  0.00  0.00    +0.025 A 
ATOM     14  N   LIG    1       23.788 -18.150   3.678  0.00  0.00    -0.259 NA
ENDROOT
BRANCH  12  15
ATOM     15  C   LIG    1       25.410 -16.409   3.667  0.00  0.00    +0.036 A 
ATOM     16  C   LIG    1       24.523 -15.337   3.819  0.00  0.00    +0.133 A 
ATOM     17  F   LIG    1       23.275 -15.523   4.273  0.00  0.00    -0.205 F 
ATOM     18  C   LIG    1       24.912 -14.033   3.521  0.00  0.00    +0.039 A 
ATOM     19  C   LIG    1       26.217 -13.776   3.103  0.00  0.00    +0.003 A 
ATOM     20  C   LIG    1       27.125 -14.827   2.984  0.00  0.00    +0.001 A 
ATOM     21  C   LIG    1       26.725 -16.139   3.261  0.00  0.00    +0.013 A 
ENDBRANCH  12  15
BRANCH   1  22
ATOM     22  C   LIG    1       23.154 -19.882   5.374  0.00  0.00    +0.341 C 
ATOM     23  O   LIG    1       22.753 -19.153   6.268  0.00  0.00    -0.248 OA
BRANCH  22  24
ATOM     24  O   LIG    1       23.520 -21.185   5.562  0.00  0.00    -0.463 OA
BRANCH  24  26
ATOM     25  C   LIG    1       25.399 -21.551   7.062  0.00  0.00    +0.048 C 
ATOM     26  C   LIG    1       23.891 -21.559   6.898  0.00  0.00    +0.229 C 
ENDBRANCH  24  26
ENDBRANCH  22  24
ENDBRANCH   1  22
TORSDOF 4
ENDMDL
MODEL 2
REMARK VINA RESULT:       6.4      3.774      6.298
REMARK  Name = *****
REMARK                            x       y       z     vdW  Elec       q    Type
REMARK                         _______ _______ _______ _____ _____    ______ ____
ROOT
ATOM      1  C   LIG    1       23.644 -13.132   3.282  0.00  0.00    +0.299 C 
ATOM      2  C   LIG    1       23.895 -12.465   4.618  0.00  0.00    +0.253 C 
ATOM      3  O   LIG    1       23.282 -11.450   4.963  0.00  0.00    -0.273 OA
ATOM      4  N   LIG    1       24.887 -12.917   5.444  0.00  0.00    -0.283 N 
ATOM      5  H   LIG    1       25.059 -12.278   6.212  0.00  0.00    +0.155 HD
ATOM      6  C   LIG    1       25.809 -13.942   5.202  0.00  0.00    +0.043 A 
ATOM      7  C   LIG    1       25.583 -15.045   4.368  0.00  0.00    +0.023 A 
ATOM      8  C   LIG    1       26.642 -15.924   4.076  0.00  0.00    +0.032 A 
ATOM      9  C   LIG    1       27.876 -15.763   4.700  0.00  0.00    +0.042 A 
ATOM     10  C   LIG    1       28.076 -14.727   5.605  0.00  0.00    +0.022 A 
ATOM     11 CL   LIG    1       29.145 -16.881   4.390  0.00  0.00    -0.084 Cl
ATOM     12  C   LIG    1       24.210 -15.406   3.906  0.00  0.00    +0.079 C 
ATOM     13  C   LIG    1       27.045 -13.818   5.853  0.00  0.00    +0.025 A 
ATOM     14  N   LIG    1       23.348 -14.569   3.436  0.00  0.00    -0.259 NA
ENDROOT
BRANCH  12  15
ATOM     15  C   LIG    1       23.760 -16.840   4.011  0.00  0.00    +0.036 A 
ATOM     16  C   LIG    1       22.603 -17.207   4.708  0.00  0.00    +0.133 A 
ATOM     17  F   LIG    1       21.817 -16.288   5.286  0.00  0.00    -0.205 F 
ATOM     18  C   LIG    1       22.216 -18.542   4.810  0.00  0.00    +0.039 A 
ATOM     19  C   LIG    1       22.965 -19.532   4.176  0.00  0.00    +0.003 A 
ATOM     20  C   LIG    1       24.099 -19.180   3.445  0.00  0.00    +0.001 A 
ATOM     21  C   LIG    1       24.499 -17.842   3.363  0.00  0.00    +0.013 A 
ENDBRANCH  12  15
BRANCH   1  22
ATOM     22  C   LIG    1       24.707 -12.839   2.234  0.00  0.00    +0.341 C 
ATOM     23  O   LIG    1       25.001 -11.732   1.812  0.00  0.00    -0.248 OA
BRANCH  22  24
ATOM     24  O   LIG    1       25.344 -13.989   1.863  0.00  0.00    -0.463 OA
BRANCH  24  26
ATOM     25  C   LIG    1       27.304 -12.749   2.593  0.00  0.00    +0.048 C 
ATOM     26  C   LIG    1       26.779 -13.938   1.812  0.00  0.00    +0.229 C 
ENDBRANCH  24  26
ENDBRANCH  22  24
ENDBRANCH   1  22
TORSDOF 4
ENDMDL
MODEL 3
REMARK VINA RESULT:       6.6      4.296      6.904
REMARK  Name = *****
REMARK                            x       y       z     vdW  Elec       q    Type
REMARK                         _______ _______ _______ _____ _____    ______ ____
ROOT
ATOM      1  C   LIG    1       28.143 -13.987   4.206  0.00  0.00    +0.299 C 
ATOM      2  C   LIG    1       27.785 -13.366   2.872  0.00  0.00    +0.253 C 
ATOM      3  O   LIG    1       28.577 -12.644   2.258  0.00  0.00    -0.273 OA
ATOM      4  N   LIG    1       26.527 -13.509   2.355  0.00  0.00    -0.283 N 
ATOM      5  H   LIG    1       26.376 -12.904   1.556  0.00  0.00    +0.155 HD
ATOM      6  C   LIG    1       25.423 -14.143   2.936  0.00  0.00    +0.043 A 
ATOM      7  C   LIG    1       25.495 -15.198   3.856  0.00  0.00    +0.023 A 
ATOM      8  C   LIG    1       24.324 -15.645   4.494  0.00  0.00    +0.032 A 
ATOM      9  C   LIG    1       23.087 -15.117   4.133  0.00  0.00    +0.042 A 
ATOM     10  C   LIG    1       23.000 -14.138   3.150  0.00  0.00    +0.022 A 
ATOM     11 CL   LIG    1       21.653 -15.715   4.870  0.00  0.00    -0.084 Cl
ATOM     12  C   LIG    1       26.756 -15.972   4.059  0.00  0.00    +0.079 C 
ATOM     13  C   LIG    1       24.166 -13.651   2.556  0.00  0.00    +0.025 A 
ATOM     14  N   LIG    1       27.925 -15.447   4.205  0.00  0.00    -0.259 NA
ENDROOT
BRANCH  12  15
ATOM     15  C   LIG    1       26.693 -17.477   4.071  0.00  0.00    +0.036 A 
ATOM     16  C   LIG    1       27.676 -18.257   4.689  0.00  0.00    +0.133 A 
ATOM     17  F   LIG    1       28.708 -17.695   5.336  0.00  0.00    -0.205 F 
ATOM     18  C   LIG    1       27.609 -19.649   4.671  0.00  0.00    +0.039 A 
ATOM     19  C   LIG    1       26.526 -20.284   4.065  0.00  0.00    +0.003 A 
ATOM     20  C   LIG    1       25.517 -19.521   3.478  0.00  0.00    +0.001 A 
ATOM     21  C   LIG    1       25.599 -18.124   3.477  0.00  0.00    +0.013 A 
ENDBRANCH  12  15
BRANCH   1  22
ATOM     22  C   LIG    1       27.524 -13.282   5.403  0.00  0.00    +0.341 C 
ATOM     23  O   LIG    1       27.885 -13.405   6.563  0.00  0.00    -0.248 OA
BRANCH  22  24
ATOM     24  O   LIG    1       26.534 -12.431   5.001  0.00  0.00    -0.463 OA
BRANCH  24  26
ATOM     25  C   LIG    1       24.322 -11.447   5.234  0.00  0.00    +0.048 C 
ATOM     26  C   LIG    1       25.369 -12.363   5.838  0.00  0.00    +0.229 C 
ENDBRANCH  24  26
ENDBRANCH  22  24
ENDBRANCH   1  22
TORSDOF 4
ENDMDL
MODEL 4
REMARK VINA RESULT:       6.7      3.820      6.732
REMARK  Name = *****
REMARK                            x       y       z     vdW  Elec       q    Type
REMARK                         _______ _______ _______ _____ _____    ______ ____
ROOT
ATOM      1  C   LIG    1       27.673 -15.186   3.683  0.00  0.00    +0.299 C 
ATOM      2  C   LIG    1       27.162 -14.271   2.591  0.00  0.00    +0.253 C 
ATOM      3  O   LIG    1       27.930 -13.697   1.812  0.00  0.00    -0.273 OA
ATOM      4  N   LIG    1       25.829 -13.977   2.498  0.00  0.00    -0.283 N 
ATOM      5  H   LIG    1       25.654 -13.225   1.842  0.00  0.00    +0.155 HD
ATOM      6  C   LIG    1       24.797 -14.378   3.354  0.00  0.00    +0.043 A 
ATOM      7  C   LIG    1       24.795 -15.555   4.115  0.00  0.00    +0.023 A 
ATOM      8  C   LIG    1       23.777 -15.770   5.060  0.00  0.00    +0.032 A 
ATOM      9  C   LIG    1       22.716 -14.873   5.162  0.00  0.00    +0.042 A 
ATOM     10  C   LIG    1       22.663 -13.752   4.340  0.00  0.00    +0.022 A 
ATOM     11 CL   LIG    1       21.440 -15.177   6.273  0.00  0.00    -0.084 Cl
ATOM     12  C   LIG    1       25.756 -16.664   3.838  0.00  0.00    +0.079 C 
ATOM     13  C   LIG    1       23.702 -13.506   3.441  0.00  0.00    +0.025 A 
ATOM     14  N   LIG    1       27.021 -16.509   3.638  0.00  0.00    -0.259 NA
ENDROOT
BRANCH  12  15
ATOM     15  C   LIG    1       25.233 -18.074   3.751  0.00  0.00    +0.036 A 
ATOM     16  C   LIG    1       25.996 -19.176   4.155  0.00  0.00    +0.133 A 
ATOM     17  F   LIG    1       27.222 -19.022   4.676  0.00  0.00    -0.205 F 
ATOM     18  C   LIG    1       25.501 -20.474   4.047  0.00  0.00    +0.039 A 
ATOM     19  C   LIG    1       24.209 -20.687   3.569  0.00  0.00    +0.003 A 
ATOM     20  C   LIG    1       23.421 -19.598   3.198  0.00  0.00    +0.001 A 
ATOM     21  C   LIG    1       23.929 -18.297   3.285  0.00  0.00    +0.013 A 
ENDBRANCH  12  15
BRANCH   1  22
ATOM     22  C   LIG    1       27.673 -14.556   5.068  0.00  0.00    +0.341 C 
ATOM     23  O   LIG    1       27.959 -15.129   6.108  0.00  0.00    -0.248 OA
BRANCH  22  24
ATOM     24  O   LIG    1       27.364 -13.227   4.991  0.00  0.00    -0.463 OA
BRANCH  24  26
ATOM     25  C   LIG    1       29.350 -11.959   4.387  0.00  0.00    +0.048 C 
ATOM     26  C   LIG    1       28.357 -12.311   5.479  0.00  0.00    +0.229 C 
ENDBRANCH  24  26
ENDBRANCH  22  24
ENDBRANCH   1  22
TORSDOF 4
ENDMDL
MODEL 5
REMARK VINA RESULT:       6.9      3.834      6.430
REMARK  Name = *****
REMARK                            x       y       z     vdW  Elec       q    Type
REMARK                         _______ _______ _______ _____ _____    ______ ____
ROOT
ATOM      1  C   LIG    1       23.485 -13.101   3.413  0.00  0.00    +0.299 C 
ATOM      2  C   LIG    1       23.799 -12.456   4.746  0.00  0.00    +0.253 C 
ATOM      3  O   LIG    1       23.201 -11.449   5.138  0.00  0.00    -0.273 OA
ATOM      4  N   LIG    1       24.832 -12.919   5.514  0.00  0.00    -0.283 N 
ATOM      5  H   LIG    1       25.039 -12.293   6.284  0.00  0.00    +0.155 HD
ATOM      6  C   LIG    1       25.743 -13.937   5.211  0.00  0.00    +0.043 A 
ATOM      7  C   LIG    1       25.480 -15.026   4.369  0.00  0.00    +0.023 A 
ATOM      8  C   LIG    1       26.525 -15.896   4.010  0.00  0.00    +0.032 A 
ATOM      9  C   LIG    1       27.788 -15.741   4.576  0.00  0.00    +0.042 A 
ATOM     10  C   LIG    1       28.029 -14.720   5.488  0.00  0.00    +0.022 A 
ATOM     11 CL   LIG    1       29.043 -16.849   4.185  0.00  0.00    -0.084 Cl
ATOM     12  C   LIG    1       24.087 -15.384   3.969  0.00  0.00    +0.079 C 
ATOM     13  C   LIG    1       27.010 -13.820   5.802  0.00  0.00    +0.025 A 
ATOM     14  N   LIG    1       23.201 -14.542   3.556  0.00  0.00    -0.259 NA
ENDROOT
BRANCH  12  15
ATOM     15  C   LIG    1       23.646 -16.821   4.071  0.00  0.00    +0.036 A 
ATOM     16  C   LIG    1       24.439 -17.877   3.606  0.00  0.00    +0.133 A 
ATOM     17  F   LIG    1       25.652 -17.657   3.078  0.00  0.00    -0.205 F 
ATOM     18  C   LIG    1       24.003 -19.197   3.692  0.00  0.00    +0.039 A 
ATOM     19  C   LIG    1       22.777 -19.486   4.288  0.00  0.00    +0.003 A 
ATOM     20  C   LIG    1       21.991 -18.450   4.792  0.00  0.00    +0.001 A 
ATOM     21  C   LIG    1       22.420 -17.122   4.683  0.00  0.00    +0.013 A 
ENDBRANCH  12  15
BRANCH   1  22
ATOM     22  C   LIG    1       24.494 -12.787   2.319  0.00  0.00    +0.341 C 
ATOM     23  O   LIG    1       24.704 -11.682   1.844  0.00  0.00    -0.248 OA
BRANCH  22  24
ATOM     24  O   LIG    1       25.192 -13.909   1.973  0.00  0.00    -0.463 OA
BRANCH  24  26
ATOM     25  C   LIG    1       27.122 -12.577   2.617  0.00  0.00    +0.048 C 
ATOM     26  C   LIG    1       26.611 -13.757   1.812  0.00  0.00    +0.229 C 
ENDBRANCH  24  26
ENDBRANCH  22  24
ENDBRANCH   1  22
TORSDOF 4
ENDMDL
MODEL 6
REMARK VINA RESULT:       7.3      4.199      6.783
REMARK  Name = *****
REMARK                            x       y       z     vdW  Elec       q    Type
REMARK                         _______ _______ _______ _____ _____    ______ ____
ROOT
ATOM      1  C   LIG    1       28.157 -13.924   4.220  0.00  0.00    +0.299 C 
ATOM      2  C   LIG    1       27.768 -13.356   2.871  0.00  0.00    +0.253 C 
ATOM      3  O   LIG    1       28.530 -12.625   2.230  0.00  0.00    -0.273 OA
ATOM      4  N   LIG    1       26.512 -13.559   2.369  0.00  0.00    -0.283 N 
ATOM      5  H   LIG    1       26.334 -12.983   1.554  0.00  0.00    +0.155 HD
ATOM      6  C   LIG    1       25.436 -14.214   2.978  0.00  0.00    +0.043 A 
ATOM      7  C   LIG    1       25.551 -15.238   3.927  0.00  0.00    +0.023 A 
ATOM      8  C   LIG    1       24.402 -15.706   4.588  0.00  0.00    +0.032 A 
ATOM      9  C   LIG    1       23.144 -15.234   4.222  0.00  0.00    +0.042 A 
ATOM     10  C   LIG    1       23.015 -14.288   3.211  0.00  0.00    +0.022 A 
ATOM     11 CL   LIG    1       21.738 -15.860   4.988  0.00  0.00    -0.084 Cl
ATOM     12  C   LIG    1       26.840 -15.960   4.143  0.00  0.00    +0.079 C 
ATOM     13  C   LIG    1       24.159 -13.778   2.593  0.00  0.00    +0.025 A 
ATOM     14  N   LIG    1       27.991 -15.390   4.264  0.00  0.00    -0.259 NA
ENDROOT
BRANCH  12  15
ATOM     15  C   LIG    1       26.831 -17.465   4.200  0.00  0.00    +0.036 A 
ATOM     16  C   LIG    1       25.863 -18.229   3.537  0.00  0.00    +0.133 A 
ATOM     17  F   LIG    1       24.915 -17.651   2.785  0.00  0.00    -0.205 F 
ATOM     18  C   LIG    1       25.862 -19.619   3.620  0.00  0.00    +0.039 A 
ATOM     19  C   LIG    1       26.861 -20.273   4.338  0.00  0.00    +0.003 A 
ATOM     20  C   LIG    1       27.856 -19.530   4.973  0.00  0.00    +0.001 A 
ATOM     21  C   LIG    1       27.842 -18.133   4.908  0.00  0.00    +0.013 A 
ENDBRANCH  12  15
BRANCH   1  22
ATOM     22  C   LIG    1       27.522 -13.206   5.401  0.00  0.00    +0.341 C 
ATOM     23  O   LIG    1       27.870 -13.313   6.567  0.00  0.00    -0.248 OA
BRANCH  22  24
ATOM     24  O   LIG    1       26.534 -12.362   4.976  0.00  0.00    -0.463 OA
BRANCH  24  26
ATOM     25  C   LIG    1       24.288 -11.447   5.141  0.00  0.00    +0.048 C 
ATOM     26  C   LIG    1       25.374 -12.262   5.815  0.00  0.00    +0.229 C 
ENDBRANCH  24  26
ENDBRANCH  22  24
ENDBRANCH   1  22
TORSDOF 4
ENDMDL
MODEL 7
REMARK VINA RESULT:       7.6      2.813      4.305
REMARK  Name = *****
REMARK                            x       y       z     vdW  Elec       q    Type
REMARK                         _______ _______ _______ _____ _____    ______ ____
ROOT
ATOM      1  C   LIG    1       26.115 -19.300   4.193  0.00  0.00    +0.299 C 
ATOM      2  C   LIG    1       25.581 -19.838   5.503  0.00  0.00    +0.253 C 
ATOM      3  O   LIG    1       26.296 -20.473   6.285  0.00  0.00    -0.273 OA
ATOM      4  N   LIG    1       24.254 -19.719   5.813  0.00  0.00    -0.283 N 
ATOM      5  H   LIG    1       24.005 -20.271   6.626  0.00  0.00    +0.155 HD
ATOM      6  C   LIG    1       23.229 -19.185   5.024  0.00  0.00    +0.043 A 
ATOM      7  C   LIG    1       23.401 -18.198   4.044  0.00  0.00    +0.023 A 
ATOM      8  C   LIG    1       22.327 -17.858   3.204  0.00  0.00    +0.032 A 
ATOM      9  C   LIG    1       21.069 -18.417   3.416  0.00  0.00    +0.042 A 
ATOM     10  C   LIG    1       20.870 -19.325   4.450  0.00  0.00    +0.022 A 
ATOM     11 CL   LIG    1       19.744 -17.946   2.428  0.00  0.00    -0.084 Cl
ATOM     12  C   LIG    1       24.649 -17.381   3.971  0.00  0.00    +0.079 C 
ATOM     13  C   LIG    1       21.948 -19.708   5.250  0.00  0.00    +0.025 A 
ATOM     14  N   LIG    1       25.846 -17.857   4.044  0.00  0.00    -0.259 NA
ENDROOT
BRANCH  12  15
ATOM     15  C   LIG    1       24.533 -15.885   3.829  0.00  0.00    +0.036 A 
ATOM     16  C   LIG    1       23.518 -15.155   4.458  0.00  0.00    +0.133 A 
ATOM     17  F   LIG    1       22.618 -15.754   5.251  0.00  0.00    -0.205 F 
ATOM     18  C   LIG    1       23.417 -13.775   4.297  0.00  0.00    +0.039 A 
ATOM     19  C   LIG    1       24.362 -13.095   3.532  0.00  0.00    +0.003 A 
ATOM     20  C   LIG    1       25.403 -13.801   2.929  0.00  0.00    +0.001 A 
ATOM     21  C   LIG    1       25.488 -15.190   3.073  0.00  0.00    +0.013 A 
ENDBRANCH  12  15
BRANCH   1  22
ATOM     22  C   LIG    1       25.714 -20.121   2.977  0.00  0.00    +0.341 C 
ATOM     23  O   LIG    1       25.812 -19.761   1.814  0.00  0.00    -0.248 OA
BRANCH  22  24
ATOM     24  O   LIG    1       25.279 -21.360   3.356  0.00  0.00    -0.463 OA
BRANCH  24  26
ATOM     25  C   LIG    1       23.271 -21.176   1.997  0.00  0.00    +0.048 C 
ATOM     26  C   LIG    1       23.858 -21.572   3.337  0.00  0.00    +0.229 C 
ENDBRANCH  24  26
ENDBRANCH  22  24
ENDBRANCH   1  22
TORSDOF 4
ENDMDL
MODEL 8
REMARK VINA RESULT:       7.7      1.623      2.106
REMARK  Name = *****
REMARK                            x       y       z     vdW  Elec       q    Type
REMARK                         _______ _______ _______ _____ _____    ______ ____
ROOT
ATOM      1  C   LIG    1       21.992 -17.322   4.397  0.00  0.00    +0.299 C 
ATOM      2  C   LIG    1       21.812 -18.336   3.287  0.00  0.00    +0.253 C 
ATOM      3  O   LIG    1       20.701 -18.583   2.807  0.00  0.00    -0.273 OA
ATOM      4  N   LIG    1       22.871 -19.083   2.852  0.00  0.00    -0.283 N 
ATOM      5  H   LIG    1       22.575 -19.835   2.239  0.00  0.00    +0.155 HD
ATOM      6  C   LIG    1       24.180 -19.094   3.347  0.00  0.00    +0.043 A 
ATOM      7  C   LIG    1       24.811 -18.011   3.973  0.00  0.00    +0.023 A 
ATOM      8  C   LIG    1       26.069 -18.192   4.574  0.00  0.00    +0.032 A 
ATOM      9  C   LIG    1       26.733 -19.410   4.452  0.00  0.00    +0.042 A 
ATOM     10  C   LIG    1       26.154 -20.459   3.747  0.00  0.00    +0.022 A 
ATOM     11 CL   LIG    1       28.301 -19.603   5.132  0.00  0.00    -0.084 Cl
ATOM     12  C   LIG    1       24.258 -16.627   3.882  0.00  0.00    +0.079 C 
ATOM     13  C   LIG    1       24.879 -20.301   3.198  0.00  0.00    +0.025 A 
ATOM     14  N   LIG    1       23.018 -16.317   4.058  0.00  0.00    -0.259 NA
ENDROOT
BRANCH  12  15
ATOM     15  C   LIG    1       25.187 -15.494   3.532  0.00  0.00    +0.036 A 
ATOM     16  C   LIG    1       24.715 -14.209   3.239  0.00  0.00    +0.133 A 
ATOM     17  F   LIG    1       23.407 -13.918   3.292  0.00  0.00    -0.205 F 
ATOM     18  C   LIG    1       25.591 -13.181   2.897  0.00  0.00    +0.039 A 
ATOM     19  C   LIG    1       26.965 -13.413   2.886  0.00  0.00    +0.003 A 
ATOM     20  C   LIG    1       27.455 -14.677   3.215  0.00  0.00    +0.001 A 
ATOM     21  C   LIG    1       26.572 -15.715   3.534  0.00  0.00    +0.013 A 
ENDBRANCH  12  15
BRANCH   1  22
ATOM     22  C   LIG    1       22.178 -17.938   5.775  0.00  0.00    +0.341 C 
ATOM     23  O   LIG    1       22.243 -17.320   6.826  0.00  0.00    -0.248 OA
BRANCH  22  24
ATOM     24  O   LIG    1       22.202 -19.302   5.692  0.00  0.00    -0.463 OA
BRANCH  24  26
ATOM     25  C   LIG    1       23.131 -21.468   6.291  0.00  0.00    +0.048 C 
ATOM     26  C   LIG    1       23.093 -19.982   6.590  0.00  0.00    +0.229 C 
ENDBRANCH  24  26
ENDBRANCH  22  24
ENDBRANCH   1  22
TORSDOF 4
ENDMDL
MODEL 9
REMARK VINA RESULT:       7.8      1.001      1.773
REMARK  Name = *****
REMARK                            x       y       z     vdW  Elec       q    Type
REMARK                         _______ _______ _______ _____ _____    ______ ____
ROOT
ATOM      1  C   LIG    1       23.687 -19.259   3.741  0.00  0.00    +0.299 C 
ATOM      2  C   LIG    1       24.405 -20.324   2.940  0.00  0.00    +0.253 C 
ATOM      3  O   LIG    1       23.794 -21.108   2.207  0.00  0.00    -0.273 OA
ATOM      4  N   LIG    1       25.752 -20.513   3.086  0.00  0.00    -0.283 N 
ATOM      5  H   LIG    1       26.065 -21.362   2.630  0.00  0.00    +0.155 HD
ATOM      6  C   LIG    1       26.623 -19.860   3.965  0.00  0.00    +0.043 A 
ATOM      7  C   LIG    1       26.444 -18.559   4.455  0.00  0.00    +0.023 A 
ATOM      8  C   LIG    1       27.299 -18.071   5.459  0.00  0.00    +0.032 A 
ATOM      9  C   LIG    1       28.385 -18.832   5.883  0.00  0.00    +0.042 A 
ATOM     10  C   LIG    1       28.625 -20.085   5.329  0.00  0.00    +0.022 A 
ATOM     11 CL   LIG    1       29.466 -18.201   7.062  0.00  0.00    -0.084 Cl
ATOM     12  C   LIG    1       25.470 -17.617   3.830  0.00  0.00    +0.079 C 
ATOM     13  C   LIG    1       27.744 -20.597   4.374  0.00  0.00    +0.025 A 
ATOM     14  N   LIG    1       24.259 -17.919   3.504  0.00  0.00    -0.259 NA
ENDROOT
BRANCH  12  15
ATOM     15  C   LIG    1       25.914 -16.211   3.517  0.00  0.00    +0.036 A 
ATOM     16  C   LIG    1       25.010 -15.145   3.442  0.00  0.00    +0.133 A 
ATOM     17  F   LIG    1       23.703 -15.321   3.683  0.00  0.00    -0.205 F 
ATOM     18  C   LIG    1       25.441 -13.857   3.132  0.00  0.00    +0.039 A 
ATOM     19  C   LIG    1       26.797 -13.607   2.932  0.00  0.00    +0.003 A 
ATOM     20  C   LIG    1       27.716 -14.650   3.041  0.00  0.00    +0.001 A 
ATOM     21  C   LIG    1       27.279 -15.947   3.330  0.00  0.00    +0.013 A 
ENDBRANCH  12  15
BRANCH   1  22
ATOM     22  C   LIG    1       23.523 -19.597   5.215  0.00  0.00    +0.341 C 
ATOM     23  O   LIG    1       24.165 -20.438   5.826  0.00  0.00    -0.248 OA
BRANCH  22  24
ATOM     24  O   LIG    1       22.590 -18.783   5.794  0.00  0.00    -0.463 OA
BRANCH  24  26
ATOM     25  C   LIG    1       21.895 -16.474   5.482  0.00  0.00    +0.048 C 
ATOM     26  C   LIG    1       21.897 -17.881   4.917  0.00  0.00    +0.229 C 
ENDBRANCH  24  26
ENDBRANCH  22  24
ENDBRANCH   1  22
TORSDOF 4
ENDMDL
