MODEL 1
REMARK VINA RESULT:      -8.7      0.000      0.000
REMARK  Name = *****
REMARK                            x       y       z     vdW  Elec       q    Type
REMARK                         _______ _______ _______ _____ _____    ______ ____
ROOT
ATOM      1  C   LIG    1       25.277 -21.871   6.765  0.00  0.00    +0.179 C 
ENDROOT
BRANCH   1   4
ATOM      2  C   LIG    1       22.497 -23.185   6.767  0.00  0.00    +0.044 C 
ATOM      3  C   LIG    1       23.770 -23.971   6.579  0.00  0.00    -0.044 A 
ATOM      4  C   LIG    1       25.057 -23.382   6.619  0.00  0.00    -0.012 A 
ATOM      5  C   LIG    1       26.180 -24.226   6.470  0.00  0.00    +0.007 A 
ATOM      6  C   LIG    1       26.041 -25.601   6.285  0.00  0.00    +0.000 A 
ATOM      7  C   LIG    1       24.780 -26.166   6.237  0.00  0.00    +0.000 A 
ATOM      8  C   LIG    1       23.651 -25.361   6.384  0.00  0.00    +0.003 A 
ENDBRANCH   1   4
BRANCH   1   9
ATOM      9  C   LIG    1       24.458 -20.998   5.835  0.00  0.00    -0.015 A 
ATOM     10  C   LIG    1       23.308 -20.327   6.269  0.00  0.00    +0.006 A 
ATOM     11  C   LIG    1       22.576 -19.527   5.390  0.00  0.00    +0.000 A 
ATOM     12  C   LIG    1       22.995 -19.382   4.065  0.00  0.00    +0.000 A 
ATOM     13  C   LIG    1       24.146 -20.022   3.626  0.00  0.00    +0.000 A 
ATOM     14  C   LIG    1       24.881 -20.820   4.503  0.00  0.00    +0.006 A 
ENDBRANCH   1   9
BRANCH   1  15
ATOM     15  O   LIG    1       24.973 -21.413   8.099  0.00  0.00    -0.366 OA
BRANCH  15  16
ATOM     16  C   LIG    1       26.050 -20.654   8.647  0.00  0.00    +0.176 C 
BRANCH  16  17
ATOM     17  C   LIG    1       27.393 -21.072   8.020  0.00  0.00    +0.112 C 
BRANCH  17  18
ATOM     18  N   LIG    1       28.215 -19.971   7.476  0.00  0.00    -0.306 NA
ATOM     19  C   LIG    1       28.198 -19.946   6.015  0.00  0.00    +0.104 C 
ATOM     20  C   LIG    1       29.587 -20.014   7.979  0.00  0.00    +0.104 C 
ENDBRANCH  17  18
ENDBRANCH  16  17
ENDBRANCH  15  16
ENDBRANCH   1  15
TORSDOF 6
ENDMDL
MODEL 2
REMARK VINA RESULT:      -8.6      1.908      4.725
REMARK  Name = *****
REMARK                            x       y       z     vdW  Elec       q    Type
REMARK                         _______ _______ _______ _____ _____    ______ ____
ROOT
ATOM      1  C   LIG    1       25.190 -21.231   6.127  0.00  0.00    +0.179 C 
ENDROOT
BRANCH   1   4
ATOM      2  C   LIG    1       25.945 -20.710   9.062  0.00  0.00    +0.044 C 
ATOM      3  C   LIG    1       26.888 -20.438   7.916  0.00  0.00    -0.044 A 
ATOM      4  C   LIG    1       26.535 -20.634   6.559  0.00  0.00    -0.012 A 
ATOM      5  C   LIG    1       27.488 -20.307   5.570  0.00  0.00    +0.007 A 
ATOM      6  C   LIG    1       28.746 -19.807   5.904  0.00  0.00    +0.000 A 
ATOM      7  C   LIG    1       29.086 -19.629   7.233  0.00  0.00    +0.000 A 
ATOM      8  C   LIG    1       28.166 -19.939   8.234  0.00  0.00    +0.003 A 
ENDBRANCH   1   4
BRANCH   1   9
ATOM      9  C   LIG    1       24.285 -20.304   5.340  0.00  0.00    -0.015 A 
ATOM     10  C   LIG    1       24.693 -19.716   4.136  0.00  0.00    +0.006 A 
ATOM     11  C   LIG    1       23.836 -18.869   3.431  0.00  0.00    +0.000 A 
ATOM     12  C   LIG    1       22.553 -18.609   3.921  0.00  0.00    +0.000 A 
ATOM     13  C   LIG    1       22.126 -19.203   5.101  0.00  0.00    +0.000 A 
ATOM     14  C   LIG    1       22.980 -20.053   5.806  0.00  0.00    +0.006 A 
ENDBRANCH   1   9
BRANCH   1  15
ATOM     15  O   LIG    1       25.365 -22.401   5.301  0.00  0.00    -0.366 OA
BRANCH  15  16
ATOM     16  C   LIG    1       24.777 -23.554   5.901  0.00  0.00    +0.176 C 
BRANCH  16  17
ATOM     17  C   LIG    1       25.845 -24.418   6.597  0.00  0.00    +0.112 C 
BRANCH  17  18
ATOM     18  N   LIG    1       26.161 -25.701   5.937  0.00  0.00    -0.306 NA
ATOM     19  C   LIG    1       25.351 -25.916   4.741  0.00  0.00    +0.104 C 
ATOM     20  C   LIG    1       26.042 -26.832   6.856  0.00  0.00    +0.104 C 
ENDBRANCH  17  18
ENDBRANCH  16  17
ENDBRANCH  15  16
ENDBRANCH   1  15
TORSDOF 6
ENDMDL
MODEL 3
REMARK VINA RESULT:      -8.4      1.278      4.291
REMARK  Name = *****
REMARK                            x       y       z     vdW  Elec       q    Type
REMARK                         _______ _______ _______ _____ _____    ______ ____
ROOT
ATOM      1  C   LIG    1       25.444 -22.767   6.836  0.00  0.00    +0.179 C 
ENDROOT
BRANCH   1   4
ATOM      2  C   LIG    1       22.370 -22.817   6.902  0.00  0.00    +0.044 C 
ATOM      3  C   LIG    1       23.152 -21.823   6.081  0.00  0.00    -0.044 A 
ATOM      4  C   LIG    1       24.567 -21.818   6.010  0.00  0.00    -0.012 A 
ATOM      5  C   LIG    1       25.188 -20.863   5.176  0.00  0.00    +0.007 A 
ATOM      6  C   LIG    1       24.444 -19.942   4.439  0.00  0.00    +0.000 A 
ATOM      7  C   LIG    1       23.063 -19.947   4.523  0.00  0.00    +0.000 A 
ATOM      8  C   LIG    1       22.419 -20.880   5.335  0.00  0.00    +0.003 A 
ENDBRANCH   1   4
BRANCH   1   9
ATOM      9  C   LIG    1       25.488 -24.204   6.354  0.00  0.00    -0.015 A 
ATOM     10  C   LIG    1       25.871 -25.256   7.195  0.00  0.00    +0.006 A 
ATOM     11  C   LIG    1       25.899 -26.571   6.724  0.00  0.00    +0.000 A 
ATOM     12  C   LIG    1       25.532 -26.846   5.404  0.00  0.00    +0.000 A 
ATOM     13  C   LIG    1       25.128 -25.816   4.565  0.00  0.00    +0.000 A 
ATOM     14  C   LIG    1       25.097 -24.503   5.034  0.00  0.00    +0.006 A 
ENDBRANCH   1   9
BRANCH   1  15
ATOM     15  O   LIG    1       26.817 -22.327   6.876  0.00  0.00    -0.366 OA
BRANCH  15  16
ATOM     16  C   LIG    1       27.081 -21.551   8.043  0.00  0.00    +0.176 C 
BRANCH  16  17
ATOM     17  C   LIG    1       27.887 -20.287   7.693  0.00  0.00    +0.112 C 
BRANCH  17  18
ATOM     18  N   LIG    1       29.152 -20.108   8.435  0.00  0.00    -0.306 NA
ATOM     19  C   LIG    1       29.812 -18.849   8.098  0.00  0.00    +0.104 C 
ATOM     20  C   LIG    1       30.061 -21.238   8.246  0.00  0.00    +0.104 C 
ENDBRANCH  17  18
ENDBRANCH  16  17
ENDBRANCH  15  16
ENDBRANCH   1  15
TORSDOF 6
ENDMDL
MODEL 4
REMARK VINA RESULT:      -8.4      1.867      5.370
REMARK  Name = *****
REMARK                            x       y       z     vdW  Elec       q    Type
REMARK                         _______ _______ _______ _____ _____    ______ ____
ROOT
ATOM      1  C   LIG    1       25.922 -21.474   5.866  0.00  0.00    +0.179 C 
ENDROOT
BRANCH   1   4
ATOM      2  C   LIG    1       23.289 -21.036   7.392  0.00  0.00    +0.044 C 
ATOM      3  C   LIG    1       23.568 -20.409   6.049  0.00  0.00    -0.044 A 
ATOM      4  C   LIG    1       24.759 -20.638   5.318  0.00  0.00    -0.012 A 
ATOM      5  C   LIG    1       24.892 -20.028   4.052  0.00  0.00    +0.007 A 
ATOM      6  C   LIG    1       23.888 -19.217   3.523  0.00  0.00    +0.000 A 
ATOM      7  C   LIG    1       22.732 -18.990   4.248  0.00  0.00    +0.000 A 
ATOM      8  C   LIG    1       22.569 -19.580   5.501  0.00  0.00    +0.003 A 
ENDBRANCH   1   4
BRANCH   1   9
ATOM      9  C   LIG    1       27.096 -20.685   6.412  0.00  0.00    -0.015 A 
ATOM     10  C   LIG    1       27.968 -19.979   5.574  0.00  0.00    +0.006 A 
ATOM     11  C   LIG    1       29.039 -19.259   6.107  0.00  0.00    +0.000 A 
ATOM     12  C   LIG    1       29.242 -19.229   7.489  0.00  0.00    +0.000 A 
ATOM     13  C   LIG    1       28.373 -19.906   8.333  0.00  0.00    +0.000 A 
ATOM     14  C   LIG    1       27.300 -20.624   7.804  0.00  0.00    +0.006 A 
ENDBRANCH   1   9
BRANCH   1  15
ATOM     15  O   LIG    1       25.500 -22.339   6.941  0.00  0.00    -0.366 OA
BRANCH  15  16
ATOM     16  C   LIG    1       25.912 -23.687   6.717  0.00  0.00    +0.176 C 
BRANCH  16  17
ATOM     17  C   LIG    1       25.206 -24.282   5.485  0.00  0.00    +0.112 C 
BRANCH  17  18
ATOM     18  N   LIG    1       25.317 -25.746   5.328  0.00  0.00    -0.306 NA
ATOM     19  C   LIG    1       24.143 -26.443   5.847  0.00  0.00    +0.104 C 
ATOM     20  C   LIG    1       26.541 -26.269   5.933  0.00  0.00    +0.104 C 
ENDBRANCH  17  18
ENDBRANCH  16  17
ENDBRANCH  15  16
ENDBRANCH   1  15
TORSDOF 6
ENDMDL
MODEL 5
REMARK VINA RESULT:      -8.0      1.001      4.614
REMARK  Name = *****
REMARK                            x       y       z     vdW  Elec       q    Type
REMARK                         _______ _______ _______ _____ _____    ______ ____
ROOT
ATOM      1  C   LIG    1       25.163 -21.415   6.953  0.00  0.00    +0.179 C 
ENDROOT
BRANCH   1   4
ATOM      2  C   LIG    1       26.575 -20.111   4.553  0.00  0.00    +0.044 C 
ATOM      3  C   LIG    1       25.096 -19.964   4.808  0.00  0.00    -0.044 A 
ATOM      4  C   LIG    1       24.443 -20.525   5.933  0.00  0.00    -0.012 A 
ATOM      5  C   LIG    1       23.060 -20.287   6.088  0.00  0.00    +0.007 A 
ATOM      6  C   LIG    1       22.342 -19.525   5.166  0.00  0.00    +0.000 A 
ATOM      7  C   LIG    1       22.985 -18.990   4.064  0.00  0.00    +0.000 A 
ATOM      8  C   LIG    1       24.352 -19.205   3.884  0.00  0.00    +0.003 A 
ENDBRANCH   1   4
BRANCH   1   9
ATOM      9  C   LIG    1       24.983 -22.908   6.761  0.00  0.00    -0.015 A 
ATOM     10  C   LIG    1       26.072 -23.789   6.733  0.00  0.00    +0.006 A 
ATOM     11  C   LIG    1       25.875 -25.160   6.557  0.00  0.00    +0.000 A 
ATOM     12  C   LIG    1       24.580 -25.666   6.418  0.00  0.00    +0.000 A 
ATOM     13  C   LIG    1       23.489 -24.808   6.466  0.00  0.00    +0.000 A 
ATOM     14  C   LIG    1       23.684 -23.438   6.644  0.00  0.00    +0.006 A 
ENDBRANCH   1   9
BRANCH   1  15
ATOM     15  O   LIG    1       26.588 -21.190   6.948  0.00  0.00    -0.366 OA
BRANCH  15  16
ATOM     16  C   LIG    1       27.024 -20.584   8.164  0.00  0.00    +0.176 C 
BRANCH  16  17
ATOM     17  C   LIG    1       28.285 -19.731   7.933  0.00  0.00    +0.112 C 
BRANCH  17  18
ATOM     18  N   LIG    1       29.443 -20.445   7.356  0.00  0.00    -0.306 NA
ATOM     19  C   LIG    1       30.123 -21.276   8.345  0.00  0.00    +0.104 C 
ATOM     20  C   LIG    1       30.383 -19.529   6.711  0.00  0.00    +0.104 C 
ENDBRANCH  17  18
ENDBRANCH  16  17
ENDBRANCH  15  16
ENDBRANCH   1  15
TORSDOF 6
ENDMDL
MODEL 6
REMARK VINA RESULT:      -7.9      1.885      5.591
REMARK  Name = *****
REMARK                            x       y       z     vdW  Elec       q    Type
REMARK                         _______ _______ _______ _____ _____    ______ ____
ROOT
ATOM      1  C   LIG    1       25.513 -21.310   5.581  0.00  0.00    +0.179 C 
ENDROOT
BRANCH   1   4
ATOM      2  C   LIG    1       25.793 -19.484   3.122  0.00  0.00    +0.044 C 
ATOM      3  C   LIG    1       24.549 -19.520   3.974  0.00  0.00    -0.044 A 
ATOM      4  C   LIG    1       24.426 -20.325   5.133  0.00  0.00    -0.012 A 
ATOM      5  C   LIG    1       23.227 -20.245   5.875  0.00  0.00    +0.007 A 
ATOM      6  C   LIG    1       22.184 -19.404   5.488  0.00  0.00    +0.000 A 
ATOM      7  C   LIG    1       22.309 -18.629   4.350  0.00  0.00    +0.000 A 
ATOM      8  C   LIG    1       23.482 -18.683   3.597  0.00  0.00    +0.003 A 
ENDBRANCH   1   4
BRANCH   1   9
ATOM      9  C   LIG    1       26.667 -20.704   6.356  0.00  0.00    -0.015 A 
ATOM     10  C   LIG    1       26.709 -20.721   7.756  0.00  0.00    +0.006 A 
ATOM     11  C   LIG    1       27.786 -20.158   8.443  0.00  0.00    +0.000 A 
ATOM     12  C   LIG    1       28.841 -19.579   7.732  0.00  0.00    +0.000 A 
ATOM     13  C   LIG    1       28.824 -19.575   6.343  0.00  0.00    +0.000 A 
ATOM     14  C   LIG    1       27.750 -20.140   5.655  0.00  0.00    +0.006 A 
ENDBRANCH   1   9
BRANCH   1  15
ATOM     15  O   LIG    1       24.978 -22.350   6.426  0.00  0.00    -0.366 OA
BRANCH  15  16
ATOM     16  C   LIG    1       25.024 -23.621   5.780  0.00  0.00    +0.176 C 
BRANCH  16  17
ATOM     17  C   LIG    1       25.888 -24.613   6.580  0.00  0.00    +0.112 C 
BRANCH  17  18
ATOM     18  N   LIG    1       25.521 -26.038   6.442  0.00  0.00    -0.306 NA
ATOM     19  C   LIG    1       26.528 -26.794   5.702  0.00  0.00    +0.104 C 
ATOM     20  C   LIG    1       24.199 -26.205   5.841  0.00  0.00    +0.104 C 
ENDBRANCH  17  18
ENDBRANCH  16  17
ENDBRANCH  15  16
ENDBRANCH   1  15
TORSDOF 6
ENDMDL
MODEL 7
REMARK VINA RESULT:      -7.6      1.980      4.573
REMARK  Name = *****
REMARK                            x       y       z     vdW  Elec       q    Type
REMARK                         _______ _______ _______ _____ _____    ______ ____
ROOT
ATOM      1  C   LIG    1       25.519 -21.033   5.743  0.00  0.00    +0.179 C 
ENDROOT
BRANCH   1   4
ATOM      2  C   LIG    1       23.107 -21.480   7.598  0.00  0.00    +0.044 C 
ATOM      3  C   LIG    1       23.749 -22.596   6.812  0.00  0.00    -0.044 A 
ATOM      4  C   LIG    1       24.886 -22.409   5.989  0.00  0.00    -0.012 A 
ATOM      5  C   LIG    1       25.425 -23.537   5.331  0.00  0.00    +0.007 A 
ATOM      6  C   LIG    1       24.863 -24.804   5.477  0.00  0.00    +0.000 A 
ATOM      7  C   LIG    1       23.746 -24.976   6.275  0.00  0.00    +0.000 A 
ATOM      8  C   LIG    1       23.192 -23.882   6.940  0.00  0.00    +0.003 A 
ENDBRANCH   1   4
BRANCH   1   9
ATOM      9  C   LIG    1       26.883 -20.819   6.370  0.00  0.00    -0.015 A 
ATOM     10  C   LIG    1       27.286 -21.505   7.521  0.00  0.00    +0.006 A 
ATOM     11  C   LIG    1       28.550 -21.289   8.074  0.00  0.00    +0.000 A 
ATOM     12  C   LIG    1       29.430 -20.387   7.470  0.00  0.00    +0.000 A 
ATOM     13  C   LIG    1       29.053 -19.716   6.314  0.00  0.00    +0.000 A 
ATOM     14  C   LIG    1       27.791 -19.932   5.759  0.00  0.00    +0.006 A 
ENDBRANCH   1   9
BRANCH   1  15
ATOM     15  O   LIG    1       25.689 -20.766   4.336  0.00  0.00    -0.366 OA
BRANCH  15  16
ATOM     16  C   LIG    1       24.432 -20.609   3.680  0.00  0.00    +0.176 C 
BRANCH  16  17
ATOM     17  C   LIG    1       23.892 -19.179   3.858  0.00  0.00    +0.112 C 
BRANCH  17  18
ATOM     18  N   LIG    1       22.713 -19.044   4.737  0.00  0.00    -0.306 NA
ATOM     19  C   LIG    1       21.822 -20.198   4.639  0.00  0.00    +0.104 C 
ATOM     20  C   LIG    1       21.983 -17.802   4.488  0.00  0.00    +0.104 C 
ENDBRANCH  17  18
ENDBRANCH  16  17
ENDBRANCH  15  16
ENDBRANCH   1  15
TORSDOF 6
ENDMDL
MODEL 8
REMARK VINA RESULT:      -7.4      1.057      1.652
REMARK  Name = *****
REMARK                            x       y       z     vdW  Elec       q    Type
REMARK                         _______ _______ _______ _____ _____    ______ ____
ROOT
ATOM      1  C   LIG    1       25.462 -21.554   5.996  0.00  0.00    +0.179 C 
ENDROOT
BRANCH   1   4
ATOM      2  C   LIG    1       22.950 -22.347   7.582  0.00  0.00    +0.044 C 
ATOM      3  C   LIG    1       23.724 -23.327   6.736  0.00  0.00    -0.044 A 
ATOM      4  C   LIG    1       24.905 -22.983   6.036  0.00  0.00    -0.012 A 
ATOM      5  C   LIG    1       25.567 -23.996   5.307  0.00  0.00    +0.007 A 
ATOM      6  C   LIG    1       25.081 -25.302   5.267  0.00  0.00    +0.000 A 
ATOM      7  C   LIG    1       23.920 -25.627   5.945  0.00  0.00    +0.000 A 
ATOM      8  C   LIG    1       23.245 -24.650   6.676  0.00  0.00    +0.003 A 
ENDBRANCH   1   4
BRANCH   1   9
ATOM      9  C   LIG    1       24.605 -20.538   5.266  0.00  0.00    -0.015 A 
ATOM     10  C   LIG    1       25.039 -19.907   4.094  0.00  0.00    +0.006 A 
ATOM     11  C   LIG    1       24.226 -18.977   3.443  0.00  0.00    +0.000 A 
ATOM     12  C   LIG    1       22.962 -18.676   3.955  0.00  0.00    +0.000 A 
ATOM     13  C   LIG    1       22.508 -19.310   5.104  0.00  0.00    +0.000 A 
ATOM     14  C   LIG    1       23.318 -20.242   5.755  0.00  0.00    +0.006 A 
ENDBRANCH   1   9
BRANCH   1  15
ATOM     15  O   LIG    1       25.659 -21.019   7.321  0.00  0.00    -0.366 OA
BRANCH  15  16
ATOM     16  C   LIG    1       26.914 -20.349   7.431  0.00  0.00    +0.176 C 
BRANCH  16  17
ATOM     17  C   LIG    1       28.051 -21.352   7.699  0.00  0.00    +0.112 C 
BRANCH  17  18
ATOM     18  N   LIG    1       29.420 -20.799   7.633  0.00  0.00    -0.306 NA
ATOM     19  C   LIG    1       30.332 -21.486   8.544  0.00  0.00    +0.104 C 
ATOM     20  C   LIG    1       29.439 -19.356   7.868  0.00  0.00    +0.104 C 
ENDBRANCH  17  18
ENDBRANCH  16  17
ENDBRANCH  15  16
ENDBRANCH   1  15
TORSDOF 6
ENDMDL
MODEL 9
REMARK VINA RESULT:      -6.6      2.244      5.508
REMARK  Name = *****
REMARK                            x       y       z     vdW  Elec       q    Type
REMARK                         _______ _______ _______ _____ _____    ______ ____
ROOT
ATOM      1  C   LIG    1       26.743 -20.754   5.415  0.00  0.00    +0.179 C 
ENDROOT
BRANCH   1   4
ATOM      2  C   LIG    1       28.589 -18.328   5.016  0.00  0.00    +0.044 C 
ATOM      3  C   LIG    1       28.811 -19.352   6.100  0.00  0.00    -0.044 A 
ATOM      4  C   LIG    1       27.993 -20.496   6.266  0.00  0.00    -0.012 A 
ATOM      5  C   LIG    1       28.322 -21.408   7.293  0.00  0.00    +0.007 A 
ATOM      6  C   LIG    1       29.417 -21.200   8.130  0.00  0.00    +0.000 A 
ATOM      7  C   LIG    1       30.205 -20.075   7.968  0.00  0.00    +0.000 A 
ATOM      8  C   LIG    1       29.909 -19.157   6.961  0.00  0.00    +0.003 A 
ENDBRANCH   1   4
BRANCH   1   9
ATOM      9  C   LIG    1       25.562 -21.355   6.151  0.00  0.00    -0.015 A 
ATOM     10  C   LIG    1       24.873 -20.651   7.146  0.00  0.00    +0.006 A 
ATOM     11  C   LIG    1       23.786 -21.229   7.805  0.00  0.00    +0.000 A 
ATOM     12  C   LIG    1       23.371 -22.519   7.465  0.00  0.00    +0.000 A 
ATOM     13  C   LIG    1       24.030 -23.221   6.465  0.00  0.00    +0.000 A 
ATOM     14  C   LIG    1       25.114 -22.644   5.804  0.00  0.00    +0.006 A 
ENDBRANCH   1   9
BRANCH   1  15
ATOM     15  O   LIG    1       26.249 -19.542   4.807  0.00  0.00    -0.366 OA
BRANCH  15  16
ATOM     16  C   LIG    1       25.364 -19.825   3.725  0.00  0.00    +0.176 C 
BRANCH  16  17
ATOM     17  C   LIG    1       24.207 -18.811   3.680  0.00  0.00    +0.112 C 
BRANCH  17  18
ATOM     18  N   LIG    1       23.078 -19.087   4.591  0.00  0.00    -0.306 NA
ATOM     19  C   LIG    1       22.527 -20.426   4.391  0.00  0.00    +0.104 C 
ATOM     20  C   LIG    1       22.030 -18.073   4.487  0.00  0.00    +0.104 C 
ENDBRANCH  17  18
ENDBRANCH  16  17
ENDBRANCH  15  16
ENDBRANCH   1  15
TORSDOF 6
ENDMDL
