MODEL 1
REMARK VINA RESULT:      -9.0      0.000      0.000
REMARK  Name = *****
REMARK                            x       y       z     vdW  Elec       q    Type
REMARK                         _______ _______ _______ _____ _____    ______ ____
ROOT
ATOM      1  C   LIG    1       30.879 -20.144   7.451  0.00  0.00    +0.146 C 
ATOM      2  C   LIG    1       29.459 -20.097   7.013  0.00  0.00    +0.033 C 
ATOM      3  N   LIG    1       28.652 -20.780   7.884  0.00  0.00    -0.341 NA
ATOM      4  C   LIG    1       27.346 -20.716   7.507  0.00  0.00    +0.090 C 
ATOM      5  C   LIG    1       27.357 -19.992   6.310  0.00  0.00    +0.031 C 
ATOM      6  C   LIG    1       29.409 -21.460   8.925  0.00  0.00    +0.123 C 
ATOM      7  C   LIG    1       28.694 -19.634   5.980  0.00  0.00    +0.024 C 
ATOM      8  C   LIG    1       30.852 -21.391   8.374  0.00  0.00    +0.042 C 
ENDROOT
BRANCH   1  10
ATOM      9  O   LIG    1       30.994 -17.782   7.939  0.00  0.00    -0.250 OA
ATOM     10  C   LIG    1       31.333 -18.920   8.243  0.00  0.00    +0.314 C 
BRANCH  10  11
ATOM     11  O   LIG    1       32.133 -19.143   9.308  0.00  0.00    -0.480 OA
ATOM     12  H   LIG    1       32.406 -20.074   9.425  0.00  0.00    +0.295 HD
ENDBRANCH  10  11
ENDBRANCH   1  10
BRANCH   4  13
ATOM     13  C   LIG    1       26.219 -21.260   8.257  0.00  0.00    +0.209 C 
ATOM     14  O   LIG    1       25.920 -20.855   9.375  0.00  0.00    -0.285 OA
BRANCH  13  15
ATOM     15  C   LIG    1       25.376 -22.338   7.637  0.00  0.00    +0.024 C 
ATOM     16  C   LIG    1       24.002 -22.159   7.419  0.00  0.00    +0.012 C 
ATOM     17  C   LIG    1       23.233 -23.179   6.853  0.00  0.00    +0.001 C 
ATOM     18  C   LIG    1       23.833 -24.378   6.478  0.00  0.00    +0.000 C 
ATOM     19  C   LIG    1       25.205 -24.555   6.655  0.00  0.00    +0.001 C 
ATOM     20  C   LIG    1       25.975 -23.536   7.229  0.00  0.00    +0.012 C 
ENDBRANCH  13  15
ENDBRANCH   4  13
TORSDOF 4
ENDMDL
MODEL 2
REMARK VINA RESULT:      -8.6      1.891      2.588
REMARK  Name = *****
REMARK                            x       y       z     vdW  Elec       q    Type
REMARK                         _______ _______ _______ _____ _____    ______ ____
ROOT
ATOM      1  C   LIG    1       31.087 -19.653   7.976  0.00  0.00    +0.146 C 
ATOM      2  C   LIG    1       29.927 -19.546   7.052  0.00  0.00    +0.033 C 
ATOM      3  N   LIG    1       29.008 -20.532   7.300  0.00  0.00    -0.341 NA
ATOM      4  C   LIG    1       27.928 -20.424   6.480  0.00  0.00    +0.090 C 
ATOM      5  C   LIG    1       28.222 -19.339   5.647  0.00  0.00    +0.031 C 
ATOM      6  C   LIG    1       29.466 -21.476   8.310  0.00  0.00    +0.123 C 
ATOM      7  C   LIG    1       29.499 -18.810   5.984  0.00  0.00    +0.024 C 
ATOM      8  C   LIG    1       30.971 -21.138   8.411  0.00  0.00    +0.042 C 
ENDROOT
BRANCH   1  10
ATOM      9  O   LIG    1       31.981 -18.473   9.884  0.00  0.00    -0.250 OA
ATOM     10  C   LIG    1       31.001 -18.743   9.199  0.00  0.00    +0.314 C 
BRANCH  10  11
ATOM     11  O   LIG    1       29.785 -18.240   9.502  0.00  0.00    -0.480 OA
ATOM     12  H   LIG    1       29.645 -17.315   9.220  0.00  0.00    +0.295 HD
ENDBRANCH  10  11
ENDBRANCH   1  10
BRANCH   4  13
ATOM     13  C   LIG    1       26.732 -21.257   6.537  0.00  0.00    +0.209 C 
ATOM     14  O   LIG    1       26.733 -22.366   7.062  0.00  0.00    -0.285 OA
BRANCH  13  15
ATOM     15  C   LIG    1       25.447 -20.739   5.959  0.00  0.00    +0.024 C 
ATOM     16  C   LIG    1       25.377 -20.257   4.643  0.00  0.00    +0.012 C 
ATOM     17  C   LIG    1       24.174 -19.767   4.128  0.00  0.00    +0.001 C 
ATOM     18  C   LIG    1       23.025 -19.776   4.913  0.00  0.00    +0.000 C 
ATOM     19  C   LIG    1       23.071 -20.287   6.209  0.00  0.00    +0.001 C 
ATOM     20  C   LIG    1       24.278 -20.772   6.730  0.00  0.00    +0.012 C 
ENDBRANCH  13  15
ENDBRANCH   4  13
TORSDOF 4
ENDMDL
MODEL 3
REMARK VINA RESULT:      -8.5      2.768      3.782
REMARK  Name = *****
REMARK                            x       y       z     vdW  Elec       q    Type
REMARK                         _______ _______ _______ _____ _____    ______ ____
ROOT
ATOM      1  C   LIG    1       29.256 -19.537   7.879  0.00  0.00    +0.146 C 
ATOM      2  C   LIG    1       27.868 -20.049   8.031  0.00  0.00    +0.033 C 
ATOM      3  N   LIG    1       27.318 -20.349   6.813  0.00  0.00    -0.341 NA
ATOM      4  C   LIG    1       26.058 -20.847   6.944  0.00  0.00    +0.090 C 
ATOM      5  C   LIG    1       25.802 -20.806   8.318  0.00  0.00    +0.031 C 
ATOM      6  C   LIG    1       28.187 -19.978   5.705  0.00  0.00    +0.123 C 
ATOM      7  C   LIG    1       26.929 -20.268   8.999  0.00  0.00    +0.024 C 
ATOM      8  C   LIG    1       29.228 -19.071   6.400  0.00  0.00    +0.042 C 
ENDROOT
BRANCH   1  10
ATOM      9  O   LIG    1       30.154 -21.607   8.738  0.00  0.00    -0.250 OA
ATOM     10  C   LIG    1       30.339 -20.595   8.072  0.00  0.00    +0.314 C 
BRANCH  10  11
ATOM     11  O   LIG    1       31.528 -20.370   7.471  0.00  0.00    -0.480 OA
ATOM     12  H   LIG    1       31.712 -20.946   6.704  0.00  0.00    +0.295 HD
ENDBRANCH  10  11
ENDBRANCH   1  10
BRANCH   4  13
ATOM     13  C   LIG    1       25.226 -21.346   5.855  0.00  0.00    +0.209 C 
ATOM     14  O   LIG    1       25.243 -22.521   5.504  0.00  0.00    -0.285 OA
BRANCH  13  15
ATOM     15  C   LIG    1       24.295 -20.401   5.150  0.00  0.00    +0.024 C 
ATOM     16  C   LIG    1       24.696 -19.699   4.003  0.00  0.00    +0.012 C 
ATOM     17  C   LIG    1       23.819 -18.815   3.369  0.00  0.00    +0.001 C 
ATOM     18  C   LIG    1       22.528 -18.641   3.859  0.00  0.00    +0.000 C 
ATOM     19  C   LIG    1       22.105 -19.361   4.976  0.00  0.00    +0.001 C 
ATOM     20  C   LIG    1       22.985 -20.242   5.617  0.00  0.00    +0.012 C 
ENDBRANCH  13  15
ENDBRANCH   4  13
TORSDOF 4
ENDMDL
MODEL 4
REMARK VINA RESULT:      -8.3      2.552      6.251
REMARK  Name = *****
REMARK                            x       y       z     vdW  Elec       q    Type
REMARK                         _______ _______ _______ _____ _____    ______ ____
ROOT
ATOM      1  C   LIG    1       24.415 -24.975   6.218  0.00  0.00    +0.146 C 
ATOM      2  C   LIG    1       24.100 -23.604   6.698  0.00  0.00    +0.033 C 
ATOM      3  N   LIG    1       25.182 -23.040   7.319  0.00  0.00    -0.341 NA
ATOM      4  C   LIG    1       24.913 -21.772   7.736  0.00  0.00    +0.090 C 
ATOM      5  C   LIG    1       23.573 -21.564   7.394  0.00  0.00    +0.031 C 
ATOM      6  C   LIG    1       26.298 -23.967   7.444  0.00  0.00    +0.123 C 
ATOM      7  C   LIG    1       23.050 -22.733   6.773  0.00  0.00    +0.024 C 
ATOM      8  C   LIG    1       25.629 -25.323   7.120  0.00  0.00    +0.042 C 
ENDROOT
BRANCH   1  10
ATOM      9  O   LIG    1       25.212 -26.086   4.227  0.00  0.00    -0.250 OA
ATOM     10  C   LIG    1       24.822 -25.047   4.748  0.00  0.00    +0.314 C 
BRANCH  10  11
ATOM     11  O   LIG    1       24.735 -23.904   4.033  0.00  0.00    -0.480 OA
ATOM     12  H   LIG    1       23.873 -23.763   3.594  0.00  0.00    +0.295 HD
ENDBRANCH  10  11
ENDBRANCH   1  10
BRANCH   4  13
ATOM     13  C   LIG    1       25.869 -20.860   8.353  0.00  0.00    +0.209 C 
ATOM     14  O   LIG    1       25.781 -20.518   9.528  0.00  0.00    -0.285 OA
BRANCH  13  15
ATOM     15  C   LIG    1       27.018 -20.337   7.539  0.00  0.00    +0.024 C 
ATOM     16  C   LIG    1       26.925 -20.201   6.145  0.00  0.00    +0.012 C 
ATOM     17  C   LIG    1       28.010 -19.724   5.404  0.00  0.00    +0.001 C 
ATOM     18  C   LIG    1       29.188 -19.358   6.049  0.00  0.00    +0.000 C 
ATOM     19  C   LIG    1       29.280 -19.454   7.437  0.00  0.00    +0.001 C 
ATOM     20  C   LIG    1       28.196 -19.938   8.181  0.00  0.00    +0.012 C 
ENDBRANCH  13  15
ENDBRANCH   4  13
TORSDOF 4
ENDMDL
MODEL 5
REMARK VINA RESULT:      -7.9      1.885      2.875
REMARK  Name = *****
REMARK                            x       y       z     vdW  Elec       q    Type
REMARK                         _______ _______ _______ _____ _____    ______ ____
ROOT
ATOM      1  C   LIG    1       28.911 -19.559   7.639  0.00  0.00    +0.146 C 
ATOM      2  C   LIG    1       27.582 -20.187   7.858  0.00  0.00    +0.033 C 
ATOM      3  N   LIG    1       27.100 -20.736   6.698  0.00  0.00    -0.341 NA
ATOM      4  C   LIG    1       25.897 -21.341   6.895  0.00  0.00    +0.090 C 
ATOM      5  C   LIG    1       25.600 -21.109   8.242  0.00  0.00    +0.031 C 
ATOM      6  C   LIG    1       27.955 -20.455   5.554  0.00  0.00    +0.123 C 
ATOM      7  C   LIG    1       26.645 -20.350   8.839  0.00  0.00    +0.024 C 
ATOM      8  C   LIG    1       28.876 -19.341   6.103  0.00  0.00    +0.042 C 
ENDROOT
BRANCH   1  10
ATOM      9  O   LIG    1       29.999 -21.356   8.830  0.00  0.00    -0.250 OA
ATOM     10  C   LIG    1       30.095 -20.449   8.011  0.00  0.00    +0.314 C 
BRANCH  10  11
ATOM     11  O   LIG    1       31.269 -20.196   7.393  0.00  0.00    -0.480 OA
ATOM     12  H   LIG    1       31.399 -19.263   7.133  0.00  0.00    +0.295 HD
ENDBRANCH  10  11
ENDBRANCH   1  10
BRANCH   4  13
ATOM     13  C   LIG    1       25.152 -22.094   5.893  0.00  0.00    +0.209 C 
ATOM     14  O   LIG    1       24.460 -21.544   5.042  0.00  0.00    -0.285 OA
BRANCH  13  15
ATOM     15  C   LIG    1       25.246 -23.593   5.879  0.00  0.00    +0.024 C 
ATOM     16  C   LIG    1       24.850 -24.342   4.760  0.00  0.00    +0.012 C 
ATOM     17  C   LIG    1       24.934 -25.736   4.773  0.00  0.00    +0.001 C 
ATOM     18  C   LIG    1       25.435 -26.395   5.892  0.00  0.00    +0.000 C 
ATOM     19  C   LIG    1       25.866 -25.661   6.996  0.00  0.00    +0.001 C 
ATOM     20  C   LIG    1       25.776 -24.263   6.988  0.00  0.00    +0.012 C 
ENDBRANCH  13  15
ENDBRANCH   4  13
TORSDOF 4
ENDMDL
MODEL 6
REMARK VINA RESULT:      -7.9      2.181      6.544
REMARK  Name = *****
REMARK                            x       y       z     vdW  Elec       q    Type
REMARK                         _______ _______ _______ _____ _____    ______ ____
ROOT
ATOM      1  C   LIG    1       24.863 -20.890   6.424  0.00  0.00    +0.146 C 
ATOM      2  C   LIG    1       26.263 -20.453   6.185  0.00  0.00    +0.033 C 
ATOM      3  N   LIG    1       27.032 -20.633   7.305  0.00  0.00    -0.341 NA
ATOM      4  C   LIG    1       28.324 -20.264   7.087  0.00  0.00    +0.090 C 
ATOM      5  C   LIG    1       28.339 -19.784   5.773  0.00  0.00    +0.031 C 
ATOM      6  C   LIG    1       26.252 -21.088   8.447  0.00  0.00    +0.123 C 
ATOM      7  C   LIG    1       27.031 -19.869   5.218  0.00  0.00    +0.024 C 
ATOM      8  C   LIG    1       24.803 -20.830   7.973  0.00  0.00    +0.042 C 
ENDROOT
BRANCH   1  10
ATOM      9  O   LIG    1       24.172 -23.186   6.709  0.00  0.00    -0.250 OA
ATOM     10  C   LIG    1       24.558 -22.308   5.946  0.00  0.00    +0.314 C 
BRANCH  10  11
ATOM     11  O   LIG    1       24.734 -22.561   4.631  0.00  0.00    -0.480 OA
ATOM     12  H   LIG    1       25.662 -22.522   4.329  0.00  0.00    +0.295 HD
ENDBRANCH  10  11
ENDBRANCH   1  10
BRANCH   4  13
ATOM     13  C   LIG    1       29.420 -20.408   8.039  0.00  0.00    +0.209 C 
ATOM     14  O   LIG    1       29.753 -21.498   8.492  0.00  0.00    -0.285 OA
BRANCH  13  15
ATOM     15  C   LIG    1       30.187 -19.190   8.466  0.00  0.00    +0.024 C 
ATOM     16  C   LIG    1       29.626 -18.238   9.333  0.00  0.00    +0.012 C 
ATOM     17  C   LIG    1       30.352 -17.105   9.708  0.00  0.00    +0.001 C 
ATOM     18  C   LIG    1       31.650 -16.922   9.242  0.00  0.00    +0.000 C 
ATOM     19  C   LIG    1       32.232 -17.878   8.410  0.00  0.00    +0.001 C 
ATOM     20  C   LIG    1       31.504 -19.011   8.027  0.00  0.00    +0.012 C 
ENDBRANCH  13  15
ENDBRANCH   4  13
TORSDOF 4
ENDMDL
MODEL 7
REMARK VINA RESULT:      -7.8      5.639      8.682
REMARK  Name = *****
REMARK                            x       y       z     vdW  Elec       q    Type
REMARK                         _______ _______ _______ _____ _____    ______ ____
ROOT
ATOM      1  C   LIG    1       25.294 -30.479   8.867  0.00  0.00    +0.146 C 
ATOM      2  C   LIG    1       24.946 -29.687   7.658  0.00  0.00    +0.033 C 
ATOM      3  N   LIG    1       25.610 -28.489   7.647  0.00  0.00    -0.341 NA
ATOM      4  C   LIG    1       25.322 -27.770   6.528  0.00  0.00    +0.090 C 
ATOM      5  C   LIG    1       24.390 -28.550   5.836  0.00  0.00    +0.031 C 
ATOM      6  C   LIG    1       26.376 -28.267   8.865  0.00  0.00    +0.123 C 
ATOM      7  C   LIG    1       24.126 -29.741   6.567  0.00  0.00    +0.024 C 
ATOM      8  C   LIG    1       25.811 -29.357   9.805  0.00  0.00    +0.042 C 
ENDROOT
BRANCH   1  10
ATOM      9  O   LIG    1       26.805 -32.236   9.545  0.00  0.00    -0.250 OA
ATOM     10  C   LIG    1       26.390 -31.517   8.643  0.00  0.00    +0.314 C 
BRANCH  10  11
ATOM     11  O   LIG    1       26.894 -31.615   7.393  0.00  0.00    -0.480 OA
ATOM     12  H   LIG    1       26.273 -31.362   6.683  0.00  0.00    +0.295 HD
ENDBRANCH  10  11
ENDBRANCH   1  10
BRANCH   4  13
ATOM     13  C   LIG    1       25.923 -26.492   6.162  0.00  0.00    +0.209 C 
ATOM     14  O   LIG    1       27.001 -26.419   5.582  0.00  0.00    -0.285 OA
BRANCH  13  15
ATOM     15  C   LIG    1       25.194 -25.218   6.482  0.00  0.00    +0.024 C 
ATOM     16  C   LIG    1       23.799 -25.125   6.369  0.00  0.00    +0.012 C 
ATOM     17  C   LIG    1       23.141 -23.927   6.659  0.00  0.00    +0.001 C 
ATOM     18  C   LIG    1       23.867 -22.818   7.085  0.00  0.00    +0.000 C 
ATOM     19  C   LIG    1       25.250 -22.909   7.237  0.00  0.00    +0.001 C 
ATOM     20  C   LIG    1       25.912 -24.107   6.940  0.00  0.00    +0.012 C 
ENDBRANCH  13  15
ENDBRANCH   4  13
TORSDOF 4
ENDMDL
MODEL 8
REMARK VINA RESULT:      -7.8      4.368      6.579
REMARK  Name = *****
REMARK                            x       y       z     vdW  Elec       q    Type
REMARK                         _______ _______ _______ _____ _____    ______ ____
ROOT
ATOM      1  C   LIG    1       25.146 -25.638   6.376  0.00  0.00    +0.146 C 
ATOM      2  C   LIG    1       24.046 -24.651   6.542  0.00  0.00    +0.033 C 
ATOM      3  N   LIG    1       24.543 -23.389   6.733  0.00  0.00    -0.341 NA
ATOM      4  C   LIG    1       23.543 -22.473   6.854  0.00  0.00    +0.090 C 
ATOM      5  C   LIG    1       22.365 -23.224   6.782  0.00  0.00    +0.031 C 
ATOM      6  C   LIG    1       25.995 -23.373   6.839  0.00  0.00    +0.123 C 
ATOM      7  C   LIG    1       22.683 -24.601   6.623  0.00  0.00    +0.024 C 
ATOM      8  C   LIG    1       26.321 -24.871   7.039  0.00  0.00    +0.042 C 
ENDROOT
BRANCH   1  10
ATOM      9  O   LIG    1       26.219 -26.893   4.614  0.00  0.00    -0.250 OA
ATOM     10  C   LIG    1       25.488 -25.959   4.923  0.00  0.00    +0.314 C 
BRANCH  10  11
ATOM     11  O   LIG    1       24.946 -25.162   3.977  0.00  0.00    -0.480 OA
ATOM     12  H   LIG    1       24.971 -24.207   4.186  0.00  0.00    +0.295 HD
ENDBRANCH  10  11
ENDBRANCH   1  10
BRANCH   4  13
ATOM     13  C   LIG    1       23.723 -21.031   6.981  0.00  0.00    +0.209 C 
ATOM     14  O   LIG    1       23.932 -20.491   8.062  0.00  0.00    -0.285 OA
BRANCH  13  15
ATOM     15  C   LIG    1       23.678 -20.174   5.748  0.00  0.00    +0.024 C 
ATOM     16  C   LIG    1       24.760 -20.114   4.857  0.00  0.00    +0.012 C 
ATOM     17  C   LIG    1       24.702 -19.300   3.723  0.00  0.00    +0.001 C 
ATOM     18  C   LIG    1       23.556 -18.557   3.456  0.00  0.00    +0.000 C 
ATOM     19  C   LIG    1       22.459 -18.636   4.313  0.00  0.00    +0.001 C 
ATOM     20  C   LIG    1       22.518 -19.446   5.454  0.00  0.00    +0.012 C 
ENDBRANCH  13  15
ENDBRANCH   4  13
TORSDOF 4
ENDMDL
MODEL 9
REMARK VINA RESULT:      -7.8      3.135      4.719
REMARK  Name = *****
REMARK                            x       y       z     vdW  Elec       q    Type
REMARK                         _______ _______ _______ _____ _____    ______ ____
ROOT
ATOM      1  C   LIG    1       27.150 -21.914   8.401  0.00  0.00    +0.146 C 
ATOM      2  C   LIG    1       26.171 -22.670   7.577  0.00  0.00    +0.033 C 
ATOM      3  N   LIG    1       25.119 -21.874   7.209  0.00  0.00    -0.341 NA
ATOM      4  C   LIG    1       24.232 -22.549   6.427  0.00  0.00    +0.090 C 
ATOM      5  C   LIG    1       24.745 -23.848   6.352  0.00  0.00    +0.031 C 
ATOM      6  C   LIG    1       25.184 -20.552   7.815  0.00  0.00    +0.123 C 
ATOM      7  C   LIG    1       25.947 -23.933   7.107  0.00  0.00    +0.024 C 
ATOM      8  C   LIG    1       26.258 -20.751   8.910  0.00  0.00    +0.042 C 
ENDROOT
BRANCH   1  10
ATOM      9  O   LIG    1       29.431 -21.170   8.130  0.00  0.00    -0.250 OA
ATOM     10  C   LIG    1       28.334 -21.357   7.615  0.00  0.00    +0.314 C 
BRANCH  10  11
ATOM     11  O   LIG    1       28.124 -21.074   6.312  0.00  0.00    -0.480 OA
ATOM     12  H   LIG    1       27.184 -21.052   6.046  0.00  0.00    +0.295 HD
ENDBRANCH  10  11
ENDBRANCH   1  10
BRANCH   4  13
ATOM     13  C   LIG    1       23.049 -21.975   5.796  0.00  0.00    +0.209 C 
ATOM     14  O   LIG    1       21.944 -22.502   5.876  0.00  0.00    -0.285 OA
BRANCH  13  15
ATOM     15  C   LIG    1       23.174 -20.684   5.039  0.00  0.00    +0.024 C 
ATOM     16  C   LIG    1       22.222 -19.661   5.174  0.00  0.00    +0.012 C 
ATOM     17  C   LIG    1       22.350 -18.473   4.450  0.00  0.00    +0.001 C 
ATOM     18  C   LIG    1       23.439 -18.284   3.604  0.00  0.00    +0.000 C 
ATOM     19  C   LIG    1       24.411 -19.277   3.490  0.00  0.00    +0.001 C 
ATOM     20  C   LIG    1       24.281 -20.472   4.209  0.00  0.00    +0.012 C 
ENDBRANCH  13  15
ENDBRANCH   4  13
TORSDOF 4
ENDMDL
