MODEL 1
REMARK VINA RESULT:      -8.7      0.000      0.000
REMARK  Name = *****
REMARK                            x       y       z     vdW  Elec       q    Type
REMARK                         _______ _______ _______ _____ _____    ______ ____
ROOT
ATOM      1  C   LIG    1       25.885 -20.777   8.173  0.00  0.00    +0.332 C 
ATOM      2  O   LIG    1       26.501 -20.293   9.111  0.00  0.00    -0.246 OA
ENDROOT
BRANCH   1   3
ATOM      3  C   LIG    1       26.404 -20.759   6.779  0.00  0.00    +0.092 C 
ATOM      4  C   LIG    1       27.639 -20.476   6.332  0.00  0.00    +0.015 C 
BRANCH   4   5
ATOM      5  C   LIG    1       28.845 -20.151   7.104  0.00  0.00    -0.025 A 
ATOM      6  C   LIG    1       29.529 -21.138   7.815  0.00  0.00    +0.011 A 
ATOM      7  C   LIG    1       30.648 -20.805   8.583  0.00  0.00    +0.046 A 
ATOM      8  C   LIG    1       31.112 -19.489   8.635  0.00  0.00    +0.120 A 
ATOM      9  C   LIG    1       30.429 -18.499   7.927  0.00  0.00    +0.046 A 
ATOM     10  C   LIG    1       29.301 -18.829   7.164  0.00  0.00    +0.011 A 
BRANCH   8  11
ATOM     11  O   LIG    1       32.199 -19.083   9.366  0.00  0.00    -0.495 OA
ATOM     12  C   LIG    1       32.091 -17.769   9.910  0.00  0.00    +0.277 C 
ENDBRANCH   8  11
ENDBRANCH   4   5
ENDBRANCH   1   3
BRANCH   1  13
ATOM     13  O   LIG    1       24.692 -21.426   8.208  0.00  0.00    -0.461 OA
BRANCH  13  14
ATOM     14  C   LIG    1       23.634 -20.861   7.430  0.00  0.00    +0.236 C 
BRANCH  14  15
ATOM     15  C   LIG    1       23.291 -21.764   6.229  0.00  0.00    +0.026 C 
BRANCH  15  16
ATOM     16  C   LIG    1       22.676 -23.067   6.781  0.00  0.00    +0.003 C 
ATOM     17  C   LIG    1       23.505 -24.326   6.589  0.00  0.00    +0.004 C 
ENDBRANCH  15  16
BRANCH  15  18
ATOM     18  C   LIG    1       22.425 -21.043   5.160  0.00  0.00    +0.007 C 
BRANCH  18  19
ATOM     19  C   LIG    1       22.474 -19.507   5.205  0.00  0.00    +0.000 C 
BRANCH  19  21
ATOM     20  C   LIG    1       24.515 -19.532   3.694  0.00  0.00    +0.004 C 
ATOM     21  C   LIG    1       23.160 -18.890   3.977  0.00  0.00    -0.003 C 
ENDBRANCH  19  21
ENDBRANCH  18  19
ENDBRANCH  15  18
ENDBRANCH  14  15
ENDBRANCH  13  14
ENDBRANCH   1  13
TORSDOF 10
ENDMDL
MODEL 2
REMARK VINA RESULT:      -8.7      1.062      2.696
REMARK  Name = *****
REMARK                            x       y       z     vdW  Elec       q    Type
REMARK                         _______ _______ _______ _____ _____    ______ ____
ROOT
ATOM      1  C   LIG    1       26.820 -20.925   7.802  0.00  0.00    +0.332 C 
ATOM      2  O   LIG    1       27.252 -21.521   8.778  0.00  0.00    -0.246 OA
ENDROOT
BRANCH   1   3
ATOM      3  C   LIG    1       27.595 -20.786   6.540  0.00  0.00    +0.092 C 
ATOM      4  C   LIG    1       28.816 -20.262   6.342  0.00  0.00    +0.015 C 
BRANCH   4   5
ATOM      5  C   LIG    1       29.756 -19.721   7.330  0.00  0.00    -0.025 A 
ATOM      6  C   LIG    1       30.558 -20.567   8.097  0.00  0.00    +0.011 A 
ATOM      7  C   LIG    1       31.415 -20.040   9.066  0.00  0.00    +0.046 A 
ATOM      8  C   LIG    1       31.499 -18.661   9.270  0.00  0.00    +0.120 A 
ATOM      9  C   LIG    1       30.696 -17.811   8.508  0.00  0.00    +0.046 A 
ATOM     10  C   LIG    1       29.830 -18.339   7.542  0.00  0.00    +0.011 A 
BRANCH   8  11
ATOM     11  O   LIG    1       32.310 -18.068  10.202  0.00  0.00    -0.495 OA
ATOM     12  C   LIG    1       32.640 -16.708   9.923  0.00  0.00    +0.277 C 
ENDBRANCH   8  11
ENDBRANCH   4   5
ENDBRANCH   1   3
BRANCH   1  13
ATOM     13  O   LIG    1       25.604 -20.334   7.660  0.00  0.00    -0.461 OA
BRANCH  13  14
ATOM     14  C   LIG    1       24.915 -20.580   6.432  0.00  0.00    +0.236 C 
BRANCH  14  15
ATOM     15  C   LIG    1       23.423 -20.867   6.686  0.00  0.00    +0.026 C 
BRANCH  15  16
ATOM     16  C   LIG    1       22.686 -20.767   5.335  0.00  0.00    +0.003 C 
ATOM     17  C   LIG    1       22.408 -19.361   4.831  0.00  0.00    +0.004 C 
ENDBRANCH  15  16
BRANCH  15  18
ATOM     18  C   LIG    1       23.187 -22.197   7.453  0.00  0.00    +0.007 C 
BRANCH  18  19
ATOM     19  C   LIG    1       22.710 -23.376   6.589  0.00  0.00    +0.000 C 
BRANCH  19  21
ATOM     20  C   LIG    1       25.134 -24.104   6.797  0.00  0.00    +0.004 C 
ATOM     21  C   LIG    1       23.693 -24.557   6.585  0.00  0.00    -0.003 C 
ENDBRANCH  19  21
ENDBRANCH  18  19
ENDBRANCH  15  18
ENDBRANCH  14  15
ENDBRANCH  13  14
ENDBRANCH   1  13
TORSDOF 10
ENDMDL
MODEL 3
REMARK VINA RESULT:      -8.6      0.933      1.388
REMARK  Name = *****
REMARK                            x       y       z     vdW  Elec       q    Type
REMARK                         _______ _______ _______ _____ _____    ______ ____
ROOT
ATOM      1  C   LIG    1       26.369 -21.155   8.234  0.00  0.00    +0.332 C 
ATOM      2  O   LIG    1       26.561 -20.331   9.116  0.00  0.00    -0.246 OA
ENDROOT
BRANCH   1   3
ATOM      3  C   LIG    1       26.941 -21.015   6.868  0.00  0.00    +0.092 C 
ATOM      4  C   LIG    1       28.135 -20.531   6.489  0.00  0.00    +0.015 C 
BRANCH   4   5
ATOM      5  C   LIG    1       29.240 -20.048   7.325  0.00  0.00    -0.025 A 
ATOM      6  C   LIG    1       30.051 -20.940   8.028  0.00  0.00    +0.011 A 
ATOM      7  C   LIG    1       31.071 -20.463   8.856  0.00  0.00    +0.046 A 
ATOM      8  C   LIG    1       31.307 -19.092   8.980  0.00  0.00    +0.120 A 
ATOM      9  C   LIG    1       30.496 -18.197   8.281  0.00  0.00    +0.046 A 
ATOM     10  C   LIG    1       29.468 -18.673   7.457  0.00  0.00    +0.011 A 
BRANCH   8  11
ATOM     11  O   LIG    1       32.282 -18.547   9.774  0.00  0.00    -0.495 OA
ATOM     12  C   LIG    1       31.950 -17.280  10.337  0.00  0.00    +0.277 C 
ENDBRANCH   8  11
ENDBRANCH   4   5
ENDBRANCH   1   3
BRANCH   1  13
ATOM     13  O   LIG    1       25.671 -22.318   8.322  0.00  0.00    -0.461 OA
BRANCH  13  14
ATOM     14  C   LIG    1       25.509 -23.058   7.108  0.00  0.00    +0.236 C 
BRANCH  14  15
ATOM     15  C   LIG    1       24.054 -22.979   6.607  0.00  0.00    +0.026 C 
BRANCH  15  16
ATOM     16  C   LIG    1       23.452 -24.397   6.685  0.00  0.00    +0.003 C 
ATOM     17  C   LIG    1       24.166 -25.469   5.879  0.00  0.00    +0.004 C 
ENDBRANCH  15  16
BRANCH  15  18
ATOM     18  C   LIG    1       23.225 -21.884   7.332  0.00  0.00    +0.007 C 
BRANCH  18  19
ATOM     19  C   LIG    1       23.228 -20.504   6.655  0.00  0.00    +0.000 C 
BRANCH  19  21
ATOM     20  C   LIG    1       22.387 -19.143   4.683  0.00  0.00    +0.004 C 
ATOM     21  C   LIG    1       22.702 -20.539   5.212  0.00  0.00    -0.003 C 
ENDBRANCH  19  21
ENDBRANCH  18  19
ENDBRANCH  15  18
ENDBRANCH  14  15
ENDBRANCH  13  14
ENDBRANCH   1  13
TORSDOF 10
ENDMDL
MODEL 4
REMARK VINA RESULT:      -8.4      2.456      7.672
REMARK  Name = *****
REMARK                            x       y       z     vdW  Elec       q    Type
REMARK                         _______ _______ _______ _____ _____    ______ ____
ROOT
ATOM      1  C   LIG    1       27.039 -20.355   6.227  0.00  0.00    +0.332 C 
ATOM      2  O   LIG    1       26.412 -20.064   5.219  0.00  0.00    -0.246 OA
ENDROOT
BRANCH   1   3
ATOM      3  C   LIG    1       26.411 -20.401   7.575  0.00  0.00    +0.092 C 
ATOM      4  C   LIG    1       25.568 -21.310   8.092  0.00  0.00    +0.015 C 
BRANCH   4   5
ATOM      5  C   LIG    1       25.065 -22.548   7.486  0.00  0.00    -0.025 A 
ATOM      6  C   LIG    1       23.714 -22.692   7.164  0.00  0.00    +0.011 A 
ATOM      7  C   LIG    1       23.241 -23.894   6.630  0.00  0.00    +0.046 A 
ATOM      8  C   LIG    1       24.111 -24.961   6.393  0.00  0.00    +0.120 A 
ATOM      9  C   LIG    1       25.461 -24.822   6.717  0.00  0.00    +0.046 A 
ATOM     10  C   LIG    1       25.935 -23.620   7.260  0.00  0.00    +0.011 A 
BRANCH   8  11
ATOM     11  O   LIG    1       23.724 -26.170   5.877  0.00  0.00    -0.495 OA
ATOM     12  C   LIG    1       24.681 -27.216   6.034  0.00  0.00    +0.277 C 
ENDBRANCH   8  11
ENDBRANCH   4   5
ENDBRANCH   1   3
BRANCH   1  13
ATOM     13  O   LIG    1       28.347 -20.711   6.319  0.00  0.00    -0.461 OA
BRANCH  13  14
ATOM     14  C   LIG    1       29.290 -19.647   6.464  0.00  0.00    +0.236 C 
BRANCH  14  15
ATOM     15  C   LIG    1       30.041 -19.755   7.805  0.00  0.00    +0.026 C 
BRANCH  15  16
ATOM     16  C   LIG    1       30.027 -21.237   8.233  0.00  0.00    +0.003 C 
ATOM     17  C   LIG    1       31.209 -21.699   9.070  0.00  0.00    +0.004 C 
ENDBRANCH  15  16
BRANCH  15  18
ATOM     18  C   LIG    1       31.453 -19.109   7.760  0.00  0.00    +0.007 C 
BRANCH  18  19
ATOM     19  C   LIG    1       31.721 -18.045   8.837  0.00  0.00    +0.000 C 
BRANCH  19  21
ATOM     20  C   LIG    1       30.376 -17.452  10.907  0.00  0.00    +0.004 C 
ATOM     21  C   LIG    1       30.436 -17.405   9.384  0.00  0.00    -0.003 C 
ENDBRANCH  19  21
ENDBRANCH  18  19
ENDBRANCH  15  18
ENDBRANCH  14  15
ENDBRANCH  13  14
ENDBRANCH   1  13
TORSDOF 10
ENDMDL
MODEL 5
REMARK VINA RESULT:      -7.9      2.450      7.000
REMARK  Name = *****
REMARK                            x       y       z     vdW  Elec       q    Type
REMARK                         _______ _______ _______ _____ _____    ______ ____
ROOT
ATOM      1  C   LIG    1       24.090 -20.758   5.217  0.00  0.00    +0.332 C 
ATOM      2  O   LIG    1       23.697 -21.126   4.120  0.00  0.00    -0.246 OA
ENDROOT
BRANCH   1   3
ATOM      3  C   LIG    1       23.361 -21.069   6.476  0.00  0.00    +0.092 C 
ATOM      4  C   LIG    1       23.308 -22.219   7.169  0.00  0.00    +0.015 C 
BRANCH   4   5
ATOM      5  C   LIG    1       24.002 -23.485   6.905  0.00  0.00    -0.025 A 
ATOM      6  C   LIG    1       25.371 -23.616   7.140  0.00  0.00    +0.011 A 
ATOM      7  C   LIG    1       26.027 -24.813   6.841  0.00  0.00    +0.046 A 
ATOM      8  C   LIG    1       25.322 -25.902   6.323  0.00  0.00    +0.120 A 
ATOM      9  C   LIG    1       23.953 -25.774   6.084  0.00  0.00    +0.046 A 
ATOM     10  C   LIG    1       23.296 -24.572   6.375  0.00  0.00    +0.011 A 
BRANCH   8  11
ATOM     11  O   LIG    1       25.893 -27.106   6.001  0.00  0.00    -0.495 OA
ATOM     12  C   LIG    1       25.164 -28.247   6.449  0.00  0.00    +0.277 C 
ENDBRANCH   8  11
ENDBRANCH   4   5
ENDBRANCH   1   3
BRANCH   1  13
ATOM     13  O   LIG    1       25.224 -20.066   5.505  0.00  0.00    -0.461 OA
BRANCH  13  14
ATOM     14  C   LIG    1       26.430 -20.828   5.604  0.00  0.00    +0.236 C 
BRANCH  14  15
ATOM     15  C   LIG    1       27.415 -20.171   6.590  0.00  0.00    +0.026 C 
BRANCH  15  16
ATOM     16  C   LIG    1       27.272 -20.889   7.947  0.00  0.00    +0.003 C 
ATOM     17  C   LIG    1       26.100 -20.451   8.811  0.00  0.00    +0.004 C 
ENDBRANCH  15  16
BRANCH  15  18
ATOM     18  C   LIG    1       28.868 -20.113   6.041  0.00  0.00    +0.007 C 
BRANCH  18  19
ATOM     19  C   LIG    1       29.959 -19.882   7.100  0.00  0.00    +0.000 C 
BRANCH  19  21
ATOM     20  C   LIG    1       30.138 -18.250   9.037  0.00  0.00    +0.004 C 
ATOM     21  C   LIG    1       30.088 -18.410   7.521  0.00  0.00    -0.003 C 
ENDBRANCH  19  21
ENDBRANCH  18  19
ENDBRANCH  15  18
ENDBRANCH  14  15
ENDBRANCH  13  14
ENDBRANCH   1  13
TORSDOF 10
ENDMDL
MODEL 6
REMARK VINA RESULT:      -7.8      3.781      7.752
REMARK  Name = *****
REMARK                            x       y       z     vdW  Elec       q    Type
REMARK                         _______ _______ _______ _____ _____    ______ ____
ROOT
ATOM      1  C   LIG    1       24.118 -24.088   6.586  0.00  0.00    +0.332 C 
ATOM      2  O   LIG    1       22.986 -24.545   6.656  0.00  0.00    -0.246 OA
ENDROOT
BRANCH   1   3
ATOM      3  C   LIG    1       25.102 -24.538   5.565  0.00  0.00    +0.092 C 
ATOM      4  C   LIG    1       25.601 -25.766   5.345  0.00  0.00    +0.015 C 
BRANCH   4   5
ATOM      5  C   LIG    1       25.276 -27.027   6.022  0.00  0.00    -0.025 A 
ATOM      6  C   LIG    1       25.877 -27.366   7.235  0.00  0.00    +0.011 A 
ATOM      7  C   LIG    1       25.593 -28.591   7.844  0.00  0.00    +0.046 A 
ATOM      8  C   LIG    1       24.691 -29.485   7.263  0.00  0.00    +0.120 A 
ATOM      9  C   LIG    1       24.089 -29.150   6.049  0.00  0.00    +0.046 A 
ATOM     10  C   LIG    1       24.380 -27.926   5.432  0.00  0.00    +0.011 A 
BRANCH   8  11
ATOM     11  O   LIG    1       24.363 -30.704   7.796  0.00  0.00    -0.495 OA
ATOM     12  C   LIG    1       24.101 -31.722   6.832  0.00  0.00    +0.277 C 
ENDBRANCH   8  11
ENDBRANCH   4   5
ENDBRANCH   1   3
BRANCH   1  13
ATOM     13  O   LIG    1       24.668 -23.110   7.352  0.00  0.00    -0.461 OA
BRANCH  13  14
ATOM     14  C   LIG    1       23.938 -21.883   7.441  0.00  0.00    +0.236 C 
BRANCH  14  15
ATOM     15  C   LIG    1       24.848 -20.678   7.138  0.00  0.00    +0.026 C 
BRANCH  15  16
ATOM     16  C   LIG    1       25.912 -20.600   8.252  0.00  0.00    +0.003 C 
ATOM     17  C   LIG    1       27.348 -20.413   7.789  0.00  0.00    +0.004 C 
ENDBRANCH  15  16
BRANCH  15  18
ATOM     18  C   LIG    1       25.424 -20.705   5.696  0.00  0.00    +0.007 C 
BRANCH  18  19
ATOM     19  C   LIG    1       24.377 -20.814   4.575  0.00  0.00    +0.000 C 
BRANCH  19  21
ATOM     20  C   LIG    1       22.439 -19.179   4.718  0.00  0.00    +0.004 C 
ATOM     21  C   LIG    1       23.822 -19.451   4.134  0.00  0.00    -0.003 C 
ENDBRANCH  19  21
ENDBRANCH  18  19
ENDBRANCH  15  18
ENDBRANCH  14  15
ENDBRANCH  13  14
ENDBRANCH   1  13
TORSDOF 10
ENDMDL
MODEL 7
REMARK VINA RESULT:      -7.8      2.098      7.423
REMARK  Name = *****
REMARK                            x       y       z     vdW  Elec       q    Type
REMARK                         _______ _______ _______ _____ _____    ______ ____
ROOT
ATOM      1  C   LIG    1       26.131 -20.851   8.656  0.00  0.00    +0.332 C 
ATOM      2  O   LIG    1       25.539 -21.411   9.568  0.00  0.00    -0.246 OA
ENDROOT
BRANCH   1   3
ATOM      3  C   LIG    1       25.471 -20.492   7.373  0.00  0.00    +0.092 C 
ATOM      4  C   LIG    1       24.925 -21.292   6.442  0.00  0.00    +0.015 C 
BRANCH   4   5
ATOM      5  C   LIG    1       24.781 -22.752   6.452  0.00  0.00    -0.025 A 
ATOM      6  C   LIG    1       25.894 -23.584   6.320  0.00  0.00    +0.011 A 
ATOM      7  C   LIG    1       25.737 -24.972   6.285  0.00  0.00    +0.046 A 
ATOM      8  C   LIG    1       24.471 -25.549   6.401  0.00  0.00    +0.120 A 
ATOM      9  C   LIG    1       23.355 -24.721   6.531  0.00  0.00    +0.046 A 
ATOM     10  C   LIG    1       23.510 -23.329   6.558  0.00  0.00    +0.011 A 
BRANCH   8  11
ATOM     11  O   LIG    1       24.234 -26.899   6.373  0.00  0.00    -0.495 OA
ATOM     12  C   LIG    1       25.295 -27.677   5.822  0.00  0.00    +0.277 C 
ENDBRANCH   8  11
ENDBRANCH   4   5
ENDBRANCH   1   3
BRANCH   1  13
ATOM     13  O   LIG    1       27.424 -20.433   8.638  0.00  0.00    -0.461 OA
BRANCH  13  14
ATOM     14  C   LIG    1       28.316 -21.149   7.779  0.00  0.00    +0.236 C 
BRANCH  14  15
ATOM     15  C   LIG    1       29.368 -20.204   7.168  0.00  0.00    +0.026 C 
BRANCH  15  16
ATOM     16  C   LIG    1       28.823 -19.705   5.814  0.00  0.00    +0.003 C 
ATOM     17  C   LIG    1       29.214 -18.290   5.420  0.00  0.00    +0.004 C 
ENDBRANCH  15  16
BRANCH  15  18
ATOM     18  C   LIG    1       29.804 -19.076   8.143  0.00  0.00    +0.007 C 
BRANCH  18  19
ATOM     19  C   LIG    1       31.318 -18.977   8.396  0.00  0.00    +0.000 C 
BRANCH  19  21
ATOM     20  C   LIG    1       30.627 -16.933   9.734  0.00  0.00    +0.004 C 
ATOM     21  C   LIG    1       31.748 -17.613   8.955  0.00  0.00    -0.003 C 
ENDBRANCH  19  21
ENDBRANCH  18  19
ENDBRANCH  15  18
ENDBRANCH  14  15
ENDBRANCH  13  14
ENDBRANCH   1  13
TORSDOF 10
ENDMDL
MODEL 8
REMARK VINA RESULT:      -7.8      1.718      7.463
REMARK  Name = *****
REMARK                            x       y       z     vdW  Elec       q    Type
REMARK                         _______ _______ _______ _____ _____    ______ ____
ROOT
ATOM      1  C   LIG    1       26.701 -20.885   8.471  0.00  0.00    +0.332 C 
ATOM      2  O   LIG    1       25.876 -20.621   9.334  0.00  0.00    -0.246 OA
ENDROOT
BRANCH   1   3
ATOM      3  C   LIG    1       26.601 -22.093   7.610  0.00  0.00    +0.092 C 
ATOM      4  C   LIG    1       25.815 -22.317   6.543  0.00  0.00    +0.015 C 
BRANCH   4   5
ATOM      5  C   LIG    1       24.865 -21.407   5.892  0.00  0.00    -0.025 A 
ATOM      6  C   LIG    1       25.222 -20.699   4.743  0.00  0.00    +0.011 A 
ATOM      7  C   LIG    1       24.323 -19.801   4.161  0.00  0.00    +0.046 A 
ATOM      8  C   LIG    1       23.051 -19.612   4.704  0.00  0.00    +0.120 A 
ATOM      9  C   LIG    1       22.692 -20.316   5.855  0.00  0.00    +0.046 A 
ATOM     10  C   LIG    1       23.595 -21.210   6.445  0.00  0.00    +0.011 A 
BRANCH   8  11
ATOM     11  O   LIG    1       22.116 -18.749   4.195  0.00  0.00    -0.495 OA
ATOM     12  C   LIG    1       22.283 -17.390   4.594  0.00  0.00    +0.277 C 
ENDBRANCH   8  11
ENDBRANCH   4   5
ENDBRANCH   1   3
BRANCH   1  13
ATOM     13  O   LIG    1       27.792 -20.158   8.114  0.00  0.00    -0.461 OA
BRANCH  13  14
ATOM     14  C   LIG    1       28.977 -20.895   7.802  0.00  0.00    +0.236 C 
BRANCH  14  15
ATOM     15  C   LIG    1       30.136 -19.946   7.443  0.00  0.00    +0.026 C 
BRANCH  15  16
ATOM     16  C   LIG    1       29.524 -18.634   6.911  0.00  0.00    +0.003 C 
ATOM     17  C   LIG    1       29.316 -18.558   5.408  0.00  0.00    +0.004 C 
ENDBRANCH  15  16
BRANCH  15  18
ATOM     18  C   LIG    1       31.147 -19.762   8.608  0.00  0.00    +0.007 C 
BRANCH  18  19
ATOM     19  C   LIG    1       31.817 -18.379   8.680  0.00  0.00    +0.000 C 
BRANCH  19  21
ATOM     20  C   LIG    1       30.275 -17.353  10.417  0.00  0.00    +0.004 C 
ATOM     21  C   LIG    1       31.712 -17.730  10.068  0.00  0.00    -0.003 C 
ENDBRANCH  19  21
ENDBRANCH  18  19
ENDBRANCH  15  18
ENDBRANCH  14  15
ENDBRANCH  13  14
ENDBRANCH   1  13
TORSDOF 10
ENDMDL
MODEL 9
REMARK VINA RESULT:      -7.5      1.801      7.403
REMARK  Name = *****
REMARK                            x       y       z     vdW  Elec       q    Type
REMARK                         _______ _______ _______ _____ _____    ______ ____
ROOT
ATOM      1  C   LIG    1       26.513 -21.536   8.540  0.00  0.00    +0.332 C 
ATOM      2  O   LIG    1       25.892 -20.774   9.265  0.00  0.00    -0.246 OA
ENDROOT
BRANCH   1   3
ATOM      3  C   LIG    1       25.891 -22.738   7.921  0.00  0.00    +0.092 C 
ATOM      4  C   LIG    1       24.981 -22.815   6.936  0.00  0.00    +0.015 C 
BRANCH   4   5
ATOM      5  C   LIG    1       24.376 -21.730   6.154  0.00  0.00    -0.025 A 
ATOM      6  C   LIG    1       23.324 -20.973   6.671  0.00  0.00    +0.011 A 
ATOM      7  C   LIG    1       22.728 -19.974   5.898  0.00  0.00    +0.046 A 
ATOM      8  C   LIG    1       23.185 -19.704   4.606  0.00  0.00    +0.120 A 
ATOM      9  C   LIG    1       24.235 -20.461   4.084  0.00  0.00    +0.046 A 
ATOM     10  C   LIG    1       24.828 -21.469   4.856  0.00  0.00    +0.011 A 
BRANCH   8  11
ATOM     11  O   LIG    1       22.651 -18.744   3.785  0.00  0.00    -0.495 OA
ATOM     12  C   LIG    1       22.142 -17.598   4.463  0.00  0.00    +0.277 C 
ENDBRANCH   8  11
ENDBRANCH   4   5
ENDBRANCH   1   3
BRANCH   1  13
ATOM     13  O   LIG    1       27.808 -21.434   8.141  0.00  0.00    -0.461 OA
BRANCH  13  14
ATOM     14  C   LIG    1       28.263 -20.128   7.777  0.00  0.00    +0.236 C 
BRANCH  14  15
ATOM     15  C   LIG    1       29.684 -19.872   8.312  0.00  0.00    +0.026 C 
BRANCH  15  16
ATOM     16  C   LIG    1       30.515 -21.149   8.071  0.00  0.00    +0.003 C 
ATOM     17  C   LIG    1       31.068 -21.828   9.314  0.00  0.00    +0.004 C 
ENDBRANCH  15  16
BRANCH  15  18
ATOM     18  C   LIG    1       30.318 -18.573   7.743  0.00  0.00    +0.007 C 
BRANCH  18  19
ATOM     19  C   LIG    1       31.693 -18.205   8.325  0.00  0.00    +0.000 C 
BRANCH  19  21
ATOM     20  C   LIG    1       30.470 -17.016  10.206  0.00  0.00    +0.004 C 
ATOM     21  C   LIG    1       31.650 -16.972   9.241  0.00  0.00    -0.003 C 
ENDBRANCH  19  21
ENDBRANCH  18  19
ENDBRANCH  15  18
ENDBRANCH  14  15
ENDBRANCH  13  14
ENDBRANCH   1  13
TORSDOF 10
ENDMDL
