MODEL 1
REMARK VINA RESULT:      -1.8      0.000      0.000
REMARK  Name = *****
REMARK                            x       y       z     vdW  Elec       q    Type
REMARK                         _______ _______ _______ _____ _____    ______ ____
ROOT
ATOM      1  C   LIG    1       23.527 -21.378   7.062  0.00  0.00    +0.088 C 
ATOM      2  C   LIG    1       24.501 -21.102   5.979  0.00  0.00    +0.135 A 
ATOM      3  N   LIG    1       24.313 -20.250   4.903  0.00  0.00    -0.281 N 
ATOM      4  C   LIG    1       23.129 -19.632   4.422  0.00  0.00    +0.059 A 
ATOM      5  C   LIG    1       23.172 -18.400   3.738  0.00  0.00    +0.026 A 
ATOM      6  C   LIG    1       24.403 -17.548   3.649  0.00  0.00    +0.075 C 
ATOM      7  N   LIG    1       25.576 -17.978   3.329  0.00  0.00    -0.275 NA
ATOM      8  C   LIG    1       25.793 -19.394   3.067  0.00  0.00    +0.218 C 
ATOM      9  C   LIG    1       21.996 -17.887   3.164  0.00  0.00    +0.032 A 
ATOM     10  C   LIG    1       20.790 -18.566   3.304  0.00  0.00    +0.042 A 
ATOM     11 CL   LIG    1       19.357 -17.918   2.609  0.00  0.00    -0.084 Cl
ATOM     12  C   LIG    1       20.736 -19.766   4.004  0.00  0.00    +0.022 A 
ATOM     13  C   LIG    1       21.902 -20.304   4.556  0.00  0.00    +0.028 A 
ATOM     14  C   LIG    1       25.548 -20.185   4.294  0.00  0.00    +0.160 A 
ATOM     15  N   LIG    1       26.393 -20.984   4.909  0.00  0.00    -0.132 NA
ATOM     16  N   LIG    1       25.738 -21.557   5.963  0.00  0.00    -0.134 NA
ENDROOT
BRANCH   6  17
ATOM     17  C   LIG    1       24.281 -16.084   3.956  0.00  0.00    +0.001 A 
ATOM     18  C   LIG    1       23.156 -15.567   4.611  0.00  0.00    +0.010 A 
ATOM     19  C   LIG    1       23.074 -14.200   4.887  0.00  0.00    +0.001 A 
ATOM     20  C   LIG    1       24.119 -13.350   4.524  0.00  0.00    +0.000 A 
ATOM     21  C   LIG    1       25.250 -13.863   3.891  0.00  0.00    +0.001 A 
ATOM     22  C   LIG    1       25.335 -15.228   3.612  0.00  0.00    +0.010 A 
ENDBRANCH   6  17
TORSDOF 1
ENDMDL
MODEL 2
REMARK VINA RESULT:      -1.1      3.160      5.599
REMARK  Name = *****
REMARK                            x       y       z     vdW  Elec       q    Type
REMARK                         _______ _______ _______ _____ _____    ______ ____
ROOT
ATOM      1  C   LIG    1       21.903 -16.373   5.290  0.00  0.00    +0.088 C 
ATOM      2  C   LIG    1       22.277 -17.557   4.482  0.00  0.00    +0.135 A 
ATOM      3  N   LIG    1       23.532 -17.835   3.962  0.00  0.00    -0.281 N 
ATOM      4  C   LIG    1       24.678 -17.005   3.848  0.00  0.00    +0.059 A 
ATOM      5  C   LIG    1       25.978 -17.549   3.858  0.00  0.00    +0.026 A 
ATOM      6  C   LIG    1       26.274 -18.979   4.197  0.00  0.00    +0.075 C 
ATOM      7  N   LIG    1       25.651 -19.996   3.705  0.00  0.00    -0.275 NA
ATOM      8  C   LIG    1       24.542 -19.804   2.782  0.00  0.00    +0.218 C 
ATOM      9  C   LIG    1       27.080 -16.710   3.611  0.00  0.00    +0.032 A 
ATOM     10  C   LIG    1       26.893 -15.348   3.401  0.00  0.00    +0.042 A 
ATOM     11 CL   LIG    1       28.252 -14.331   3.116  0.00  0.00    -0.084 Cl
ATOM     12  C   LIG    1       25.615 -14.801   3.421  0.00  0.00    +0.022 A 
ATOM     13  C   LIG    1       24.508 -15.626   3.637  0.00  0.00    +0.028 A 
ATOM     14  C   LIG    1       23.423 -19.115   3.463  0.00  0.00    +0.160 A 
ATOM     15  N   LIG    1       22.189 -19.548   3.605  0.00  0.00    -0.132 NA
ATOM     16  N   LIG    1       21.473 -18.574   4.243  0.00  0.00    -0.134 NA
ENDROOT
BRANCH   6  17
ATOM     17  C   LIG    1       27.367 -19.268   5.184  0.00  0.00    +0.001 A 
ATOM     18  C   LIG    1       28.472 -18.419   5.316  0.00  0.00    +0.010 A 
ATOM     19  C   LIG    1       29.472 -18.712   6.247  0.00  0.00    +0.001 A 
ATOM     20  C   LIG    1       29.364 -19.844   7.056  0.00  0.00    +0.000 A 
ATOM     21  C   LIG    1       28.255 -20.681   6.942  0.00  0.00    +0.001 A 
ATOM     22  C   LIG    1       27.254 -20.392   6.012  0.00  0.00    +0.010 A 
ENDBRANCH   6  17
TORSDOF 1
ENDMDL
