MODEL 1
REMARK VINA RESULT:      -3.0      0.000      0.000
REMARK  Name = *****
REMARK                            x       y       z     vdW  Elec       q    Type
REMARK                         _______ _______ _______ _____ _____    ______ ____
ROOT
ATOM      1  S   LIG    1       22.703 -18.260   4.162  0.00  0.00    +0.074 S 
ATOM      2  O   LIG    1       22.316 -18.380   5.552  0.00  0.00    -0.150 OA
ATOM      3  O   LIG    1       21.721 -18.240   3.101  0.00  0.00    -0.150 OA
ENDROOT
BRANCH   1   4
ATOM      4  C   LIG    1       23.685 -16.783   4.004  0.00  0.00    +0.109 A 
ATOM      5  C   LIG    1       23.134 -15.537   4.305  0.00  0.00    +0.030 A 
ATOM      6  C   LIG    1       23.911 -14.385   4.144  0.00  0.00    +0.024 A 
ATOM      7  C   LIG    1       25.240 -14.468   3.714  0.00  0.00    +0.025 A 
ATOM      8  C   LIG    1       25.751 -15.715   3.343  0.00  0.00    +0.024 A 
ATOM      9  C   LIG    1       24.987 -16.876   3.501  0.00  0.00    +0.030 A 
BRANCH   7  10
ATOM     10  N   LIG    1       25.963 -13.302   3.436  0.00  0.00    -0.358 N 
ATOM     11  H   LIG    1       26.648 -13.409   2.694  0.00  0.00    +0.142 HD
ATOM     12  H   LIG    1       25.383 -12.478   3.304  0.00  0.00    +0.142 HD
ENDBRANCH   7  10
ENDBRANCH   1   4
BRANCH   1  13
ATOM     13  N   LIG    1       23.842 -19.445   3.755  0.00  0.00    -0.195 N 
ATOM     14  H   LIG    1       23.343 -20.134   3.189  0.00  0.00    +0.175 HD
BRANCH  13  16
ATOM     15  C   LIG    1       25.614 -20.177   5.364  0.00  0.00    +0.257 A 
ATOM     16  C   LIG    1       24.296 -20.171   4.891  0.00  0.00    +0.201 A 
ATOM     17  N   LIG    1       23.294 -20.845   5.494  0.00  0.00    -0.233 NA
ATOM     18  C   LIG    1       23.661 -21.538   6.597  0.00  0.00    +0.133 A 
ATOM     19  C   LIG    1       24.968 -21.572   7.062  0.00  0.00    +0.134 A 
ATOM     20  N   LIG    1       25.974 -20.899   6.456  0.00  0.00    -0.217 NA
BRANCH  15  22
ATOM     21  C   LIG    1       27.848 -19.525   5.302  0.00  0.00    +0.279 C 
ATOM     22  O   LIG    1       26.592 -19.537   4.632  0.00  0.00    -0.477 OA
ENDBRANCH  15  22
ENDBRANCH  13  16
ENDBRANCH   1  13
TORSDOF 5
ENDMDL
MODEL 2
REMARK VINA RESULT:      -2.9      2.506      6.240
REMARK  Name = *****
REMARK                            x       y       z     vdW  Elec       q    Type
REMARK                         _______ _______ _______ _____ _____    ______ ____
ROOT
ATOM      1  S   LIG    1       22.868 -15.721   4.488  0.00  0.00    +0.074 S 
ATOM      2  O   LIG    1       22.260 -15.300   3.243  0.00  0.00    -0.150 OA
ATOM      3  O   LIG    1       22.211 -15.516   5.759  0.00  0.00    -0.150 OA
ENDROOT
BRANCH   1   4
ATOM      4  C   LIG    1       23.225 -17.460   4.349  0.00  0.00    +0.109 A 
ATOM      5  C   LIG    1       24.417 -17.888   3.765  0.00  0.00    +0.030 A 
ATOM      6  C   LIG    1       24.666 -19.258   3.635  0.00  0.00    +0.024 A 
ATOM      7  C   LIG    1       23.749 -20.204   4.108  0.00  0.00    +0.025 A 
ATOM      8  C   LIG    1       22.526 -19.759   4.618  0.00  0.00    +0.024 A 
ATOM      9  C   LIG    1       22.265 -18.392   4.757  0.00  0.00    +0.030 A 
BRANCH   7  10
ATOM     10  N   LIG    1       23.951 -21.566   3.856  0.00  0.00    -0.358 N 
ATOM     11  H   LIG    1       24.253 -21.770   2.908  0.00  0.00    +0.142 HD
ATOM     12  H   LIG    1       24.528 -22.033   4.549  0.00  0.00    +0.142 HD
ENDBRANCH   7  10
ENDBRANCH   1   4
BRANCH   1  13
ATOM     13  N   LIG    1       24.431 -15.086   4.634  0.00  0.00    -0.195 N 
ATOM     14  H   LIG    1       24.480 -14.667   5.565  0.00  0.00    +0.175 HD
BRANCH  13  16
ATOM     15  C   LIG    1       25.639 -13.990   2.736  0.00  0.00    +0.257 A 
ATOM     16  C   LIG    1       24.661 -14.005   3.739  0.00  0.00    +0.201 A 
ATOM     17  N   LIG    1       23.800 -12.986   3.945  0.00  0.00    -0.233 NA
ATOM     18  C   LIG    1       23.956 -11.935   3.106  0.00  0.00    +0.133 A 
ATOM     19  C   LIG    1       24.936 -11.897   2.124  0.00  0.00    +0.134 A 
ATOM     20  N   LIG    1       25.802 -12.917   1.919  0.00  0.00    -0.217 NA
BRANCH  15  22
ATOM     21  C   LIG    1       27.511 -14.985   3.696  0.00  0.00    +0.279 C 
ATOM     22  O   LIG    1       26.537 -15.033   2.659  0.00  0.00    -0.477 OA
ENDBRANCH  15  22
ENDBRANCH  13  16
ENDBRANCH   1  13
TORSDOF 5
ENDMDL
MODEL 3
REMARK VINA RESULT:      -2.5      1.234      2.071
REMARK  Name = *****
REMARK                            x       y       z     vdW  Elec       q    Type
REMARK                         _______ _______ _______ _____ _____    ______ ____
ROOT
ATOM      1  S   LIG    1       22.857 -18.422   4.262  0.00  0.00    +0.074 S 
ATOM      2  O   LIG    1       22.697 -18.657   5.682  0.00  0.00    -0.150 OA
ATOM      3  O   LIG    1       21.723 -18.386   3.367  0.00  0.00    -0.150 OA
ENDROOT
BRANCH   1   4
ATOM      4  C   LIG    1       23.735 -16.884   4.068  0.00  0.00    +0.109 A 
ATOM      5  C   LIG    1       23.123 -15.678   4.409  0.00  0.00    +0.030 A 
ATOM      6  C   LIG    1       23.816 -14.478   4.219  0.00  0.00    +0.024 A 
ATOM      7  C   LIG    1       25.124 -14.474   3.721  0.00  0.00    +0.025 A 
ATOM      8  C   LIG    1       25.692 -15.684   3.313  0.00  0.00    +0.024 A 
ATOM      9  C   LIG    1       25.013 -16.891   3.498  0.00  0.00    +0.030 A 
BRANCH   7  10
ATOM     10  N   LIG    1       25.756 -13.263   3.417  0.00  0.00    -0.358 N 
ATOM     11  H   LIG    1       26.736 -13.232   3.681  0.00  0.00    +0.142 HD
ATOM     12  H   LIG    1       25.607 -12.947   2.463  0.00  0.00    +0.142 HD
ENDBRANCH   7  10
ENDBRANCH   1   4
BRANCH   1  13
ATOM     13  N   LIG    1       23.972 -19.511   3.598  0.00  0.00    -0.195 N 
ATOM     14  H   LIG    1       23.429 -20.322   3.298  0.00  0.00    +0.175 HD
BRANCH  13  16
ATOM     15  C   LIG    1       24.571 -21.023   5.500  0.00  0.00    +0.257 A 
ATOM     16  C   LIG    1       24.875 -20.020   4.571  0.00  0.00    +0.201 A 
ATOM     17  N   LIG    1       26.091 -19.440   4.484  0.00  0.00    -0.233 NA
ATOM     18  C   LIG    1       27.003 -19.901   5.372  0.00  0.00    +0.133 A 
ATOM     19  C   LIG    1       26.707 -20.878   6.313  0.00  0.00    +0.134 A 
ATOM     20  N   LIG    1       25.487 -21.457   6.404  0.00  0.00    -0.217 NA
BRANCH  15  22
ATOM     21  C   LIG    1       22.815 -21.572   6.926  0.00  0.00    +0.279 C 
ATOM     22  O   LIG    1       23.276 -21.491   5.581  0.00  0.00    -0.477 OA
ENDBRANCH  15  22
ENDBRANCH  13  16
ENDBRANCH   1  13
TORSDOF 5
ENDMDL
MODEL 4
REMARK VINA RESULT:      -2.0      2.658      6.284
REMARK  Name = *****
REMARK                            x       y       z     vdW  Elec       q    Type
REMARK                         _______ _______ _______ _____ _____    ______ ____
ROOT
ATOM      1  S   LIG    1       26.150 -17.019   3.548  0.00  0.00    +0.074 S 
ATOM      2  O   LIG    1       27.426 -17.456   4.077  0.00  0.00    -0.150 OA
ATOM      3  O   LIG    1       25.991 -16.651   2.160  0.00  0.00    -0.150 OA
ENDROOT
BRANCH   1   4
ATOM      4  C   LIG    1       24.959 -18.295   3.900  0.00  0.00    +0.109 A 
ATOM      5  C   LIG    1       23.608 -17.976   4.038  0.00  0.00    +0.030 A 
ATOM      6  C   LIG    1       22.692 -18.987   4.346  0.00  0.00    +0.024 A 
ATOM      7  C   LIG    1       23.107 -20.316   4.489  0.00  0.00    +0.025 A 
ATOM      8  C   LIG    1       24.473 -20.604   4.423  0.00  0.00    +0.024 A 
ATOM      9  C   LIG    1       25.400 -19.606   4.113  0.00  0.00    +0.030 A 
BRANCH   7  10
ATOM     10  N   LIG    1       22.202 -21.292   4.921  0.00  0.00    -0.358 N 
ATOM     11  H   LIG    1       22.606 -21.977   5.554  0.00  0.00    +0.142 HD
ATOM     12  H   LIG    1       21.326 -20.917   5.274  0.00  0.00    +0.142 HD
ENDBRANCH   7  10
ENDBRANCH   1   4
BRANCH   1  13
ATOM     13  N   LIG    1       25.528 -15.741   4.469  0.00  0.00    -0.195 N 
ATOM     14  H   LIG    1       24.573 -16.007   4.714  0.00  0.00    +0.175 HD
BRANCH  13  16
ATOM     15  C   LIG    1       26.447 -13.822   3.150  0.00  0.00    +0.257 A 
ATOM     16  C   LIG    1       25.387 -14.546   3.710  0.00  0.00    +0.201 A 
ATOM     17  N   LIG    1       24.093 -14.193   3.560  0.00  0.00    -0.233 NA
ATOM     18  C   LIG    1       23.893 -13.074   2.826  0.00  0.00    +0.133 A 
ATOM     19  C   LIG    1       24.936 -12.334   2.286  0.00  0.00    +0.134 A 
ATOM     20  N   LIG    1       26.234 -12.685   2.439  0.00  0.00    -0.217 NA
BRANCH  15  22
ATOM     21  C   LIG    1       28.538 -13.110   3.884  0.00  0.00    +0.279 C 
ATOM     22  O   LIG    1       27.742 -14.202   3.435  0.00  0.00    -0.477 OA
ENDBRANCH  15  22
ENDBRANCH  13  16
ENDBRANCH   1  13
TORSDOF 5
ENDMDL
MODEL 5
REMARK VINA RESULT:      -1.8      2.851      6.469
REMARK  Name = *****
REMARK                            x       y       z     vdW  Elec       q    Type
REMARK                         _______ _______ _______ _____ _____    ______ ____
ROOT
ATOM      1  S   LIG    1       24.067 -15.311   3.904  0.00  0.00    +0.074 S 
ATOM      2  O   LIG    1       23.005 -14.651   3.174  0.00  0.00    -0.150 OA
ATOM      3  O   LIG    1       24.514 -14.829   5.191  0.00  0.00    -0.150 OA
ENDROOT
BRANCH   1   4
ATOM      4  C   LIG    1       23.598 -17.017   4.109  0.00  0.00    +0.109 A 
ATOM      5  C   LIG    1       22.385 -17.344   4.716  0.00  0.00    +0.030 A 
ATOM      6  C   LIG    1       22.048 -18.689   4.897  0.00  0.00    +0.024 A 
ATOM      7  C   LIG    1       22.897 -19.710   4.453  0.00  0.00    +0.025 A 
ATOM      8  C   LIG    1       24.141 -19.364   3.918  0.00  0.00    +0.024 A 
ATOM      9  C   LIG    1       24.490 -18.024   3.728  0.00  0.00    +0.030 A 
BRANCH   7  10
ATOM     10  N   LIG    1       22.608 -21.045   4.755  0.00  0.00    -0.358 N 
ATOM     11  H   LIG    1       21.982 -21.492   4.091  0.00  0.00    +0.142 HD
ATOM     12  H   LIG    1       23.428 -21.612   4.948  0.00  0.00    +0.142 HD
ENDBRANCH   7  10
ENDBRANCH   1   4
BRANCH   1  13
ATOM     13  N   LIG    1       25.446 -15.474   2.935  0.00  0.00    -0.195 N 
ATOM     14  H   LIG    1       25.919 -16.321   3.257  0.00  0.00    +0.175 HD
BRANCH  13  16
ATOM     15  C   LIG    1       26.260 -13.123   2.666  0.00  0.00    +0.257 A 
ATOM     16  C   LIG    1       26.387 -14.430   3.153  0.00  0.00    +0.201 A 
ATOM     17  N   LIG    1       27.423 -14.835   3.919  0.00  0.00    -0.233 NA
ATOM     18  C   LIG    1       28.342 -13.876   4.180  0.00  0.00    +0.133 A 
ATOM     19  C   LIG    1       28.240 -12.584   3.684  0.00  0.00    +0.134 A 
ATOM     20  N   LIG    1       27.205 -12.179   2.913  0.00  0.00    -0.217 NA
BRANCH  15  22
ATOM     21  C   LIG    1       24.531 -11.638   2.197  0.00  0.00    +0.279 C 
ATOM     22  O   LIG    1       25.220 -12.823   1.812  0.00  0.00    -0.477 OA
ENDBRANCH  15  22
ENDBRANCH  13  16
ENDBRANCH   1  13
TORSDOF 5
ENDMDL
MODEL 6
REMARK VINA RESULT:      -1.7      2.187      5.770
REMARK  Name = *****
REMARK                            x       y       z     vdW  Elec       q    Type
REMARK                         _______ _______ _______ _____ _____    ______ ____
ROOT
ATOM      1  S   LIG    1       24.972 -18.654   3.674  0.00  0.00    +0.074 S 
ATOM      2  O   LIG    1       24.660 -19.607   2.629  0.00  0.00    -0.150 OA
ATOM      3  O   LIG    1       23.947 -18.109   4.534  0.00  0.00    -0.150 OA
ENDROOT
BRANCH   1   4
ATOM      4  C   LIG    1       26.207 -19.394   4.722  0.00  0.00    +0.109 A 
ATOM      5  C   LIG    1       27.524 -18.936   4.687  0.00  0.00    +0.030 A 
ATOM      6  C   LIG    1       28.487 -19.550   5.494  0.00  0.00    +0.024 A 
ATOM      7  C   LIG    1       28.142 -20.598   6.356  0.00  0.00    +0.025 A 
ATOM      8  C   LIG    1       26.836 -21.094   6.321  0.00  0.00    +0.024 A 
ATOM      9  C   LIG    1       25.862 -20.489   5.522  0.00  0.00    +0.030 A 
BRANCH   7  10
ATOM     10  N   LIG    1       29.137 -21.286   7.060  0.00  0.00    -0.358 N 
ATOM     11  H   LIG    1       30.023 -20.793   7.108  0.00  0.00    +0.142 HD
ATOM     12  H   LIG    1       28.839 -21.626   7.969  0.00  0.00    +0.142 HD
ENDBRANCH   7  10
ENDBRANCH   1   4
BRANCH   1  13
ATOM     13  N   LIG    1       25.835 -17.340   3.044  0.00  0.00    -0.195 N 
ATOM     14  H   LIG    1       26.783 -17.419   3.417  0.00  0.00    +0.175 HD
BRANCH  13  16
ATOM     15  C   LIG    1       26.153 -14.968   3.780  0.00  0.00    +0.257 A 
ATOM     16  C   LIG    1       25.356 -16.094   3.535  0.00  0.00    +0.201 A 
ATOM     17  N   LIG    1       24.018 -16.103   3.718  0.00  0.00    -0.233 NA
ATOM     18  C   LIG    1       23.499 -14.935   4.163  0.00  0.00    +0.133 A 
ATOM     19  C   LIG    1       24.281 -13.821   4.432  0.00  0.00    +0.134 A 
ATOM     20  N   LIG    1       25.623 -13.811   4.254  0.00  0.00    -0.217 NA
BRANCH  15  22
ATOM     21  C   LIG    1       28.176 -13.818   3.765  0.00  0.00    +0.279 C 
ATOM     22  O   LIG    1       27.523 -15.078   3.658  0.00  0.00    -0.477 OA
ENDBRANCH  15  22
ENDBRANCH  13  16
ENDBRANCH   1  13
TORSDOF 5
ENDMDL
MODEL 7
REMARK VINA RESULT:      -1.6      2.748      3.593
REMARK  Name = *****
REMARK                            x       y       z     vdW  Elec       q    Type
REMARK                         _______ _______ _______ _____ _____    ______ ____
ROOT
ATOM      1  S   LIG    1       24.414 -14.857   3.829  0.00  0.00    +0.074 S 
ATOM      2  O   LIG    1       23.683 -14.891   5.079  0.00  0.00    -0.150 OA
ATOM      3  O   LIG    1       23.836 -14.299   2.628  0.00  0.00    -0.150 OA
ENDROOT
BRANCH   1   4
ATOM      4  C   LIG    1       25.947 -14.002   4.129  0.00  0.00    +0.109 A 
ATOM      5  C   LIG    1       26.298 -13.623   5.424  0.00  0.00    +0.030 A 
ATOM      6  C   LIG    1       27.491 -12.923   5.636  0.00  0.00    +0.024 A 
ATOM      7  C   LIG    1       28.349 -12.625   4.571  0.00  0.00    +0.025 A 
ATOM      8  C   LIG    1       27.945 -12.945   3.272  0.00  0.00    +0.024 A 
ATOM      9  C   LIG    1       26.757 -13.646   3.045  0.00  0.00    +0.030 A 
BRANCH   7  10
ATOM     10  N   LIG    1       29.472 -11.816   4.778  0.00  0.00    -0.358 N 
ATOM     11  H   LIG    1       30.193 -11.923   4.071  0.00  0.00    +0.142 HD
ATOM     12  H   LIG    1       29.252 -10.841   4.955  0.00  0.00    +0.142 HD
ENDBRANCH   7  10
ENDBRANCH   1   4
BRANCH   1  13
ATOM     13  N   LIG    1       24.983 -16.401   3.429  0.00  0.00    -0.195 N 
ATOM     14  H   LIG    1       24.960 -16.455   2.409  0.00  0.00    +0.175 HD
BRANCH  13  16
ATOM     15  C   LIG    1       24.467 -18.773   4.038  0.00  0.00    +0.257 A 
ATOM     16  C   LIG    1       24.105 -17.431   3.865  0.00  0.00    +0.201 A 
ATOM     17  N   LIG    1       22.867 -16.962   4.129  0.00  0.00    -0.233 NA
ATOM     18  C   LIG    1       21.991 -17.893   4.571  0.00  0.00    +0.133 A 
ATOM     19  C   LIG    1       22.329 -19.231   4.723  0.00  0.00    +0.134 A 
ATOM     20  N   LIG    1       23.569 -19.703   4.455  0.00  0.00    -0.217 NA
BRANCH  15  22
ATOM     21  C   LIG    1       26.478 -19.708   4.742  0.00  0.00    +0.279 C 
ATOM     22  O   LIG    1       25.726 -19.183   3.653  0.00  0.00    -0.477 OA
ENDBRANCH  15  22
ENDBRANCH  13  16
ENDBRANCH   1  13
TORSDOF 5
ENDMDL
MODEL 8
REMARK VINA RESULT:      -1.2      3.218      7.034
REMARK  Name = *****
REMARK                            x       y       z     vdW  Elec       q    Type
REMARK                         _______ _______ _______ _____ _____    ______ ____
ROOT
ATOM      1  S   LIG    1       27.441 -14.741   3.308  0.00  0.00    +0.074 S 
ATOM      2  O   LIG    1       28.813 -14.433   3.655  0.00  0.00    -0.150 OA
ATOM      3  O   LIG    1       26.924 -14.503   1.980  0.00  0.00    -0.150 OA
ENDROOT
BRANCH   1   4
ATOM      4  C   LIG    1       27.165 -16.459   3.687  0.00  0.00    +0.109 A 
ATOM      5  C   LIG    1       25.994 -17.091   3.268  0.00  0.00    +0.030 A 
ATOM      6  C   LIG    1       25.780 -18.432   3.602  0.00  0.00    +0.024 A 
ATOM      7  C   LIG    1       26.736 -19.155   4.326  0.00  0.00    +0.025 A 
ATOM      8  C   LIG    1       27.866 -18.485   4.803  0.00  0.00    +0.024 A 
ATOM      9  C   LIG    1       28.095 -17.146   4.475  0.00  0.00    +0.030 A 
BRANCH   7  10
ATOM     10  N   LIG    1       26.452 -20.454   4.762  0.00  0.00    -0.358 N 
ATOM     11  H   LIG    1       26.479 -20.565   5.771  0.00  0.00    +0.142 HD
ATOM     12  H   LIG    1       25.610 -20.852   4.357  0.00  0.00    +0.142 HD
ENDBRANCH   7  10
ENDBRANCH   1   4
BRANCH   1  13
ATOM     13  N   LIG    1       26.371 -14.000   4.392  0.00  0.00    -0.195 N 
ATOM     14  H   LIG    1       25.797 -14.751   4.780  0.00  0.00    +0.175 HD
BRANCH  13  16
ATOM     15  C   LIG    1       24.084 -13.044   4.045  0.00  0.00    +0.257 A 
ATOM     16  C   LIG    1       25.447 -13.141   3.736  0.00  0.00    +0.201 A 
ATOM     17  N   LIG    1       26.042 -12.391   2.783  0.00  0.00    -0.233 NA
ATOM     18  C   LIG    1       25.215 -11.535   2.138  0.00  0.00    +0.133 A 
ATOM     19  C   LIG    1       23.859 -11.447   2.418  0.00  0.00    +0.134 A 
ATOM     20  N   LIG    1       23.260 -12.201   3.370  0.00  0.00    -0.217 NA
BRANCH  15  22
ATOM     21  C   LIG    1       23.089 -15.123   4.365  0.00  0.00    +0.279 C 
ATOM     22  O   LIG    1       23.542 -13.915   4.966  0.00  0.00    -0.477 OA
ENDBRANCH  15  22
ENDBRANCH  13  16
ENDBRANCH   1  13
TORSDOF 5
ENDMDL
MODEL 9
REMARK VINA RESULT:      -1.1      2.998      4.725
REMARK  Name = *****
REMARK                            x       y       z     vdW  Elec       q    Type
REMARK                         _______ _______ _______ _____ _____    ______ ____
ROOT
ATOM      1  S   LIG    1       24.900 -20.222   5.020  0.00  0.00    +0.074 S 
ATOM      2  O   LIG    1       25.071 -19.874   6.415  0.00  0.00    -0.150 OA
ATOM      3  O   LIG    1       25.117 -21.569   4.542  0.00  0.00    -0.150 OA
ENDROOT
BRANCH   1   4
ATOM      4  C   LIG    1       23.250 -19.750   4.548  0.00  0.00    +0.109 A 
ATOM      5  C   LIG    1       22.229 -20.700   4.517  0.00  0.00    +0.030 A 
ATOM      6  C   LIG    1       20.946 -20.318   4.113  0.00  0.00    +0.024 A 
ATOM      7  C   LIG    1       20.666 -18.990   3.767  0.00  0.00    +0.025 A 
ATOM      8  C   LIG    1       21.717 -18.070   3.730  0.00  0.00    +0.024 A 
ATOM      9  C   LIG    1       23.004 -18.437   4.133  0.00  0.00    +0.030 A 
BRANCH   7  10
ATOM     10  N   LIG    1       19.414 -18.650   3.244  0.00  0.00    -0.358 N 
ATOM     11  H   LIG    1       19.009 -17.813   3.654  0.00  0.00    +0.142 HD
ATOM     12  H   LIG    1       19.381 -18.631   2.229  0.00  0.00    +0.142 HD
ENDBRANCH   7  10
ENDBRANCH   1   4
BRANCH   1  13
ATOM     13  N   LIG    1       25.819 -19.198   4.032  0.00  0.00    -0.195 N 
ATOM     14  H   LIG    1       26.030 -19.734   3.188  0.00  0.00    +0.175 HD
BRANCH  13  16
ATOM     15  C   LIG    1       27.743 -17.664   4.493  0.00  0.00    +0.257 A 
ATOM     16  C   LIG    1       27.089 -18.899   4.597  0.00  0.00    +0.201 A 
ATOM     17  N   LIG    1       27.596 -19.945   5.284  0.00  0.00    -0.233 NA
ATOM     18  C   LIG    1       28.796 -19.713   5.865  0.00  0.00    +0.133 A 
ATOM     19  C   LIG    1       29.465 -18.502   5.749  0.00  0.00    +0.134 A 
ATOM     20  N   LIG    1       28.959 -17.454   5.058  0.00  0.00    -0.217 NA
BRANCH  15  22
ATOM     21  C   LIG    1       27.676 -15.385   4.027  0.00  0.00    +0.279 C 
ATOM     22  O   LIG    1       27.197 -16.683   3.692  0.00  0.00    -0.477 OA
ENDBRANCH  15  22
ENDBRANCH  13  16
ENDBRANCH   1  13
TORSDOF 5
ENDMDL
