MODEL 1
REMARK VINA RESULT:      13.0      0.000      0.000
REMARK  Name = *****
REMARK                            x       y       z     vdW  Elec       q    Type
REMARK                         _______ _______ _______ _____ _____    ______ ____
ROOT
ATOM      1  N   LIG    1       21.143 -17.308   5.129  0.00  0.00    -0.279 N 
ATOM      2  H   LIG    1       20.282 -17.263   5.656  0.00  0.00    +0.155 HD
ENDROOT
BRANCH   1   3
ATOM      3  C   LIG    1       21.524 -18.614   4.749  0.00  0.00    +0.130 A 
ATOM      4  N   LIG    1       20.704 -19.428   4.081  0.00  0.00    -0.217 NA
ATOM      5  C   LIG    1       21.130 -20.675   3.828  0.00  0.00    +0.130 A 
ATOM      6  C   LIG    1       20.164 -21.566   3.110  0.00  0.00    +0.088 C 
ATOM      7  N   LIG    1       22.322 -21.180   4.202  0.00  0.00    -0.217 NA
ATOM      8  C   LIG    1       23.156 -20.369   4.872  0.00  0.00    +0.127 A 
ATOM      9  C   LIG    1       22.761 -19.066   5.159  0.00  0.00    +0.087 A 
BRANCH   8  10
ATOM     10  N   LIG    1       24.410 -20.857   5.303  0.00  0.00    -0.313 N 
ATOM     11  C   LIG    1       24.814 -20.455   6.661  0.00  0.00    +0.122 C 
ATOM     12  C   LIG    1       26.206 -20.955   7.062  0.00  0.00    +0.103 C 
ATOM     13  N   LIG    1       27.270 -20.631   6.093  0.00  0.00    -0.297 NA
ATOM     14  C   LIG    1       26.858 -21.255   4.807  0.00  0.00    +0.103 C 
ATOM     15  C   LIG    1       25.463 -20.830   4.261  0.00  0.00    +0.122 C 
BRANCH  13  16
ATOM     16  C   LIG    1       27.475 -19.173   5.920  0.00  0.00    +0.112 C 
BRANCH  16  17
ATOM     17  C   LIG    1       28.947 -18.739   6.018  0.00  0.00    +0.171 C 
BRANCH  17  18
ATOM     18  O   LIG    1       29.293 -17.861   4.955  0.00  0.00    -0.394 OA
ATOM     19  H   LIG    1       30.265 -17.909   4.878  0.00  0.00    +0.209 HD
ENDBRANCH  17  18
ENDBRANCH  16  17
ENDBRANCH  13  16
ENDBRANCH   8  10
ENDBRANCH   1   3
BRANCH   1  22
ATOM     20  C   LIG    1       23.597 -14.453   5.081  0.00  0.00    +0.095 A 
ATOM     21  S   LIG    1       23.411 -16.000   4.417  0.00  0.00    -0.048 S 
ATOM     22  C   LIG    1       21.959 -16.243   5.303  0.00  0.00    +0.164 A 
ATOM     23  N   LIG    1       21.659 -15.256   6.122  0.00  0.00    -0.232 NA
ATOM     24  C   LIG    1       22.598 -14.236   6.019  0.00  0.00    +0.133 A 
BRANCH  20  27
ATOM     25  N   LIG    1       25.922 -14.086   4.839  0.00  0.00    -0.280 N 
ATOM     26  H   LIG    1       25.957 -15.087   4.958  0.00  0.00    +0.155 HD
ATOM     27  C   LIG    1       24.641 -13.558   4.644  0.00  0.00    +0.257 C 
ATOM     28  O   LIG    1       24.409 -12.503   4.095  0.00  0.00    -0.269 OA
BRANCH  25  31
ATOM     29  C   LIG    1       26.200 -13.591   1.987  0.00  0.00    +0.045 C 
ATOM     30  C   LIG    1       27.234 -13.193   3.006  0.00  0.00    -0.028 A 
ATOM     31  C   LIG    1       27.084 -13.430   4.391  0.00  0.00    +0.055 A 
ATOM     32  C   LIG    1       28.110 -13.063   5.282  0.00  0.00    +0.062 A 
ATOM     33 CL   LIG    1       28.097 -13.516   6.956  0.00  0.00    -0.082 Cl
ATOM     34  C   LIG    1       29.255 -12.425   4.809  0.00  0.00    +0.022 A 
ATOM     35  C   LIG    1       29.393 -12.155   3.450  0.00  0.00    +0.002 A 
ATOM     36  C   LIG    1       28.397 -12.547   2.556  0.00  0.00    +0.005 A 
ENDBRANCH  25  31
ENDBRANCH  20  27
ENDBRANCH   1  22
TORSDOF 8
ENDMDL
MODEL 2
REMARK VINA RESULT:      13.3      1.776      2.203
REMARK  Name = *****
REMARK                            x       y       z     vdW  Elec       q    Type
REMARK                         _______ _______ _______ _____ _____    ______ ____
ROOT
ATOM      1  N   LIG    1       22.088 -18.215   3.670  0.00  0.00    -0.279 N 
ATOM      2  H   LIG    1       21.151 -18.344   3.313  0.00  0.00    +0.155 HD
ENDROOT
BRANCH   1   3
ATOM      3  C   LIG    1       22.540 -19.264   4.502  0.00  0.00    +0.130 A 
ATOM      4  N   LIG    1       21.721 -19.927   5.319  0.00  0.00    -0.217 NA
ATOM      5  C   LIG    1       22.259 -20.859   6.123  0.00  0.00    +0.130 A 
ATOM      6  C   LIG    1       21.310 -21.553   7.050  0.00  0.00    +0.088 C 
ATOM      7  N   LIG    1       23.567 -21.175   6.178  0.00  0.00    -0.217 NA
ATOM      8  C   LIG    1       24.401 -20.515   5.358  0.00  0.00    +0.127 A 
ATOM      9  C   LIG    1       23.892 -19.540   4.505  0.00  0.00    +0.087 A 
BRANCH   8  10
ATOM     10  N   LIG    1       25.784 -20.797   5.392  0.00  0.00    -0.313 N 
ATOM     11  C   LIG    1       26.303 -21.275   6.685  0.00  0.00    +0.122 C 
ATOM     12  C   LIG    1       27.817 -21.507   6.692  0.00  0.00    +0.103 C 
ATOM     13  N   LIG    1       28.611 -20.358   6.215  0.00  0.00    -0.297 NA
ATOM     14  C   LIG    1       28.146 -20.086   4.828  0.00  0.00    +0.103 C 
ATOM     15  C   LIG    1       26.622 -19.815   4.663  0.00  0.00    +0.122 C 
BRANCH  13  16
ATOM     16  C   LIG    1       28.452 -19.152   7.061  0.00  0.00    +0.112 C 
BRANCH  16  17
ATOM     17  C   LIG    1       29.208 -17.921   6.531  0.00  0.00    +0.171 C 
BRANCH  17  18
ATOM     18  O   LIG    1       29.394 -18.002   5.124  0.00  0.00    -0.394 OA
ATOM     19  H   LIG    1       30.255 -18.445   4.996  0.00  0.00    +0.209 HD
ENDBRANCH  17  18
ENDBRANCH  16  17
ENDBRANCH  13  16
ENDBRANCH   8  10
ENDBRANCH   1   3
BRANCH   1  22
ATOM     20  C   LIG    1       23.778 -14.855   3.811  0.00  0.00    +0.095 A 
ATOM     21  S   LIG    1       23.936 -16.402   4.481  0.00  0.00    -0.048 S 
ATOM     22  C   LIG    1       22.508 -16.929   3.683  0.00  0.00    +0.164 A 
ATOM     23  N   LIG    1       21.888 -15.982   3.010  0.00  0.00    -0.232 NA
ATOM     24  C   LIG    1       22.593 -14.786   3.092  0.00  0.00    +0.133 A 
BRANCH  20  27
ATOM     25  N   LIG    1       26.039 -14.380   4.322  0.00  0.00    -0.280 N 
ATOM     26  H   LIG    1       26.154 -15.359   4.108  0.00  0.00    +0.155 HD
ATOM     27  C   LIG    1       24.792 -13.843   3.986  0.00  0.00    +0.257 C 
ATOM     28  O   LIG    1       24.584 -12.668   3.777  0.00  0.00    -0.269 OA
BRANCH  25  31
ATOM     29  C   LIG    1       26.424 -12.873   6.780  0.00  0.00    +0.045 C 
ATOM     30  C   LIG    1       27.388 -12.842   5.624  0.00  0.00    -0.028 A 
ATOM     31  C   LIG    1       27.196 -13.586   4.438  0.00  0.00    +0.055 A 
ATOM     32  C   LIG    1       28.121 -13.479   3.383  0.00  0.00    +0.062 A 
ATOM     33 CL   LIG    1       27.842 -14.184   1.823  0.00  0.00    -0.082 Cl
ATOM     34  C   LIG    1       29.252 -12.677   3.521  0.00  0.00    +0.022 A 
ATOM     35  C   LIG    1       29.467 -11.970   4.701  0.00  0.00    +0.002 A 
ATOM     36  C   LIG    1       28.537 -12.043   5.738  0.00  0.00    +0.005 A 
ENDBRANCH  25  31
ENDBRANCH  20  27
ENDBRANCH   1  22
TORSDOF 8
ENDMDL
