MODEL 1
REMARK VINA RESULT:       1.6      0.000      0.000
REMARK  Name = *****
REMARK                            x       y       z     vdW  Elec       q    Type
REMARK                         _______ _______ _______ _____ _____    ______ ____
ROOT
ATOM      1  C   LIG    1       23.560 -18.280   3.561  0.00  0.00    -0.004 C 
ATOM      2  C   LIG    1       24.633 -19.136   3.279  0.00  0.00    -0.016 C 
ATOM      3  C   LIG    1       26.049 -18.740   3.192  0.00  0.00    +0.015 C 
ATOM      4  C   LIG    1       26.928 -19.253   4.104  0.00  0.00    +0.078 C 
ATOM      5  C   LIG    1       26.334 -20.309   4.971  0.00  0.00    +0.203 C 
ATOM      6  N   LIG    1       26.573 -20.438   6.276  0.00  0.00    -0.229 N 
ATOM      7  C   LIG    1       25.431 -21.215   4.175  0.00  0.00    +0.078 C 
ATOM      8  C   LIG    1       24.612 -20.581   3.289  0.00  0.00    +0.015 C 
ENDROOT
BRANCH   1  12
ATOM      9  C   LIG    1       24.683 -13.927   4.282  0.00  0.00    +0.030 A 
ATOM     10  C   LIG    1       25.416 -14.880   3.619  0.00  0.00    +0.024 A 
ATOM     11  C   LIG    1       25.058 -16.212   3.355  0.00  0.00    +0.010 A 
ATOM     12  C   LIG    1       23.886 -16.800   3.788  0.00  0.00    -0.017 A 
ATOM     13  C   LIG    1       23.112 -15.808   4.418  0.00  0.00    +0.010 A 
ATOM     14  C   LIG    1       23.510 -14.489   4.724  0.00  0.00    +0.024 A 
BRANCH   9  15
ATOM     15  N   LIG    1       25.033 -12.595   4.440  0.00  0.00    -0.330 N 
BRANCH  15  17
ATOM     16  C   LIG    1       24.267 -11.653   2.127  0.00  0.00    +0.024 C 
ATOM     17  C   LIG    1       24.457 -11.462   3.620  0.00  0.00    +0.102 C 
ENDBRANCH  15  17
BRANCH  15  18
ATOM     18  C   LIG    1       26.076 -12.088   5.406  0.00  0.00    +0.102 C 
ATOM     19  C   LIG    1       27.520 -12.582   5.292  0.00  0.00    +0.024 C 
ENDBRANCH  15  18
ENDBRANCH   9  15
ENDBRANCH   1  12
BRANCH   1  20
ATOM     20  C   LIG    1       22.067 -18.859   3.659  0.00  0.00    -0.017 A 
ATOM     21  C   LIG    1       20.939 -18.262   3.069  0.00  0.00    +0.008 A 
ATOM     22  C   LIG    1       19.615 -18.733   3.204  0.00  0.00    +0.001 A 
ATOM     23  C   LIG    1       19.355 -19.927   3.846  0.00  0.00    +0.000 A 
ATOM     24  C   LIG    1       20.418 -20.603   4.400  0.00  0.00    +0.001 A 
ATOM     25  C   LIG    1       21.712 -20.034   4.373  0.00  0.00    +0.008 A 
ENDBRANCH   1  20
BRANCH   6  26
ATOM     26  C   LIG    1       25.979 -21.571   7.062  0.00  0.00    +0.347 C 
ATOM     27  C   LIG    1       24.462 -21.547   7.032  0.00  0.00    +0.082 C 
ENDBRANCH   6  26
BRANCH   6  28
ATOM     28  C   LIG    1       27.446 -19.484   7.050  0.00  0.00    +0.347 C 
ATOM     29  C   LIG    1       28.930 -19.716   6.761  0.00  0.00    +0.082 C 
ENDBRANCH   6  28
TORSDOF 7
ENDMDL
MODEL 2
REMARK VINA RESULT:       1.9      0.182      1.641
REMARK  Name = *****
REMARK                            x       y       z     vdW  Elec       q    Type
REMARK                         _______ _______ _______ _____ _____    ______ ____
ROOT
ATOM      1  C   LIG    1       23.626 -18.264   3.516  0.00  0.00    -0.004 C 
ATOM      2  C   LIG    1       24.671 -19.158   3.244  0.00  0.00    -0.016 C 
ATOM      3  C   LIG    1       26.098 -18.808   3.145  0.00  0.00    +0.015 C 
ATOM      4  C   LIG    1       26.964 -19.333   4.063  0.00  0.00    +0.078 C 
ATOM      5  C   LIG    1       26.342 -20.356   4.949  0.00  0.00    +0.203 C 
ATOM      6  N   LIG    1       26.582 -20.470   6.256  0.00  0.00    -0.229 N 
ATOM      7  C   LIG    1       25.407 -21.246   4.172  0.00  0.00    +0.078 C 
ATOM      8  C   LIG    1       24.605 -20.601   3.279  0.00  0.00    +0.015 C 
ENDROOT
BRANCH   1  12
ATOM      9  C   LIG    1       24.888 -13.938   4.159  0.00  0.00    +0.030 A 
ATOM     10  C   LIG    1       25.584 -14.922   3.501  0.00  0.00    +0.024 A 
ATOM     11  C   LIG    1       25.182 -16.246   3.261  0.00  0.00    +0.010 A 
ATOM     12  C   LIG    1       23.999 -16.792   3.717  0.00  0.00    -0.017 A 
ATOM     13  C   LIG    1       23.263 -15.768   4.342  0.00  0.00    +0.010 A 
ATOM     14  C   LIG    1       23.704 -14.458   4.623  0.00  0.00    +0.024 A 
BRANCH   9  15
ATOM     15  N   LIG    1       25.280 -12.614   4.293  0.00  0.00    -0.330 N 
BRANCH  15  17
ATOM     16  C   LIG    1       27.807 -12.644   4.954  0.00  0.00    +0.024 C 
ATOM     17  C   LIG    1       26.395 -12.146   5.201  0.00  0.00    +0.102 C 
ENDBRANCH  15  17
BRANCH  15  18
ATOM     18  C   LIG    1       24.619 -11.447   3.601  0.00  0.00    +0.102 C 
ATOM     19  C   LIG    1       24.289 -11.536   2.109  0.00  0.00    +0.024 C 
ENDBRANCH  15  18
ENDBRANCH   9  15
ENDBRANCH   1  12
BRANCH   1  20
ATOM     20  C   LIG    1       22.116 -18.795   3.629  0.00  0.00    -0.017 A 
ATOM     21  C   LIG    1       21.743 -20.024   4.202  0.00  0.00    +0.008 A 
ATOM     22  C   LIG    1       20.423 -20.522   4.248  0.00  0.00    +0.001 A 
ATOM     23  C   LIG    1       19.362 -19.747   3.828  0.00  0.00    +0.000 A 
ATOM     24  C   LIG    1       19.642 -18.505   3.307  0.00  0.00    +0.001 A 
ATOM     25  C   LIG    1       20.984 -18.090   3.142  0.00  0.00    +0.008 A 
ENDBRANCH   1  20
BRANCH   6  26
ATOM     26  C   LIG    1       25.956 -21.572   7.062  0.00  0.00    +0.347 C 
ATOM     27  C   LIG    1       24.441 -21.542   6.980  0.00  0.00    +0.082 C 
ENDBRANCH   6  26
BRANCH   6  28
ATOM     28  C   LIG    1       27.488 -19.532   7.010  0.00  0.00    +0.347 C 
ATOM     29  C   LIG    1       28.950 -19.706   6.598  0.00  0.00    +0.082 C 
ENDBRANCH   6  28
TORSDOF 7
ENDMDL
