MODEL 1
REMARK VINA RESULT:       1.5      0.000      0.000
REMARK  Name = *****
REMARK                            x       y       z     vdW  Elec       q    Type
REMARK                         _______ _______ _______ _____ _____    ______ ____
ROOT
ATOM      1  C   LIG    1       23.662 -20.154   4.276  0.00  0.00    +0.044 C 
ATOM      2  C   LIG    1       22.351 -20.505   5.011  0.00  0.00    +0.122 C 
ATOM      3  C   LIG    1       22.785 -20.974   6.407  0.00  0.00    +0.036 C 
ATOM      4  C   LIG    1       24.217 -21.515   6.246  0.00  0.00    -0.001 C 
ATOM      5  C   LIG    1       25.307 -20.793   7.060  0.00  0.00    +0.034 C 
ATOM      6  C   LIG    1       26.458 -20.575   6.094  0.00  0.00    -0.073 C 
ATOM      7  C   LIG    1       27.610 -19.956   6.420  0.00  0.00    -0.027 C 
ATOM      8  C   LIG    1       26.099 -21.145   4.750  0.00  0.00    +0.035 C 
ATOM      9  C   LIG    1       24.583 -21.297   4.773  0.00  0.00    +0.006 C 
ENDROOT
BRANCH   1  11
ATOM     10  C   LIG    1       23.971 -17.705   3.705  0.00  0.00    +0.000 C 
ATOM     11  C   LIG    1       24.060 -18.723   4.583  0.00  0.00    -0.022 C 
BRANCH  10  12
ATOM     12  C   LIG    1       24.309 -16.267   4.028  0.00  0.00    +0.141 C 
BRANCH  12  13
ATOM     13  C   LIG    1       23.100 -15.378   4.426  0.00  0.00    +0.030 C 
ATOM     14  C   LIG    1       23.558 -14.151   5.241  0.00  0.00    +0.011 C 
BRANCH  13  15
ATOM     15  C   LIG    1       21.999 -16.137   5.194  0.00  0.00    +0.095 C 
BRANCH  15  18
ATOM     16  C   LIG    1       19.640 -18.643   2.923  0.00  0.00    +0.106 C 
ATOM     17  C   LIG    1       20.562 -17.792   3.665  0.00  0.00    -0.106 C 
ATOM     18  C   LIG    1       21.260 -17.064   4.333  0.00  0.00    -0.102 C 
ENDBRANCH  15  18
ENDBRANCH  13  15
ENDBRANCH  12  13
BRANCH  12  19
ATOM     19  O   LIG    1       24.904 -15.715   2.851  0.00  0.00    -0.388 OA
ATOM     20  H   LIG    1       24.242 -15.781   2.140  0.00  0.00    +0.210 HD
ENDBRANCH  12  19
ENDBRANCH  10  12
ENDBRANCH   1  11
BRANCH   2  21
ATOM     21  O   LIG    1       21.694 -21.572   4.324  0.00  0.00    -0.391 OA
ATOM     22  H   LIG    1       22.242 -22.368   4.431  0.00  0.00    +0.210 HD
ENDBRANCH   2  21
BRANCH   7  23
ATOM     23  C   LIG    1       28.781 -19.633   5.516  0.00  0.00    +0.028 C 
BRANCH  23  24
ATOM     24  C   LIG    1       29.057 -18.143   5.236  0.00  0.00    +0.015 C 
BRANCH  24  25
ATOM     25  C   LIG    1       27.967 -17.466   4.404  0.00  0.00    +0.121 C 
BRANCH  25  26
ATOM     26  C   LIG    1       27.810 -15.985   4.674  0.00  0.00    +0.307 C 
ATOM     27  O   LIG    1       27.909 -15.441   5.765  0.00  0.00    -0.251 OA
BRANCH  26  28
ATOM     28  O   LIG    1       27.468 -15.347   3.516  0.00  0.00    -0.457 OA
BRANCH  28  29
ATOM     29  C   LIG    1       28.400 -14.360   3.071  0.00  0.00    +0.311 C 
BRANCH  29  30
ATOM     30  C   LIG    1       27.924 -12.948   3.420  0.00  0.00    +0.200 C 
ATOM     31  O   LIG    1       28.726 -12.094   3.804  0.00  0.00    -0.288 OA
BRANCH  30  32
ATOM     32  C   LIG    1       26.475 -12.596   3.314  0.00  0.00    +0.021 A 
ATOM     33  C   LIG    1       25.889 -12.492   2.042  0.00  0.00    +0.011 A 
ATOM     34  C   LIG    1       24.551 -12.108   1.909  0.00  0.00    +0.001 A 
ATOM     35  C   LIG    1       23.794 -11.810   3.041  0.00  0.00    +0.000 A 
ATOM     36  C   LIG    1       24.356 -11.946   4.305  0.00  0.00    +0.001 A 
ATOM     37  C   LIG    1       25.683 -12.350   4.441  0.00  0.00    +0.011 A 
ENDBRANCH  30  32
ENDBRANCH  29  30
ENDBRANCH  28  29
ENDBRANCH  26  28
ENDBRANCH  25  26
ENDBRANCH  24  25
ENDBRANCH  23  24
ENDBRANCH   7  23
TORSDOF 15
ENDMDL
