MODEL 1
REMARK VINA RESULT:      -7.2      0.000      0.000
REMARK  Name = *****
REMARK                            x       y       z     vdW  Elec       q    Type
REMARK                         _______ _______ _______ _____ _____    ______ ____
ROOT
ATOM      1  C   LIG    1       24.627 -20.375   4.721  0.00  0.00    +0.065 C 
ATOM      2  C   LIG    1       25.486 -21.474   5.389  0.00  0.00    +0.097 C 
ATOM      3  C   LIG    1       24.600 -22.637   5.855  0.00  0.00    +0.065 C 
ATOM      4  C   LIG    1       23.296 -22.425   6.149  0.00  0.00    +0.016 C 
ATOM      5  C   LIG    1       22.387 -23.434   6.806  0.00  0.00    +0.061 C 
ATOM      6  N   LIG    1       22.733 -21.180   5.899  0.00  0.00    -0.321 N 
ATOM      7  H   LIG    1       21.724 -21.112   6.020  0.00  0.00    +0.152 HD
ATOM      8  C   LIG    1       23.318 -20.237   5.055  0.00  0.00    +0.016 C 
ATOM      9  C   LIG    1       22.387 -19.135   4.601  0.00  0.00    +0.061 C 
ENDROOT
BRANCH   2  10
ATOM     10  C   LIG    1       26.313 -20.873   6.569  0.00  0.00    -0.015 A 
ATOM     11  C   LIG    1       27.584 -20.259   6.445  0.00  0.00    +0.063 A 
ATOM     12 CL   LIG    1       28.391 -20.181   4.911  0.00  0.00    -0.082 Cl
ATOM     13  C   LIG    1       28.224 -19.707   7.584  0.00  0.00    +0.059 A 
ATOM     14 CL   LIG    1       29.773 -18.928   7.519  0.00  0.00    -0.082 Cl
ATOM     15  C   LIG    1       27.621 -19.765   8.842  0.00  0.00    +0.021 A 
ATOM     16  C   LIG    1       26.391 -20.387   8.983  0.00  0.00    +0.002 A 
ATOM     17  C   LIG    1       25.754 -20.928   7.867  0.00  0.00    +0.006 A 
ENDBRANCH   2  10
BRANCH   1  18
ATOM     18  C   LIG    1       25.242 -19.561   3.630  0.00  0.00    +0.340 C 
ATOM     19  O   LIG    1       25.446 -19.932   2.496  0.00  0.00    -0.245 OA
BRANCH  18  20
ATOM     20  O   LIG    1       25.631 -18.370   4.156  0.00  0.00    -0.424 OA
BRANCH  20  21
ATOM     21  C   LIG    1       25.765 -17.301   3.221  0.00  0.00    +0.473 C 
BRANCH  21  22
ATOM     22  O   LIG    1       26.766 -16.374   3.625  0.00  0.00    -0.427 OA
BRANCH  22  23
ATOM     23  C   LIG    1       26.567 -15.091   3.254  0.00  0.00    +0.310 C 
ATOM     24  O   LIG    1       26.661 -14.670   2.106  0.00  0.00    -0.251 OA
BRANCH  23  25
ATOM     25  C   LIG    1       26.175 -14.255   4.435  0.00  0.00    +0.120 C 
BRANCH  25  27
ATOM     26  C   LIG    1       23.650 -14.573   4.295  0.00  0.00    +0.004 C 
ATOM     27  C   LIG    1       24.814 -13.593   4.247  0.00  0.00    +0.008 C 
ENDBRANCH  25  27
ENDBRANCH  23  25
ENDBRANCH  22  23
ENDBRANCH  21  22
ENDBRANCH  20  21
ENDBRANCH  18  20
ENDBRANCH   1  18
BRANCH   3  28
ATOM     28  C   LIG    1       25.180 -24.005   5.907  0.00  0.00    +0.337 C 
ATOM     29  O   LIG    1       25.813 -24.464   6.836  0.00  0.00    -0.245 OA
BRANCH  28  30
ATOM     30  O   LIG    1       24.936 -24.637   4.732  0.00  0.00    -0.465 OA
ATOM     31  C   LIG    1       25.321 -26.009   4.718  0.00  0.00    +0.280 C 
ENDBRANCH  28  30
ENDBRANCH   3  28
TORSDOF 10
ENDMDL
MODEL 2
REMARK VINA RESULT:      -6.2      7.362     11.441
REMARK  Name = *****
REMARK                            x       y       z     vdW  Elec       q    Type
REMARK                         _______ _______ _______ _____ _____    ______ ____
ROOT
ATOM      1  C   LIG    1       24.950 -31.017   6.743  0.00  0.00    +0.065 C 
ATOM      2  C   LIG    1       24.909 -31.068   8.288  0.00  0.00    +0.097 C 
ATOM      3  C   LIG    1       26.147 -31.793   8.834  0.00  0.00    +0.065 C 
ATOM      4  C   LIG    1       26.792 -32.708   8.073  0.00  0.00    +0.016 C 
ATOM      5  C   LIG    1       27.882 -33.624   8.568  0.00  0.00    +0.061 C 
ATOM      6  N   LIG    1       26.407 -32.887   6.750  0.00  0.00    -0.321 N 
ATOM      7  H   LIG    1       27.004 -33.493   6.188  0.00  0.00    +0.152 HD
ATOM      8  C   LIG    1       25.636 -31.961   6.049  0.00  0.00    +0.016 C 
ATOM      9  C   LIG    1       25.659 -32.131   4.547  0.00  0.00    +0.061 C 
ENDROOT
BRANCH   2  10
ATOM     10  C   LIG    1       23.587 -31.743   8.773  0.00  0.00    -0.015 A 
ATOM     11  C   LIG    1       22.759 -31.261   9.816  0.00  0.00    +0.063 A 
ATOM     12 CL   LIG    1       23.202 -29.852  10.727  0.00  0.00    -0.082 Cl
ATOM     13  C   LIG    1       21.555 -31.935  10.141  0.00  0.00    +0.059 A 
ATOM     14 CL   LIG    1       20.478 -31.406  11.395  0.00  0.00    -0.082 Cl
ATOM     15  C   LIG    1       21.168 -33.084   9.449  0.00  0.00    +0.021 A 
ATOM     16  C   LIG    1       21.982 -33.583   8.445  0.00  0.00    +0.002 A 
ATOM     17  C   LIG    1       23.166 -32.924   8.117  0.00  0.00    +0.006 A 
ENDBRANCH   2  10
BRANCH   1  18
ATOM     18  C   LIG    1       24.321 -29.850   6.056  0.00  0.00    +0.340 C 
ATOM     19  O   LIG    1       23.175 -29.786   5.669  0.00  0.00    -0.245 OA
BRANCH  18  20
ATOM     20  O   LIG    1       25.282 -28.914   5.842  0.00  0.00    -0.424 OA
BRANCH  20  21
ATOM     21  C   LIG    1       25.287 -27.819   6.756  0.00  0.00    +0.473 C 
BRANCH  21  22
ATOM     22  O   LIG    1       24.470 -26.749   6.297  0.00  0.00    -0.427 OA
BRANCH  22  23
ATOM     23  C   LIG    1       25.109 -25.755   5.644  0.00  0.00    +0.310 C 
ATOM     24  O   LIG    1       25.764 -25.898   4.618  0.00  0.00    -0.251 OA
BRANCH  23  25
ATOM     25  C   LIG    1       24.874 -24.440   6.326  0.00  0.00    +0.120 C 
BRANCH  25  27
ATOM     26  C   LIG    1       23.041 -22.762   6.890  0.00  0.00    +0.004 C 
ATOM     27  C   LIG    1       23.406 -24.224   6.673  0.00  0.00    +0.008 C 
ENDBRANCH  25  27
ENDBRANCH  23  25
ENDBRANCH  22  23
ENDBRANCH  21  22
ENDBRANCH  20  21
ENDBRANCH  18  20
ENDBRANCH   1  18
BRANCH   3  28
ATOM     28  C   LIG    1       26.662 -31.421  10.178  0.00  0.00    +0.337 C 
ATOM     29  O   LIG    1       26.225 -31.829  11.234  0.00  0.00    -0.245 OA
BRANCH  28  30
ATOM     30  O   LIG    1       27.660 -30.514  10.036  0.00  0.00    -0.465 OA
ATOM     31  C   LIG    1       27.671 -29.499  11.037  0.00  0.00    +0.280 C 
ENDBRANCH  28  30
ENDBRANCH   3  28
TORSDOF 10
ENDMDL
MODEL 3
REMARK VINA RESULT:      -5.7      7.895     11.563
REMARK  Name = *****
REMARK                            x       y       z     vdW  Elec       q    Type
REMARK                         _______ _______ _______ _____ _____    ______ ____
ROOT
ATOM      1  C   LIG    1       24.687 -30.155  10.661  0.00  0.00    +0.065 C 
ATOM      2  C   LIG    1       24.402 -29.117  11.772  0.00  0.00    +0.097 C 
ATOM      3  C   LIG    1       25.404 -29.276  12.924  0.00  0.00    +0.065 C 
ATOM      4  C   LIG    1       25.996 -30.472  13.152  0.00  0.00    +0.016 C 
ATOM      5  C   LIG    1       26.830 -30.802  14.365  0.00  0.00    +0.061 C 
ATOM      6  N   LIG    1       25.794 -31.515  12.257  0.00  0.00    -0.321 N 
ATOM      7  H   LIG    1       26.360 -32.349  12.406  0.00  0.00    +0.152 HD
ATOM      8  C   LIG    1       25.305 -31.325  10.966  0.00  0.00    +0.016 C 
ATOM      9  C   LIG    1       25.528 -32.492  10.030  0.00  0.00    +0.061 C 
ENDROOT
BRANCH   2  10
ATOM     10  C   LIG    1       22.928 -29.247  12.269  0.00  0.00    -0.015 A 
ATOM     11  C   LIG    1       22.158 -28.195  12.823  0.00  0.00    +0.063 A 
ATOM     12 CL   LIG    1       22.843 -26.620  13.066  0.00  0.00    -0.082 Cl
ATOM     13  C   LIG    1       20.810 -28.421  13.200  0.00  0.00    +0.059 A 
ATOM     14 CL   LIG    1       19.793 -27.186  13.874  0.00  0.00    -0.082 Cl
ATOM     15  C   LIG    1       20.222 -29.677  13.042  0.00  0.00    +0.021 A 
ATOM     16  C   LIG    1       20.972 -30.723  12.529  0.00  0.00    +0.002 A 
ATOM     17  C   LIG    1       22.297 -30.508  12.151  0.00  0.00    +0.006 A 
ENDBRANCH   2  10
BRANCH   1  18
ATOM     18  C   LIG    1       24.374 -29.785   9.249  0.00  0.00    +0.340 C 
ATOM     19  O   LIG    1       23.358 -30.059   8.651  0.00  0.00    -0.245 OA
BRANCH  18  20
ATOM     20  O   LIG    1       25.469 -29.182   8.715  0.00  0.00    -0.424 OA
BRANCH  20  21
ATOM     21  C   LIG    1       25.298 -28.651   7.402  0.00  0.00    +0.473 C 
BRANCH  21  22
ATOM     22  O   LIG    1       25.762 -27.309   7.315  0.00  0.00    -0.427 OA
BRANCH  22  23
ATOM     23  C   LIG    1       25.817 -26.782   6.074  0.00  0.00    +0.310 C 
ATOM     24  O   LIG    1       26.832 -26.696   5.392  0.00  0.00    -0.251 OA
BRANCH  23  25
ATOM     25  C   LIG    1       24.453 -26.348   5.624  0.00  0.00    +0.120 C 
BRANCH  25  27
ATOM     26  C   LIG    1       25.045 -24.032   6.507  0.00  0.00    +0.004 C 
ATOM     27  C   LIG    1       23.972 -25.102   6.359  0.00  0.00    +0.008 C 
ENDBRANCH  25  27
ENDBRANCH  23  25
ENDBRANCH  22  23
ENDBRANCH  21  22
ENDBRANCH  20  21
ENDBRANCH  18  20
ENDBRANCH   1  18
BRANCH   3  28
ATOM     28  C   LIG    1       25.762 -28.082  13.734  0.00  0.00    +0.337 C 
ATOM     29  O   LIG    1       25.398 -27.871  14.872  0.00  0.00    -0.245 OA
BRANCH  28  30
ATOM     30  O   LIG    1       26.514 -27.242  12.979  0.00  0.00    -0.465 OA
ATOM     31  C   LIG    1       26.835 -26.012  13.623  0.00  0.00    +0.280 C 
ENDBRANCH  28  30
ENDBRANCH   3  28
TORSDOF 10
ENDMDL
MODEL 4
REMARK VINA RESULT:      -5.7      7.803     11.537
REMARK  Name = *****
REMARK                            x       y       z     vdW  Elec       q    Type
REMARK                         _______ _______ _______ _____ _____    ______ ____
ROOT
ATOM      1  C   LIG    1       25.237 -30.051   9.595  0.00  0.00    +0.065 C 
ATOM      2  C   LIG    1       25.030 -29.304  10.934  0.00  0.00    +0.097 C 
ATOM      3  C   LIG    1       26.382 -28.907  11.541  0.00  0.00    +0.065 C 
ATOM      4  C   LIG    1       27.497 -29.617  11.246  0.00  0.00    +0.016 C 
ATOM      5  C   LIG    1       28.829 -29.454  11.934  0.00  0.00    +0.061 C 
ATOM      6  N   LIG    1       27.432 -30.621  10.287  0.00  0.00    -0.321 N 
ATOM      7  H   LIG    1       28.321 -31.036  10.013  0.00  0.00    +0.152 HD
ATOM      8  C   LIG    1       26.393 -30.725   9.365  0.00  0.00    +0.016 C 
ATOM      9  C   LIG    1       26.692 -31.613   8.177  0.00  0.00    +0.061 C 
ENDROOT
BRANCH   2  10
ATOM     10  C   LIG    1       24.192 -30.179  11.918  0.00  0.00    -0.015 A 
ATOM     11  C   LIG    1       23.144 -29.702  12.743  0.00  0.00    +0.063 A 
ATOM     12 CL   LIG    1       22.732 -28.017  12.778  0.00  0.00    -0.082 Cl
ATOM     13  C   LIG    1       22.420 -30.600  13.568  0.00  0.00    +0.059 A 
ATOM     14 CL   LIG    1       21.116 -30.103  14.599  0.00  0.00    -0.082 Cl
ATOM     15  C   LIG    1       22.730 -31.961  13.588  0.00  0.00    +0.021 A 
ATOM     16  C   LIG    1       23.770 -32.438  12.807  0.00  0.00    +0.002 A 
ATOM     17  C   LIG    1       24.484 -31.561  11.991  0.00  0.00    +0.006 A 
ENDBRANCH   2  10
BRANCH   1  18
ATOM     18  C   LIG    1       24.193 -29.910   8.537  0.00  0.00    +0.340 C 
ATOM     19  O   LIG    1       23.164 -30.544   8.466  0.00  0.00    -0.245 OA
BRANCH  18  20
ATOM     20  O   LIG    1       24.646 -29.028   7.608  0.00  0.00    -0.424 OA
BRANCH  20  21
ATOM     21  C   LIG    1       24.375 -29.373   6.251  0.00  0.00    +0.473 C 
BRANCH  21  22
ATOM     22  O   LIG    1       23.992 -28.236   5.487  0.00  0.00    -0.427 OA
BRANCH  22  23
ATOM     23  C   LIG    1       24.893 -27.233   5.428  0.00  0.00    +0.310 C 
ATOM     24  O   LIG    1       26.037 -27.341   5.002  0.00  0.00    -0.251 OA
BRANCH  23  25
ATOM     25  C   LIG    1       24.289 -25.952   5.922  0.00  0.00    +0.120 C 
BRANCH  25  27
ATOM     26  C   LIG    1       25.759 -24.162   6.985  0.00  0.00    +0.004 C 
ATOM     27  C   LIG    1       25.208 -24.756   5.696  0.00  0.00    +0.008 C 
ENDBRANCH  25  27
ENDBRANCH  23  25
ENDBRANCH  22  23
ENDBRANCH  21  22
ENDBRANCH  20  21
ENDBRANCH  18  20
ENDBRANCH   1  18
BRANCH   3  28
ATOM     28  C   LIG    1       26.457 -27.694  12.398  0.00  0.00    +0.337 C 
ATOM     29  O   LIG    1       26.772 -26.586  12.018  0.00  0.00    -0.245 OA
BRANCH  28  30
ATOM     30  O   LIG    1       26.169 -28.037  13.679  0.00  0.00    -0.465 OA
ATOM     31  C   LIG    1       25.765 -26.942  14.496  0.00  0.00    +0.280 C 
ENDBRANCH  28  30
ENDBRANCH   3  28
TORSDOF 10
ENDMDL
MODEL 5
REMARK VINA RESULT:      -5.6      6.822     10.204
REMARK  Name = *****
REMARK                            x       y       z     vdW  Elec       q    Type
REMARK                         _______ _______ _______ _____ _____    ______ ____
ROOT
ATOM      1  C   LIG    1       25.144 -29.539   7.940  0.00  0.00    +0.065 C 
ATOM      2  C   LIG    1       25.280 -30.479   9.160  0.00  0.00    +0.097 C 
ATOM      3  C   LIG    1       25.225 -31.947   8.715  0.00  0.00    +0.065 C 
ATOM      4  C   LIG    1       24.580 -32.290   7.575  0.00  0.00    +0.016 C 
ATOM      5  C   LIG    1       24.285 -33.706   7.147  0.00  0.00    +0.061 C 
ATOM      6  N   LIG    1       24.086 -31.292   6.744  0.00  0.00    -0.321 N 
ATOM      7  H   LIG    1       23.723 -31.599   5.843  0.00  0.00    +0.152 HD
ATOM      8  C   LIG    1       24.499 -29.964   6.823  0.00  0.00    +0.016 C 
ATOM      9  C   LIG    1       24.162 -29.128   5.608  0.00  0.00    +0.061 C 
ENDROOT
BRANCH   2  10
ATOM     10  C   LIG    1       24.177 -30.157  10.217  0.00  0.00    -0.015 A 
ATOM     11  C   LIG    1       24.387 -29.445  11.424  0.00  0.00    +0.063 A 
ATOM     12 CL   LIG    1       25.972 -28.906  11.878  0.00  0.00    -0.082 Cl
ATOM     13  C   LIG    1       23.298 -29.173  12.290  0.00  0.00    +0.059 A 
ATOM     14 CL   LIG    1       23.464 -28.299  13.780  0.00  0.00    -0.082 Cl
ATOM     15  C   LIG    1       22.008 -29.605  11.976  0.00  0.00    +0.021 A 
ATOM     16  C   LIG    1       21.792 -30.326  10.813  0.00  0.00    +0.002 A 
ATOM     17  C   LIG    1       22.858 -30.595   9.954  0.00  0.00    +0.006 A 
ENDBRANCH   2  10
BRANCH   1  18
ATOM     18  C   LIG    1       25.835 -28.216   7.984  0.00  0.00    +0.340 C 
ATOM     19  O   LIG    1       26.631 -27.858   8.823  0.00  0.00    -0.245 OA
BRANCH  18  20
ATOM     20  O   LIG    1       25.337 -27.442   6.984  0.00  0.00    -0.424 OA
BRANCH  20  21
ATOM     21  C   LIG    1       26.158 -26.345   6.590  0.00  0.00    +0.473 C 
BRANCH  21  22
ATOM     22  O   LIG    1       25.559 -25.097   6.919  0.00  0.00    -0.427 OA
BRANCH  22  23
ATOM     23  C   LIG    1       24.741 -24.570   5.983  0.00  0.00    +0.310 C 
ATOM     24  O   LIG    1       24.959 -24.577   4.777  0.00  0.00    -0.251 OA
BRANCH  23  25
ATOM     25  C   LIG    1       23.506 -24.007   6.619  0.00  0.00    +0.120 C 
BRANCH  25  27
ATOM     26  C   LIG    1       23.048 -21.539   6.173  0.00  0.00    +0.004 C 
ATOM     27  C   LIG    1       23.701 -22.568   7.085  0.00  0.00    +0.008 C 
ENDBRANCH  25  27
ENDBRANCH  23  25
ENDBRANCH  22  23
ENDBRANCH  21  22
ENDBRANCH  20  21
ENDBRANCH  18  20
ENDBRANCH   1  18
BRANCH   3  28
ATOM     28  C   LIG    1       25.950 -32.968   9.517  0.00  0.00    +0.337 C 
ATOM     29  O   LIG    1       25.433 -33.760  10.277  0.00  0.00    -0.245 OA
BRANCH  28  30
ATOM     30  O   LIG    1       27.284 -32.835   9.304  0.00  0.00    -0.465 OA
ATOM     31  C   LIG    1       27.834 -33.821   8.434  0.00  0.00    +0.280 C 
ENDBRANCH  28  30
ENDBRANCH   3  28
TORSDOF 10
ENDMDL
MODEL 6
REMARK VINA RESULT:      -5.6      8.087     11.574
REMARK  Name = *****
REMARK                            x       y       z     vdW  Elec       q    Type
REMARK                         _______ _______ _______ _____ _____    ______ ____
ROOT
ATOM      1  C   LIG    1       25.644 -30.363  11.003  0.00  0.00    +0.065 C 
ATOM      2  C   LIG    1       26.128 -29.601  12.259  0.00  0.00    +0.097 C 
ATOM      3  C   LIG    1       26.406 -30.581  13.407  0.00  0.00    +0.065 C 
ATOM      4  C   LIG    1       25.764 -31.773  13.456  0.00  0.00    +0.016 C 
ATOM      5  C   LIG    1       25.798 -32.720  14.629  0.00  0.00    +0.061 C 
ATOM      6  N   LIG    1       24.958 -32.157  12.392  0.00  0.00    -0.321 N 
ATOM      7  H   LIG    1       24.601 -33.111  12.423  0.00  0.00    +0.152 HD
ATOM      8  C   LIG    1       25.026 -31.565  11.133  0.00  0.00    +0.016 C 
ATOM      9  C   LIG    1       24.376 -32.364  10.025  0.00  0.00    +0.061 C 
ENDROOT
BRANCH   2  10
ATOM     10  C   LIG    1       25.085 -28.515  12.669  0.00  0.00    -0.015 A 
ATOM     11  C   LIG    1       25.400 -27.214  13.133  0.00  0.00    +0.063 A 
ATOM     12 CL   LIG    1       27.048 -26.722  13.356  0.00  0.00    -0.082 Cl
ATOM     13  C   LIG    1       24.364 -26.294  13.435  0.00  0.00    +0.059 A 
ATOM     14 CL   LIG    1       24.662 -24.679  13.996  0.00  0.00    -0.082 Cl
ATOM     15  C   LIG    1       23.023 -26.653  13.291  0.00  0.00    +0.021 A 
ATOM     16  C   LIG    1       22.699 -27.931  12.865  0.00  0.00    +0.002 A 
ATOM     17  C   LIG    1       23.712 -28.840  12.562  0.00  0.00    +0.006 A 
ENDBRANCH   2  10
BRANCH   1  18
ATOM     18  C   LIG    1       25.979 -29.800   9.661  0.00  0.00    +0.340 C 
ATOM     19  O   LIG    1       27.083 -29.753   9.166  0.00  0.00    -0.245 OA
BRANCH  18  20
ATOM     20  O   LIG    1       24.852 -29.253   9.136  0.00  0.00    -0.424 OA
BRANCH  20  21
ATOM     21  C   LIG    1       24.683 -29.426   7.730  0.00  0.00    +0.473 C 
BRANCH  21  22
ATOM     22  O   LIG    1       25.379 -28.429   6.992  0.00  0.00    -0.427 OA
BRANCH  22  23
ATOM     23  C   LIG    1       24.680 -27.826   6.007  0.00  0.00    +0.310 C 
ATOM     24  O   LIG    1       24.213 -28.396   5.028  0.00  0.00    -0.251 OA
BRANCH  23  25
ATOM     25  C   LIG    1       24.516 -26.364   6.296  0.00  0.00    +0.120 C 
BRANCH  25  27
ATOM     26  C   LIG    1       25.712 -24.217   6.972  0.00  0.00    +0.004 C 
ATOM     27  C   LIG    1       25.852 -25.673   6.548  0.00  0.00    +0.008 C 
ENDBRANCH  25  27
ENDBRANCH  23  25
ENDBRANCH  22  23
ENDBRANCH  21  22
ENDBRANCH  20  21
ENDBRANCH  18  20
ENDBRANCH   1  18
BRANCH   3  28
ATOM     28  C   LIG    1       27.438 -30.230  14.418  0.00  0.00    +0.337 C 
ATOM     29  O   LIG    1       27.221 -29.688  15.482  0.00  0.00    -0.245 OA
BRANCH  28  30
ATOM     30  O   LIG    1       28.662 -30.561  13.937  0.00  0.00    -0.465 OA
ATOM     31  C   LIG    1       29.720 -29.739  14.423  0.00  0.00    +0.280 C 
ENDBRANCH  28  30
ENDBRANCH   3  28
TORSDOF 10
ENDMDL
MODEL 7
REMARK VINA RESULT:      -5.5      8.052     11.817
REMARK  Name = *****
REMARK                            x       y       z     vdW  Elec       q    Type
REMARK                         _______ _______ _______ _____ _____    ______ ____
ROOT
ATOM      1  C   LIG    1       24.464 -30.440   9.269  0.00  0.00    +0.065 C 
ATOM      2  C   LIG    1       23.391 -30.235  10.365  0.00  0.00    +0.097 C 
ATOM      3  C   LIG    1       24.030 -30.301  11.759  0.00  0.00    +0.065 C 
ATOM      4  C   LIG    1       25.172 -31.001  11.953  0.00  0.00    +0.016 C 
ATOM      5  C   LIG    1       25.776 -31.307  13.300  0.00  0.00    +0.061 C 
ATOM      6  N   LIG    1       25.834 -31.544  10.858  0.00  0.00    -0.321 N 
ATOM      7  H   LIG    1       26.749 -31.950  11.044  0.00  0.00    +0.152 HD
ATOM      8  C   LIG    1       25.595 -31.137   9.547  0.00  0.00    +0.016 C 
ATOM      9  C   LIG    1       26.665 -31.542   8.557  0.00  0.00    +0.061 C 
ENDROOT
BRANCH   2  10
ATOM     10  C   LIG    1       22.247 -31.284  10.205  0.00  0.00    -0.015 A 
ATOM     11  C   LIG    1       20.909 -31.104  10.634  0.00  0.00    +0.063 A 
ATOM     12 CL   LIG    1       20.426 -29.662  11.468  0.00  0.00    -0.082 Cl
ATOM     13  C   LIG    1       19.941 -32.113  10.396  0.00  0.00    +0.059 A 
ATOM     14 CL   LIG    1       18.280 -31.969  10.875  0.00  0.00    -0.082 Cl
ATOM     15  C   LIG    1       20.288 -33.299   9.746  0.00  0.00    +0.021 A 
ATOM     16  C   LIG    1       21.600 -33.501   9.347  0.00  0.00    +0.002 A 
ATOM     17  C   LIG    1       22.556 -32.512   9.574  0.00  0.00    +0.006 A 
ENDBRANCH   2  10
BRANCH   1  18
ATOM     18  C   LIG    1       24.273 -29.757   7.955  0.00  0.00    +0.340 C 
ATOM     19  O   LIG    1       23.714 -30.222   6.987  0.00  0.00    -0.245 OA
BRANCH  18  20
ATOM     20  O   LIG    1       24.928 -28.567   7.995  0.00  0.00    -0.424 OA
BRANCH  20  21
ATOM     21  C   LIG    1       25.380 -28.073   6.736  0.00  0.00    +0.473 C 
BRANCH  21  22
ATOM     22  O   LIG    1       25.983 -26.790   6.861  0.00  0.00    -0.427 OA
BRANCH  22  23
ATOM     23  C   LIG    1       25.739 -25.922   5.858  0.00  0.00    +0.310 C 
ATOM     24  O   LIG    1       25.897 -26.164   4.666  0.00  0.00    -0.251 OA
BRANCH  23  25
ATOM     25  C   LIG    1       25.209 -24.627   6.397  0.00  0.00    +0.120 C 
BRANCH  25  27
ATOM     26  C   LIG    1       23.101 -23.255   6.807  0.00  0.00    +0.004 C 
ATOM     27  C   LIG    1       23.688 -24.626   6.504  0.00  0.00    +0.008 C 
ENDBRANCH  25  27
ENDBRANCH  23  25
ENDBRANCH  22  23
ENDBRANCH  21  22
ENDBRANCH  20  21
ENDBRANCH  18  20
ENDBRANCH   1  18
BRANCH   3  28
ATOM     28  C   LIG    1       23.412 -29.528  12.869  0.00  0.00    +0.337 C 
ATOM     29  O   LIG    1       22.846 -30.010  13.829  0.00  0.00    -0.245 OA
BRANCH  28  30
ATOM     30  O   LIG    1       23.534 -28.202  12.610  0.00  0.00    -0.465 OA
ATOM     31  C   LIG    1       24.663 -27.591  13.227  0.00  0.00    +0.280 C 
ENDBRANCH  28  30
ENDBRANCH   3  28
TORSDOF 10
ENDMDL
MODEL 8
REMARK VINA RESULT:      -5.3      9.596     12.072
REMARK  Name = *****
REMARK                            x       y       z     vdW  Elec       q    Type
REMARK                         _______ _______ _______ _____ _____    ______ ____
ROOT
ATOM      1  C   LIG    1       24.058 -31.104   9.791  0.00  0.00    +0.065 C 
ATOM      2  C   LIG    1       24.380 -30.992   8.283  0.00  0.00    +0.097 C 
ATOM      3  C   LIG    1       25.278 -32.155   7.839  0.00  0.00    +0.065 C 
ATOM      4  C   LIG    1       26.088 -32.770   8.732  0.00  0.00    +0.016 C 
ATOM      5  C   LIG    1       27.155 -33.775   8.377  0.00  0.00    +0.061 C 
ATOM      6  N   LIG    1       26.000 -32.433  10.077  0.00  0.00    -0.321 N 
ATOM      7  H   LIG    1       26.538 -33.011  10.720  0.00  0.00    +0.152 HD
ATOM      8  C   LIG    1       24.911 -31.756  10.622  0.00  0.00    +0.016 C 
ATOM      9  C   LIG    1       24.812 -31.832  12.130  0.00  0.00    +0.061 C 
ENDROOT
BRANCH   2  10
ATOM     10  C   LIG    1       25.032 -29.609   7.969  0.00  0.00    -0.015 A 
ATOM     11  C   LIG    1       24.750 -28.813   6.831  0.00  0.00    +0.063 A 
ATOM     12 CL   LIG    1       23.656 -29.367   5.604  0.00  0.00    -0.082 Cl
ATOM     13  C   LIG    1       25.372 -27.549   6.673  0.00  0.00    +0.059 A 
ATOM     14 CL   LIG    1       25.075 -26.506   5.318  0.00  0.00    -0.082 Cl
ATOM     15  C   LIG    1       26.275 -27.071   7.625  0.00  0.00    +0.021 A 
ATOM     16  C   LIG    1       26.582 -27.851   8.728  0.00  0.00    +0.002 A 
ATOM     17  C   LIG    1       25.971 -29.093   8.893  0.00  0.00    +0.006 A 
ENDBRANCH   2  10
BRANCH   1  18
ATOM     18  C   LIG    1       22.744 -30.584  10.276  0.00  0.00    +0.340 C 
ATOM     19  O   LIG    1       21.654 -30.926   9.876  0.00  0.00    -0.245 OA
BRANCH  18  20
ATOM     20  O   LIG    1       22.984 -29.584  11.164  0.00  0.00    -0.424 OA
BRANCH  20  21
ATOM     21  C   LIG    1       21.935 -29.327  12.096  0.00  0.00    +0.473 C 
BRANCH  21  22
ATOM     22  O   LIG    1       22.415 -28.653  13.253  0.00  0.00    -0.427 OA
BRANCH  22  23
ATOM     23  C   LIG    1       22.289 -27.309  13.250  0.00  0.00    +0.310 C 
ATOM     24  O   LIG    1       21.244 -26.703  13.039  0.00  0.00    -0.251 OA
BRANCH  23  25
ATOM     25  C   LIG    1       23.597 -26.656  13.580  0.00  0.00    +0.120 C 
BRANCH  25  27
ATOM     26  C   LIG    1       25.653 -27.708  12.501  0.00  0.00    +0.004 C 
ATOM     27  C   LIG    1       24.730 -27.667  13.712  0.00  0.00    +0.008 C 
ENDBRANCH  25  27
ENDBRANCH  23  25
ENDBRANCH  22  23
ENDBRANCH  21  22
ENDBRANCH  20  21
ENDBRANCH  18  20
ENDBRANCH   1  18
BRANCH   3  28
ATOM     28  C   LIG    1       25.190 -32.634   6.434  0.00  0.00    +0.337 C 
ATOM     29  O   LIG    1       24.473 -33.532   6.043  0.00  0.00    -0.245 OA
BRANCH  28  30
ATOM     30  O   LIG    1       26.077 -31.946   5.673  0.00  0.00    -0.465 OA
ATOM     31  C   LIG    1       25.901 -32.123   4.270  0.00  0.00    +0.280 C 
ENDBRANCH  28  30
ENDBRANCH   3  28
TORSDOF 10
ENDMDL
MODEL 9
REMARK VINA RESULT:      -5.2      8.310     11.454
REMARK  Name = *****
REMARK                            x       y       z     vdW  Elec       q    Type
REMARK                         _______ _______ _______ _____ _____    ______ ____
ROOT
ATOM      1  C   LIG    1       25.334 -29.969  10.721  0.00  0.00    +0.065 C 
ATOM      2  C   LIG    1       25.265 -29.925  12.266  0.00  0.00    +0.097 C 
ATOM      3  C   LIG    1       24.507 -31.146  12.803  0.00  0.00    +0.065 C 
ATOM      4  C   LIG    1       23.587 -31.772  12.031  0.00  0.00    +0.016 C 
ATOM      5  C   LIG    1       22.641 -32.842  12.516  0.00  0.00    +0.061 C 
ATOM      6  N   LIG    1       23.432 -31.385  10.706  0.00  0.00    -0.321 N 
ATOM      7  H   LIG    1       22.820 -31.968  10.138  0.00  0.00    +0.152 HD
ATOM      8  C   LIG    1       24.383 -30.635  10.017  0.00  0.00    +0.016 C 
ATOM      9  C   LIG    1       24.231 -30.655   8.512  0.00  0.00    +0.061 C 
ENDROOT
BRANCH   2  10
ATOM     10  C   LIG    1       24.614 -28.588  12.741  0.00  0.00    -0.015 A 
ATOM     11  C   LIG    1       25.324 -27.413  13.089  0.00  0.00    +0.063 A 
ATOM     12 CL   LIG    1       27.058 -27.383  13.078  0.00  0.00    -0.082 Cl
ATOM     13  C   LIG    1       24.621 -26.240  13.466  0.00  0.00    +0.059 A 
ATOM     14 CL   LIG    1       25.411 -24.756  13.896  0.00  0.00    -0.082 Cl
ATOM     15  C   LIG    1       23.226 -26.224  13.509  0.00  0.00    +0.021 A 
ATOM     16  C   LIG    1       22.519 -27.374  13.199  0.00  0.00    +0.002 A 
ATOM     17  C   LIG    1       23.203 -28.530  12.823  0.00  0.00    +0.006 A 
ENDBRANCH   2  10
BRANCH   1  18
ATOM     18  C   LIG    1       26.523 -29.366  10.048  0.00  0.00    +0.340 C 
ATOM     19  O   LIG    1       27.644 -29.824  10.043  0.00  0.00    -0.245 OA
BRANCH  18  20
ATOM     20  O   LIG    1       26.156 -28.163   9.535  0.00  0.00    -0.424 OA
BRANCH  20  21
ATOM     21  C   LIG    1       26.598 -27.903   8.204  0.00  0.00    +0.473 C 
BRANCH  21  22
ATOM     22  O   LIG    1       25.785 -26.929   7.561  0.00  0.00    -0.427 OA
BRANCH  22  23
ATOM     23  C   LIG    1       25.994 -26.763   6.238  0.00  0.00    +0.310 C 
ATOM     24  O   LIG    1       27.082 -26.528   5.724  0.00  0.00    -0.251 OA
BRANCH  23  25
ATOM     25  C   LIG    1       24.716 -26.945   5.475  0.00  0.00    +0.120 C 
BRANCH  25  27
ATOM     26  C   LIG    1       25.152 -29.436   5.156  0.00  0.00    +0.004 C 
ATOM     27  C   LIG    1       24.167 -28.362   5.598  0.00  0.00    +0.008 C 
ENDBRANCH  25  27
ENDBRANCH  23  25
ENDBRANCH  22  23
ENDBRANCH  21  22
ENDBRANCH  20  21
ENDBRANCH  18  20
ENDBRANCH   1  18
BRANCH   3  28
ATOM     28  C   LIG    1       24.851 -31.668  14.152  0.00  0.00    +0.337 C 
ATOM     29  O   LIG    1       24.343 -31.309  15.194  0.00  0.00    -0.245 OA
BRANCH  28  30
ATOM     30  O   LIG    1       25.859 -32.569  14.037  0.00  0.00    -0.465 OA
ATOM     31  C   LIG    1       26.498 -32.888  15.270  0.00  0.00    +0.280 C 
ENDBRANCH  28  30
ENDBRANCH   3  28
TORSDOF 10
ENDMDL
