MODEL 1
REMARK VINA RESULT:      -9.3      0.000      0.000
REMARK  Name = *****
REMARK                            x       y       z     vdW  Elec       q    Type
REMARK                         _______ _______ _______ _____ _____    ______ ____
ROOT
ATOM      1  C   LIG    1       22.591 -19.550   5.308  0.00  0.00    +0.001 C 
ENDROOT
BRANCH   1   2
ATOM      2  C   LIG    1       23.293 -19.089   3.991  0.00  0.00    +0.001 C 
BRANCH   2   3
ATOM      3  C   LIG    1       24.498 -19.946   3.559  0.00  0.00    +0.015 C 
BRANCH   3   4
ATOM      4  C   LIG    1       25.757 -19.802   4.452  0.00  0.00    +0.081 C 
BRANCH   4   5
ATOM      5  N   LIG    1       26.120 -21.006   5.214  0.00  0.00    -0.313 NA
ATOM      6  H   LIG    1       27.014 -21.346   4.860  0.00  0.00    +0.122 HD
BRANCH   5   7
ATOM      7  C   LIG    1       26.320 -20.730   6.664  0.00  0.00    +0.117 C 
BRANCH   7   8
ATOM      8  C   LIG    1       27.510 -21.438   7.376  0.00  0.00    +0.158 C 
BRANCH   8   9
ATOM      9  C   LIG    1       28.754 -20.613   7.595  0.00  0.00    -0.014 A 
ATOM     10  C   LIG    1       29.834 -21.067   8.371  0.00  0.00    +0.055 A 
ATOM     11  C   LIG    1       31.012 -20.335   8.421  0.00  0.00    +0.159 A 
ATOM     12  C   LIG    1       31.150 -19.150   7.704  0.00  0.00    +0.158 A 
ATOM     13  C   LIG    1       30.107 -18.684   6.917  0.00  0.00    +0.049 A 
ATOM     14  C   LIG    1       28.912 -19.409   6.872  0.00  0.00    +0.010 A 
BRANCH  12  15
ATOM     15  O   LIG    1       32.340 -18.483   7.790  0.00  0.00    -0.503 OA
ATOM     16  H   LIG    1       32.885 -18.936   8.455  0.00  0.00    +0.292 HD
ENDBRANCH  12  15
BRANCH  11  17
ATOM     17  O   LIG    1       32.054 -20.807   9.168  0.00  0.00    -0.503 OA
ATOM     18  H   LIG    1       31.841 -21.752   9.309  0.00  0.00    +0.292 HD
ENDBRANCH  11  17
ENDBRANCH   8   9
BRANCH   8  19
ATOM     19  O   LIG    1       27.149 -21.829   8.699  0.00  0.00    -0.386 OA
ATOM     20  H   LIG    1       27.016 -20.999   9.197  0.00  0.00    +0.210 HD
ENDBRANCH   8  19
ENDBRANCH   7   8
ENDBRANCH   5   7
ENDBRANCH   4   5
ENDBRANCH   3   4
ENDBRANCH   2   3
ENDBRANCH   1   2
BRANCH   1  21
ATOM     21  C   LIG    1       22.315 -21.075   5.287  0.00  0.00    +0.015 C 
BRANCH  21  22
ATOM     22  C   LIG    1       22.929 -21.987   6.386  0.00  0.00    +0.081 C 
BRANCH  22  23
ATOM     23  N   LIG    1       23.172 -23.397   6.048  0.00  0.00    -0.313 NA
ATOM     24  H   LIG    1       22.368 -23.967   6.312  0.00  0.00    +0.122 HD
BRANCH  23  25
ATOM     25  C   LIG    1       24.398 -23.928   6.725  0.00  0.00    +0.117 C 
BRANCH  25  26
ATOM     26  C   LIG    1       25.275 -24.893   5.850  0.00  0.00    +0.158 C 
BRANCH  26  30
ATOM     27  C   LIG    1       24.933 -29.108   7.045  0.00  0.00    +0.158 A 
ATOM     28  C   LIG    1       24.165 -28.573   6.013  0.00  0.00    +0.159 A 
ATOM     29  C   LIG    1       24.326 -27.249   5.620  0.00  0.00    +0.055 A 
ATOM     30  C   LIG    1       25.218 -26.376   6.269  0.00  0.00    -0.014 A 
ATOM     31  C   LIG    1       26.014 -26.940   7.283  0.00  0.00    +0.010 A 
ATOM     32  C   LIG    1       25.876 -28.291   7.673  0.00  0.00    +0.049 A 
BRANCH  27  33
ATOM     33  O   LIG    1       24.713 -30.404   7.405  0.00  0.00    -0.503 OA
ATOM     34  H   LIG    1       23.763 -30.589   7.481  0.00  0.00    +0.292 HD
ENDBRANCH  27  33
BRANCH  28  35
ATOM     35  O   LIG    1       23.238 -29.363   5.391  0.00  0.00    -0.503 OA
ATOM     36  H   LIG    1       22.526 -29.550   6.019  0.00  0.00    +0.292 HD
ENDBRANCH  28  35
ENDBRANCH  26  30
BRANCH  26  37
ATOM     37  O   LIG    1       24.827 -24.761   4.485  0.00  0.00    -0.386 OA
ATOM     38  H   LIG    1       24.700 -23.811   4.329  0.00  0.00    +0.210 HD
ENDBRANCH  26  37
ENDBRANCH  25  26
ENDBRANCH  23  25
ENDBRANCH  22  23
ENDBRANCH  21  22
ENDBRANCH   1  21
TORSDOF 19
ENDMDL
MODEL 2
REMARK VINA RESULT:      -9.2      1.302      8.634
REMARK  Name = *****
REMARK                            x       y       z     vdW  Elec       q    Type
REMARK                         _______ _______ _______ _____ _____    ______ ____
ROOT
ATOM      1  C   LIG    1       23.334 -21.515   7.198  0.00  0.00    +0.001 C 
ENDROOT
BRANCH   1   2
ATOM      2  C   LIG    1       22.511 -22.754   6.724  0.00  0.00    +0.001 C 
BRANCH   2   3
ATOM      3  C   LIG    1       23.272 -24.093   6.754  0.00  0.00    +0.015 C 
BRANCH   3   4
ATOM      4  C   LIG    1       24.750 -24.017   6.294  0.00  0.00    +0.081 C 
BRANCH   4   5
ATOM      5  N   LIG    1       24.978 -24.336   4.876  0.00  0.00    -0.313 NA
ATOM      6  H   LIG    1       25.749 -23.757   4.543  0.00  0.00    +0.122 HD
BRANCH   5   7
ATOM      7  C   LIG    1       25.392 -25.751   4.665  0.00  0.00    +0.117 C 
BRANCH   7   8
ATOM      8  C   LIG    1       26.176 -26.452   5.813  0.00  0.00    +0.158 C 
BRANCH   8   9
ATOM      9  C   LIG    1       25.504 -27.635   6.466  0.00  0.00    -0.014 A 
ATOM     10  C   LIG    1       24.608 -28.469   5.777  0.00  0.00    +0.055 A 
ATOM     11  C   LIG    1       24.131 -29.626   6.377  0.00  0.00    +0.159 A 
ATOM     12  C   LIG    1       24.533 -29.986   7.659  0.00  0.00    +0.158 A 
ATOM     13  C   LIG    1       25.429 -29.191   8.360  0.00  0.00    +0.049 A 
ATOM     14  C   LIG    1       25.903 -28.017   7.767  0.00  0.00    +0.010 A 
BRANCH  12  15
ATOM     15  O   LIG    1       24.033 -31.142   8.188  0.00  0.00    -0.503 OA
ATOM     16  H   LIG    1       23.598 -31.632   7.470  0.00  0.00    +0.292 HD
ENDBRANCH  12  15
BRANCH  11  17
ATOM     17  O   LIG    1       23.275 -30.430   5.679  0.00  0.00    -0.503 OA
ATOM     18  H   LIG    1       23.396 -30.159   4.746  0.00  0.00    +0.292 HD
ENDBRANCH  11  17
ENDBRANCH   8   9
BRANCH   8  19
ATOM     19  O   LIG    1       27.397 -27.005   5.328  0.00  0.00    -0.386 OA
ATOM     20  H   LIG    1       27.927 -27.224   6.121  0.00  0.00    +0.210 HD
ENDBRANCH   8  19
ENDBRANCH   7   8
ENDBRANCH   5   7
ENDBRANCH   4   5
ENDBRANCH   3   4
ENDBRANCH   2   3
ENDBRANCH   1   2
BRANCH   1  21
ATOM     21  C   LIG    1       23.355 -20.412   6.110  0.00  0.00    +0.015 C 
BRANCH  21  22
ATOM     22  C   LIG    1       24.478 -20.408   5.034  0.00  0.00    +0.081 C 
BRANCH  22  23
ATOM     23  N   LIG    1       25.689 -21.195   5.306  0.00  0.00    -0.313 NA
ATOM     24  H   LIG    1       25.442 -22.088   5.733  0.00  0.00    +0.122 HD
BRANCH  23  25
ATOM     25  C   LIG    1       26.637 -20.463   6.206  0.00  0.00    +0.117 C 
BRANCH  25  26
ATOM     26  C   LIG    1       27.566 -21.381   7.079  0.00  0.00    +0.158 C 
BRANCH  26  30
ATOM     27  C   LIG    1       31.162 -19.512   8.775  0.00  0.00    +0.158 A 
ATOM     28  C   LIG    1       30.985 -20.893   8.773  0.00  0.00    +0.159 A 
ATOM     29  C   LIG    1       29.861 -21.464   8.187  0.00  0.00    +0.055 A 
ATOM     30  C   LIG    1       28.832 -20.689   7.622  0.00  0.00    -0.014 A 
ATOM     31  C   LIG    1       29.044 -19.298   7.596  0.00  0.00    +0.010 A 
ATOM     32  C   LIG    1       30.194 -18.709   8.167  0.00  0.00    +0.049 A 
BRANCH  27  33
ATOM     33  O   LIG    1       32.270 -19.006   9.388  0.00  0.00    -0.503 OA
ATOM     34  H   LIG    1       32.672 -19.663   9.979  0.00  0.00    +0.292 HD
ENDBRANCH  27  33
BRANCH  28  35
ATOM     35  O   LIG    1       31.926 -21.688   9.366  0.00  0.00    -0.503 OA
ATOM     36  H   LIG    1       32.405 -21.160  10.020  0.00  0.00    +0.292 HD
ENDBRANCH  28  35
ENDBRANCH  26  30
BRANCH  26  37
ATOM     37  O   LIG    1       26.774 -21.872   8.180  0.00  0.00    -0.386 OA
ATOM     38  H   LIG    1       26.189 -21.143   8.443  0.00  0.00    +0.210 HD
ENDBRANCH  26  37
ENDBRANCH  25  26
ENDBRANCH  23  25
ENDBRANCH  22  23
ENDBRANCH  21  22
ENDBRANCH   1  21
TORSDOF 19
ENDMDL
MODEL 3
REMARK VINA RESULT:      -9.1      0.969      1.133
REMARK  Name = *****
REMARK                            x       y       z     vdW  Elec       q    Type
REMARK                         _______ _______ _______ _____ _____    ______ ____
ROOT
ATOM      1  C   LIG    1       23.069 -20.685   6.670  0.00  0.00    +0.001 C 
ENDROOT
BRANCH   1   2
ATOM      2  C   LIG    1       22.953 -19.825   5.372  0.00  0.00    +0.001 C 
BRANCH   2   3
ATOM      3  C   LIG    1       23.849 -20.281   4.205  0.00  0.00    +0.015 C 
BRANCH   3   4
ATOM      4  C   LIG    1       25.347 -19.909   4.344  0.00  0.00    +0.081 C 
BRANCH   4   5
ATOM      5  N   LIG    1       26.164 -20.883   5.083  0.00  0.00    -0.313 NA
ATOM      6  H   LIG    1       26.802 -21.326   4.421  0.00  0.00    +0.122 HD
BRANCH   5   7
ATOM      7  C   LIG    1       27.015 -20.246   6.127  0.00  0.00    +0.117 C 
BRANCH   7   8
ATOM      8  C   LIG    1       27.812 -21.185   7.079  0.00  0.00    +0.158 C 
BRANCH   8   9
ATOM      9  C   LIG    1       28.954 -20.562   7.844  0.00  0.00    -0.014 A 
ATOM     10  C   LIG    1       30.037 -21.313   8.329  0.00  0.00    +0.055 A 
ATOM     11  C   LIG    1       31.130 -20.672   8.897  0.00  0.00    +0.159 A 
ATOM     12  C   LIG    1       31.179 -19.285   8.989  0.00  0.00    +0.158 A 
ATOM     13  C   LIG    1       30.131 -18.515   8.505  0.00  0.00    +0.049 A 
ATOM     14  C   LIG    1       29.021 -19.153   7.944  0.00  0.00    +0.010 A 
BRANCH  12  15
ATOM     15  O   LIG    1       32.288 -18.718   9.551  0.00  0.00    -0.503 OA
ATOM     16  H   LIG    1       33.043 -18.901   8.965  0.00  0.00    +0.292 HD
ENDBRANCH  12  15
BRANCH  11  17
ATOM     17  O   LIG    1       32.179 -21.425   9.344  0.00  0.00    -0.503 OA
ATOM     18  H   LIG    1       32.936 -20.803   9.352  0.00  0.00    +0.292 HD
ENDBRANCH  11  17
ENDBRANCH   8   9
BRANCH   8  19
ATOM     19  O   LIG    1       26.971 -21.689   8.114  0.00  0.00    -0.386 OA
ATOM     20  H   LIG    1       27.100 -21.092   8.879  0.00  0.00    +0.210 HD
ENDBRANCH   8  19
ENDBRANCH   7   8
ENDBRANCH   5   7
ENDBRANCH   4   5
ENDBRANCH   3   4
ENDBRANCH   2   3
ENDBRANCH   1   2
BRANCH   1  21
ATOM     21  C   LIG    1       22.912 -22.194   6.354  0.00  0.00    +0.015 C 
BRANCH  21  22
ATOM     22  C   LIG    1       23.914 -23.218   6.957  0.00  0.00    +0.081 C 
BRANCH  22  23
ATOM     23  N   LIG    1       25.162 -23.469   6.223  0.00  0.00    -0.313 NA
ATOM     24  H   LIG    1       24.962 -23.664   5.241  0.00  0.00    +0.122 HD
BRANCH  23  25
ATOM     25  C   LIG    1       25.931 -24.613   6.807  0.00  0.00    +0.117 C 
BRANCH  25  26
ATOM     26  C   LIG    1       26.110 -25.849   5.853  0.00  0.00    +0.158 C 
BRANCH  26  30
ATOM     27  C   LIG    1       24.416 -29.592   7.408  0.00  0.00    +0.158 A 
ATOM     28  C   LIG    1       24.032 -29.070   6.175  0.00  0.00    +0.159 A 
ATOM     29  C   LIG    1       24.618 -27.909   5.682  0.00  0.00    +0.055 A 
ATOM     30  C   LIG    1       25.575 -27.181   6.414  0.00  0.00    -0.014 A 
ATOM     31  C   LIG    1       25.980 -27.742   7.639  0.00  0.00    +0.010 A 
ATOM     32  C   LIG    1       25.408 -28.935   8.138  0.00  0.00    +0.049 A 
BRANCH  27  33
ATOM     33  O   LIG    1       23.788 -30.717   7.853  0.00  0.00    -0.503 OA
ATOM     34  H   LIG    1       22.823 -30.629   7.785  0.00  0.00    +0.292 HD
ENDBRANCH  27  33
BRANCH  28  35
ATOM     35  O   LIG    1       23.060 -29.705   5.453  0.00  0.00    -0.503 OA
ATOM     36  H   LIG    1       23.479 -30.145   4.699  0.00  0.00    +0.292 HD
ENDBRANCH  28  35
ENDBRANCH  26  30
BRANCH  26  37
ATOM     37  O   LIG    1       25.435 -25.538   4.617  0.00  0.00    -0.386 OA
ATOM     38  H   LIG    1       25.466 -26.344   4.078  0.00  0.00    +0.210 HD
ENDBRANCH  26  37
ENDBRANCH  25  26
ENDBRANCH  23  25
ENDBRANCH  22  23
ENDBRANCH  21  22
ENDBRANCH   1  21
TORSDOF 19
ENDMDL
MODEL 4
REMARK VINA RESULT:      -9.1      1.149      8.141
REMARK  Name = *****
REMARK                            x       y       z     vdW  Elec       q    Type
REMARK                         _______ _______ _______ _____ _____    ______ ____
ROOT
ATOM      1  C   LIG    1       23.005 -18.881   3.904  0.00  0.00    +0.001 C 
ENDROOT
BRANCH   1   2
ATOM      2  C   LIG    1       22.375 -19.379   5.243  0.00  0.00    +0.001 C 
BRANCH   2   3
ATOM      3  C   LIG    1       22.898 -20.739   5.743  0.00  0.00    +0.015 C 
BRANCH   3   4
ATOM      4  C   LIG    1       23.708 -20.684   7.064  0.00  0.00    +0.081 C 
BRANCH   4   5
ATOM      5  N   LIG    1       24.007 -21.993   7.665  0.00  0.00    -0.313 NA
ATOM      6  H   LIG    1       23.425 -22.098   8.497  0.00  0.00    +0.122 HD
BRANCH   5   7
ATOM      7  C   LIG    1       23.665 -23.130   6.766  0.00  0.00    +0.117 C 
BRANCH   7   8
ATOM      8  C   LIG    1       24.840 -23.877   6.069  0.00  0.00    +0.158 C 
BRANCH   8   9
ATOM      9  C   LIG    1       24.924 -25.366   6.296  0.00  0.00    -0.014 A 
ATOM     10  C   LIG    1       24.157 -26.286   5.561  0.00  0.00    +0.055 A 
ATOM     11  C   LIG    1       24.378 -27.649   5.706  0.00  0.00    +0.159 A 
ATOM     12  C   LIG    1       25.359 -28.129   6.568  0.00  0.00    +0.158 A 
ATOM     13  C   LIG    1       26.142 -27.245   7.296  0.00  0.00    +0.049 A 
ATOM     14  C   LIG    1       25.917 -25.871   7.166  0.00  0.00    +0.010 A 
BRANCH  12  15
ATOM     15  O   LIG    1       25.529 -29.482   6.656  0.00  0.00    -0.503 OA
ATOM     16  H   LIG    1       24.661 -29.899   6.527  0.00  0.00    +0.292 HD
ENDBRANCH  12  15
BRANCH  11  17
ATOM     17  O   LIG    1       23.632 -28.523   4.966  0.00  0.00    -0.503 OA
ATOM     18  H   LIG    1       24.271 -29.209   4.686  0.00  0.00    +0.292 HD
ENDBRANCH  11  17
ENDBRANCH   8   9
BRANCH   8  19
ATOM     19  O   LIG    1       24.734 -23.776   4.651  0.00  0.00    -0.386 OA
ATOM     20  H   LIG    1       25.468 -23.194   4.368  0.00  0.00    +0.210 HD
ENDBRANCH   8  19
ENDBRANCH   7   8
ENDBRANCH   5   7
ENDBRANCH   4   5
ENDBRANCH   3   4
ENDBRANCH   2   3
ENDBRANCH   1   2
BRANCH   1  21
ATOM     21  C   LIG    1       24.210 -19.764   3.493  0.00  0.00    +0.015 C 
BRANCH  21  22
ATOM     22  C   LIG    1       25.645 -19.376   3.949  0.00  0.00    +0.081 C 
BRANCH  22  23
ATOM     23  N   LIG    1       26.438 -20.393   4.654  0.00  0.00    -0.313 NA
ATOM     24  H   LIG    1       25.842 -20.935   5.279  0.00  0.00    +0.122 HD
BRANCH  23  25
ATOM     25  C   LIG    1       27.553 -19.779   5.444  0.00  0.00    +0.117 C 
BRANCH  25  26
ATOM     26  C   LIG    1       28.228 -20.735   6.492  0.00  0.00    +0.158 C 
BRANCH  26  30
ATOM     27  C   LIG    1       31.301 -18.981   9.097  0.00  0.00    +0.158 A 
ATOM     28  C   LIG    1       31.256 -20.347   8.833  0.00  0.00    +0.159 A 
ATOM     29  C   LIG    1       30.304 -20.873   7.967  0.00  0.00    +0.055 A 
ATOM     30  C   LIG    1       29.315 -20.074   7.362  0.00  0.00    -0.014 A 
ATOM     31  C   LIG    1       29.397 -18.690   7.608  0.00  0.00    +0.010 A 
ATOM     32  C   LIG    1       30.377 -18.144   8.467  0.00  0.00    +0.049 A 
BRANCH  27  33
ATOM     33  O   LIG    1       32.239 -18.526   9.975  0.00  0.00    -0.503 OA
ATOM     34  H   LIG    1       33.096 -18.400   9.536  0.00  0.00    +0.292 HD
ENDBRANCH  27  33
BRANCH  28  35
ATOM     35  O   LIG    1       32.155 -21.176   9.445  0.00  0.00    -0.503 OA
ATOM     36  H   LIG    1       32.555 -20.700  10.186  0.00  0.00    +0.292 HD
ENDBRANCH  28  35
ENDBRANCH  26  30
BRANCH  26  37
ATOM     37  O   LIG    1       27.181 -21.252   7.338  0.00  0.00    -0.386 OA
ATOM     38  H   LIG    1       27.288 -20.822   8.201  0.00  0.00    +0.210 HD
ENDBRANCH  26  37
ENDBRANCH  25  26
ENDBRANCH  23  25
ENDBRANCH  22  23
ENDBRANCH  21  22
ENDBRANCH   1  21
TORSDOF 19
ENDMDL
MODEL 5
REMARK VINA RESULT:      -8.3      1.666      9.198
REMARK  Name = *****
REMARK                            x       y       z     vdW  Elec       q    Type
REMARK                         _______ _______ _______ _____ _____    ______ ____
ROOT
ATOM      1  C   LIG    1       23.037 -22.489   6.683  0.00  0.00    +0.001 C 
ENDROOT
BRANCH   1   2
ATOM      2  C   LIG    1       24.155 -23.553   6.919  0.00  0.00    +0.001 C 
BRANCH   2   3
ATOM      3  C   LIG    1       23.946 -24.893   6.188  0.00  0.00    +0.015 C 
BRANCH   3   4
ATOM      4  C   LIG    1       25.053 -25.262   5.167  0.00  0.00    +0.081 C 
BRANCH   4   5
ATOM      5  N   LIG    1       25.310 -26.703   5.022  0.00  0.00    -0.313 NA
ATOM      6  H   LIG    1       26.214 -26.906   5.448  0.00  0.00    +0.122 HD
BRANCH   5   7
ATOM      7  C   LIG    1       24.309 -27.540   5.741  0.00  0.00    +0.117 C 
BRANCH   7   8
ATOM      8  C   LIG    1       24.466 -29.087   5.650  0.00  0.00    +0.158 C 
BRANCH   8   9
ATOM      9  C   LIG    1       25.086 -29.774   6.842  0.00  0.00    -0.014 A 
ATOM     10  C   LIG    1       25.534 -31.105   6.797  0.00  0.00    +0.055 A 
ATOM     11  C   LIG    1       26.228 -31.643   7.872  0.00  0.00    +0.159 A 
ATOM     12  C   LIG    1       26.500 -30.880   9.003  0.00  0.00    +0.158 A 
ATOM     13  C   LIG    1       26.084 -29.558   9.072  0.00  0.00    +0.049 A 
ATOM     14  C   LIG    1       25.372 -29.013   7.998  0.00  0.00    +0.010 A 
BRANCH  12  15
ATOM     15  O   LIG    1       27.195 -31.468  10.022  0.00  0.00    -0.503 OA
ATOM     16  H   LIG    1       27.564 -30.760  10.576  0.00  0.00    +0.292 HD
ENDBRANCH  12  15
BRANCH  11  17
ATOM     17  O   LIG    1       26.669 -32.934   7.797  0.00  0.00    -0.503 OA
ATOM     18  H   LIG    1       27.079 -32.997   6.910  0.00  0.00    +0.292 HD
ENDBRANCH  11  17
ENDBRANCH   8   9
BRANCH   8  19
ATOM     19  O   LIG    1       23.193 -29.720   5.543  0.00  0.00    -0.386 OA
ATOM     20  H   LIG    1       22.675 -29.413   6.314  0.00  0.00    +0.210 HD
ENDBRANCH   8  19
ENDBRANCH   7   8
ENDBRANCH   5   7
ENDBRANCH   4   5
ENDBRANCH   3   4
ENDBRANCH   2   3
ENDBRANCH   1   2
BRANCH   1  21
ATOM     21  C   LIG    1       23.631 -21.172   6.124  0.00  0.00    +0.015 C 
BRANCH  21  22
ATOM     22  C   LIG    1       24.672 -21.222   4.970  0.00  0.00    +0.081 C 
BRANCH  22  23
ATOM     23  N   LIG    1       26.048 -20.803   5.272  0.00  0.00    -0.313 NA
ATOM     24  H   LIG    1       26.712 -21.504   4.940  0.00  0.00    +0.122 HD
BRANCH  23  25
ATOM     25  C   LIG    1       26.254 -20.586   6.740  0.00  0.00    +0.117 C 
BRANCH  25  26
ATOM     26  C   LIG    1       27.494 -21.329   7.354  0.00  0.00    +0.158 C 
BRANCH  26  30
ATOM     27  C   LIG    1       31.209 -18.992   7.563  0.00  0.00    +0.158 A 
ATOM     28  C   LIG    1       31.013 -20.129   8.343  0.00  0.00    +0.159 A 
ATOM     29  C   LIG    1       29.849 -20.880   8.224  0.00  0.00    +0.055 A 
ATOM     30  C   LIG    1       28.799 -20.508   7.364  0.00  0.00    -0.014 A 
ATOM     31  C   LIG    1       29.028 -19.379   6.554  0.00  0.00    +0.010 A 
ATOM     32  C   LIG    1       30.218 -18.624   6.650  0.00  0.00    +0.049 A 
BRANCH  27  33
ATOM     33  O   LIG    1       32.358 -18.280   7.741  0.00  0.00    -0.503 OA
ATOM     34  H   LIG    1       33.071 -18.621   7.178  0.00  0.00    +0.292 HD
ENDBRANCH  27  33
BRANCH  28  35
ATOM     35  O   LIG    1       31.976 -20.498   9.241  0.00  0.00    -0.503 OA
ATOM     36  H   LIG    1       32.456 -21.258   8.880  0.00  0.00    +0.292 HD
ENDBRANCH  28  35
ENDBRANCH  26  30
BRANCH  26  37
ATOM     37  O   LIG    1       27.147 -21.700   8.704  0.00  0.00    -0.386 OA
ATOM     38  H   LIG    1       26.813 -20.896   9.132  0.00  0.00    +0.210 HD
ENDBRANCH  26  37
ENDBRANCH  25  26
ENDBRANCH  23  25
ENDBRANCH  22  23
ENDBRANCH  21  22
ENDBRANCH   1  21
TORSDOF 19
ENDMDL
MODEL 6
REMARK VINA RESULT:      -8.1      1.817      3.255
REMARK  Name = *****
REMARK                            x       y       z     vdW  Elec       q    Type
REMARK                         _______ _______ _______ _____ _____    ______ ____
ROOT
ATOM      1  C   LIG    1       23.111 -23.872   6.863  0.00  0.00    +0.001 C 
ENDROOT
BRANCH   1   2
ATOM      2  C   LIG    1       22.847 -22.394   6.437  0.00  0.00    +0.001 C 
BRANCH   2   3
ATOM      3  C   LIG    1       23.886 -21.374   6.940  0.00  0.00    +0.015 C 
BRANCH   3   4
ATOM      4  C   LIG    1       24.556 -20.521   5.833  0.00  0.00    +0.081 C 
BRANCH   4   5
ATOM      5  N   LIG    1       25.877 -20.997   5.395  0.00  0.00    -0.313 NA
ATOM      6  H   LIG    1       26.004 -20.720   4.421  0.00  0.00    +0.122 HD
BRANCH   5   7
ATOM      7  C   LIG    1       26.994 -20.375   6.159  0.00  0.00    +0.117 C 
BRANCH   7   8
ATOM      8  C   LIG    1       27.946 -21.325   6.944  0.00  0.00    +0.158 C 
BRANCH   8   9
ATOM      9  C   LIG    1       29.031 -20.669   7.762  0.00  0.00    -0.014 A 
ATOM     10  C   LIG    1       30.096 -21.393   8.323  0.00  0.00    +0.055 A 
ATOM     11  C   LIG    1       31.144 -20.725   8.941  0.00  0.00    +0.159 A 
ATOM     12  C   LIG    1       31.166 -19.336   9.010  0.00  0.00    +0.158 A 
ATOM     13  C   LIG    1       30.137 -18.591   8.452  0.00  0.00    +0.049 A 
ATOM     14  C   LIG    1       29.071 -19.258   7.839  0.00  0.00    +0.010 A 
BRANCH  12  15
ATOM     15  O   LIG    1       32.233 -18.741   9.624  0.00  0.00    -0.503 OA
ATOM     16  H   LIG    1       32.254 -17.810   9.344  0.00  0.00    +0.292 HD
ENDBRANCH  12  15
BRANCH  11  17
ATOM     17  O   LIG    1       32.177 -21.452   9.463  0.00  0.00    -0.503 OA
ATOM     18  H   LIG    1       32.769 -20.780   9.858  0.00  0.00    +0.292 HD
ENDBRANCH  11  17
ENDBRANCH   8   9
BRANCH   8  19
ATOM     19  O   LIG    1       27.223 -22.075   7.917  0.00  0.00    -0.386 OA
ATOM     20  H   LIG    1       26.671 -21.428   8.400  0.00  0.00    +0.210 HD
ENDBRANCH   8  19
ENDBRANCH   7   8
ENDBRANCH   5   7
ENDBRANCH   4   5
ENDBRANCH   3   4
ENDBRANCH   2   3
ENDBRANCH   1   2
BRANCH   1  21
ATOM     21  C   LIG    1       24.475 -24.372   6.324  0.00  0.00    +0.015 C 
BRANCH  21  22
ATOM     22  C   LIG    1       24.522 -25.568   5.332  0.00  0.00    +0.081 C 
BRANCH  22  23
ATOM     23  N   LIG    1       24.025 -26.869   5.803  0.00  0.00    -0.313 NA
ATOM     24  H   LIG    1       23.929 -26.864   6.819  0.00  0.00    +0.122 HD
BRANCH  23  25
ATOM     25  C   LIG    1       24.932 -27.990   5.398  0.00  0.00    +0.117 C 
BRANCH  25  26
ATOM     26  C   LIG    1       24.566 -29.391   6.007  0.00  0.00    +0.158 C 
BRANCH  26  30
ATOM     27  C   LIG    1       25.204 -29.740  10.340  0.00  0.00    +0.158 A 
ATOM     28  C   LIG    1       26.135 -29.121   9.509  0.00  0.00    +0.159 A 
ATOM     29  C   LIG    1       25.889 -28.979   8.148  0.00  0.00    +0.055 A 
ATOM     30  C   LIG    1       24.731 -29.494   7.536  0.00  0.00    -0.014 A 
ATOM     31  C   LIG    1       23.782 -30.081   8.395  0.00  0.00    +0.010 A 
ATOM     32  C   LIG    1       24.012 -30.208   9.783  0.00  0.00    +0.049 A 
BRANCH  27  33
ATOM     33  O   LIG    1       25.512 -29.874  11.661  0.00  0.00    -0.503 OA
ATOM     34  H   LIG    1       26.451 -29.689  11.822  0.00  0.00    +0.292 HD
ENDBRANCH  27  33
BRANCH  28  35
ATOM     35  O   LIG    1       27.307 -28.660  10.044  0.00  0.00    -0.503 OA
ATOM     36  H   LIG    1       27.838 -29.421  10.318  0.00  0.00    +0.292 HD
ENDBRANCH  28  35
ENDBRANCH  26  30
BRANCH  26  37
ATOM     37  O   LIG    1       23.197 -29.672   5.649  0.00  0.00    -0.386 OA
ATOM     38  H   LIG    1       23.186 -30.575   5.295  0.00  0.00    +0.210 HD
ENDBRANCH  26  37
ENDBRANCH  25  26
ENDBRANCH  23  25
ENDBRANCH  22  23
ENDBRANCH  21  22
ENDBRANCH   1  21
TORSDOF 19
ENDMDL
MODEL 7
REMARK VINA RESULT:      -8.0      2.085      3.306
REMARK  Name = *****
REMARK                            x       y       z     vdW  Elec       q    Type
REMARK                         _______ _______ _______ _____ _____    ______ ____
ROOT
ATOM      1  C   LIG    1       25.020 -21.124   7.018  0.00  0.00    +0.001 C 
ENDROOT
BRANCH   1   2
ATOM      2  C   LIG    1       26.102 -20.836   8.106  0.00  0.00    +0.001 C 
BRANCH   2   3
ATOM      3  C   LIG    1       27.364 -20.115   7.597  0.00  0.00    +0.015 C 
BRANCH   3   4
ATOM      4  C   LIG    1       28.453 -21.043   7.000  0.00  0.00    +0.081 C 
BRANCH   4   5
ATOM      5  N   LIG    1       29.235 -21.799   7.990  0.00  0.00    -0.313 NA
ATOM      6  H   LIG    1       29.588 -22.642   7.535  0.00  0.00    +0.122 HD
BRANCH   5   7
ATOM      7  C   LIG    1       30.429 -21.051   8.474  0.00  0.00    +0.117 C 
BRANCH   7   8
ATOM      8  C   LIG    1       30.620 -19.592   7.965  0.00  0.00    +0.158 C 
BRANCH   8   9
ATOM      9  C   LIG    1       31.096 -18.580   8.978  0.00  0.00    -0.014 A 
ATOM     10  C   LIG    1       31.932 -17.504   8.635  0.00  0.00    +0.055 A 
ATOM     11  C   LIG    1       32.222 -16.521   9.571  0.00  0.00    +0.159 A 
ATOM     12  C   LIG    1       31.690 -16.576  10.855  0.00  0.00    +0.158 A 
ATOM     13  C   LIG    1       30.850 -17.618  11.220  0.00  0.00    +0.049 A 
ATOM     14  C   LIG    1       30.564 -18.619  10.287  0.00  0.00    +0.010 A 
BRANCH  12  15
ATOM     15  O   LIG    1       32.009 -15.571  11.725  0.00  0.00    -0.503 OA
ATOM     16  H   LIG    1       31.210 -15.355  12.234  0.00  0.00    +0.292 HD
ENDBRANCH  12  15
BRANCH  11  17
ATOM     17  O   LIG    1       33.022 -15.475   9.207  0.00  0.00    -0.503 OA
ATOM     18  H   LIG    1       33.309 -15.696   8.297  0.00  0.00    +0.292 HD
ENDBRANCH  11  17
ENDBRANCH   8   9
BRANCH   8  19
ATOM     19  O   LIG    1       31.627 -19.535   6.958  0.00  0.00    -0.386 OA
ATOM     20  H   LIG    1       31.164 -19.311   6.126  0.00  0.00    +0.210 HD
ENDBRANCH   8  19
ENDBRANCH   7   8
ENDBRANCH   5   7
ENDBRANCH   4   5
ENDBRANCH   3   4
ENDBRANCH   2   3
ENDBRANCH   1   2
BRANCH   1  21
ATOM     21  C   LIG    1       23.811 -21.883   7.621  0.00  0.00    +0.015 C 
BRANCH  21  22
ATOM     22  C   LIG    1       23.180 -23.073   6.844  0.00  0.00    +0.081 C 
BRANCH  22  23
ATOM     23  N   LIG    1       24.039 -23.810   5.906  0.00  0.00    -0.313 NA
ATOM     24  H   LIG    1       23.511 -24.559   5.457  0.00  0.00    +0.122 HD
BRANCH  23  25
ATOM     25  C   LIG    1       25.238 -24.392   6.589  0.00  0.00    +0.117 C 
BRANCH  25  26
ATOM     26  C   LIG    1       25.885 -25.624   5.859  0.00  0.00    +0.158 C 
BRANCH  26  30
ATOM     27  C   LIG    1       24.468 -29.500   7.367  0.00  0.00    +0.158 A 
ATOM     28  C   LIG    1       24.035 -28.985   6.148  0.00  0.00    +0.159 A 
ATOM     29  C   LIG    1       24.534 -27.779   5.669  0.00  0.00    +0.055 A 
ATOM     30  C   LIG    1       25.448 -26.999   6.402  0.00  0.00    -0.014 A 
ATOM     31  C   LIG    1       25.905 -27.551   7.614  0.00  0.00    +0.010 A 
ATOM     32  C   LIG    1       25.423 -28.788   8.097  0.00  0.00    +0.049 A 
BRANCH  27  33
ATOM     33  O   LIG    1       23.924 -30.673   7.799  0.00  0.00    -0.503 OA
ATOM     34  H   LIG    1       24.575 -31.393   7.767  0.00  0.00    +0.292 HD
ENDBRANCH  27  33
BRANCH  28  35
ATOM     35  O   LIG    1       23.100 -29.673   5.425  0.00  0.00    -0.503 OA
ATOM     36  H   LIG    1       23.211 -30.618   5.604  0.00  0.00    +0.292 HD
ENDBRANCH  28  35
ENDBRANCH  26  30
BRANCH  26  37
ATOM     37  O   LIG    1       25.540 -25.525   4.462  0.00  0.00    -0.386 OA
ATOM     38  H   LIG    1       24.632 -25.857   4.380  0.00  0.00    +0.210 HD
ENDBRANCH  26  37
ENDBRANCH  25  26
ENDBRANCH  23  25
ENDBRANCH  22  23
ENDBRANCH  21  22
ENDBRANCH   1  21
TORSDOF 19
ENDMDL
MODEL 8
REMARK VINA RESULT:      -8.0      1.345      2.069
REMARK  Name = *****
REMARK                            x       y       z     vdW  Elec       q    Type
REMARK                         _______ _______ _______ _____ _____    ______ ____
ROOT
ATOM      1  C   LIG    1       22.737 -19.700   5.359  0.00  0.00    +0.001 C 
ENDROOT
BRANCH   1   2
ATOM      2  C   LIG    1       23.456 -19.260   4.045  0.00  0.00    +0.001 C 
BRANCH   2   3
ATOM      3  C   LIG    1       24.721 -20.066   3.692  0.00  0.00    +0.015 C 
BRANCH   3   4
ATOM      4  C   LIG    1       25.973 -19.725   4.539  0.00  0.00    +0.081 C 
BRANCH   4   5
ATOM      5  N   LIG    1       26.269 -20.675   5.623  0.00  0.00    -0.313 NA
ATOM      6  H   LIG    1       26.729 -21.488   5.212  0.00  0.00    +0.122 HD
BRANCH   5   7
ATOM      7  C   LIG    1       27.215 -20.121   6.631  0.00  0.00    +0.117 C 
BRANCH   7   8
ATOM      8  C   LIG    1       28.738 -20.244   6.335  0.00  0.00    +0.158 C 
BRANCH   8   9
ATOM      9  C   LIG    1       29.675 -19.622   7.341  0.00  0.00    -0.014 A 
ATOM     10  C   LIG    1       29.462 -18.343   7.880  0.00  0.00    +0.055 A 
ATOM     11  C   LIG    1       30.270 -17.876   8.908  0.00  0.00    +0.159 A 
ATOM     12  C   LIG    1       31.294 -18.662   9.427  0.00  0.00    +0.158 A 
ATOM     13  C   LIG    1       31.520 -19.936   8.925  0.00  0.00    +0.049 A 
ATOM     14  C   LIG    1       30.719 -20.407   7.881  0.00  0.00    +0.010 A 
BRANCH  12  15
ATOM     15  O   LIG    1       32.046 -18.146  10.444  0.00  0.00    -0.503 OA
ATOM     16  H   LIG    1       32.279 -17.233  10.206  0.00  0.00    +0.292 HD
ENDBRANCH  12  15
BRANCH  11  17
ATOM     17  O   LIG    1       30.030 -16.636   9.428  0.00  0.00    -0.503 OA
ATOM     18  H   LIG    1       29.121 -16.696   9.786  0.00  0.00    +0.292 HD
ENDBRANCH  11  17
ENDBRANCH   8   9
BRANCH   8  19
ATOM     19  O   LIG    1       29.143 -21.612   6.325  0.00  0.00    -0.386 OA
ATOM     20  H   LIG    1       28.330 -22.131   6.162  0.00  0.00    +0.210 HD
ENDBRANCH   8  19
ENDBRANCH   7   8
ENDBRANCH   5   7
ENDBRANCH   4   5
ENDBRANCH   3   4
ENDBRANCH   2   3
ENDBRANCH   1   2
BRANCH   1  21
ATOM     21  C   LIG    1       22.316 -21.189   5.291  0.00  0.00    +0.015 C 
BRANCH  21  22
ATOM     22  C   LIG    1       22.986 -22.226   6.237  0.00  0.00    +0.081 C 
BRANCH  22  23
ATOM     23  N   LIG    1       24.285 -22.782   5.832  0.00  0.00    -0.313 NA
ATOM     24  H   LIG    1       24.283 -22.997   4.835  0.00  0.00    +0.122 HD
BRANCH  23  25
ATOM     25  C   LIG    1       24.625 -24.020   6.603  0.00  0.00    +0.117 C 
BRANCH  25  26
ATOM     26  C   LIG    1       25.382 -25.126   5.783  0.00  0.00    +0.158 C 
BRANCH  26  30
ATOM     27  C   LIG    1       25.128 -29.223   7.349  0.00  0.00    +0.158 A 
ATOM     28  C   LIG    1       26.038 -28.299   7.856  0.00  0.00    +0.159 A 
ATOM     29  C   LIG    1       26.067 -26.994   7.378  0.00  0.00    +0.055 A 
ATOM     30  C   LIG    1       25.230 -26.557   6.335  0.00  0.00    -0.014 A 
ATOM     31  C   LIG    1       24.289 -27.490   5.860  0.00  0.00    +0.010 A 
ATOM     32  C   LIG    1       24.235 -28.812   6.357  0.00  0.00    +0.049 A 
BRANCH  27  33
ATOM     33  O   LIG    1       25.164 -30.495   7.837  0.00  0.00    -0.503 OA
ATOM     34  H   LIG    1       24.282 -30.902   7.817  0.00  0.00    +0.292 HD
ENDBRANCH  27  33
BRANCH  28  35
ATOM     35  O   LIG    1       26.918 -28.691   8.827  0.00  0.00    -0.503 OA
ATOM     36  H   LIG    1       27.785 -28.823   8.419  0.00  0.00    +0.292 HD
ENDBRANCH  28  35
ENDBRANCH  26  30
BRANCH  26  37
ATOM     37  O   LIG    1       24.883 -25.074   4.430  0.00  0.00    -0.386 OA
ATOM     38  H   LIG    1       24.710 -24.139   4.237  0.00  0.00    +0.210 HD
ENDBRANCH  26  37
ENDBRANCH  25  26
ENDBRANCH  23  25
ENDBRANCH  22  23
ENDBRANCH  21  22
ENDBRANCH   1  21
TORSDOF 19
ENDMDL
MODEL 9
REMARK VINA RESULT:      -7.9      2.225      8.514
REMARK  Name = *****
REMARK                            x       y       z     vdW  Elec       q    Type
REMARK                         _______ _______ _______ _____ _____    ______ ____
ROOT
ATOM      1  C   LIG    1       23.425 -24.418   6.498  0.00  0.00    +0.001 C 
ENDROOT
BRANCH   1   2
ATOM      2  C   LIG    1       24.939 -24.258   6.842  0.00  0.00    +0.001 C 
BRANCH   2   3
ATOM      3  C   LIG    1       25.845 -25.404   6.353  0.00  0.00    +0.015 C 
BRANCH   3   4
ATOM      4  C   LIG    1       25.515 -25.940   4.936  0.00  0.00    +0.081 C 
BRANCH   4   5
ATOM      5  N   LIG    1       25.578 -27.403   4.796  0.00  0.00    -0.313 NA
ATOM      6  H   LIG    1       26.416 -27.731   5.277  0.00  0.00    +0.122 HD
BRANCH   5   7
ATOM      7  C   LIG    1       24.426 -28.093   5.441  0.00  0.00    +0.117 C 
BRANCH   7   8
ATOM      8  C   LIG    1       24.590 -29.603   5.783  0.00  0.00    +0.158 C 
BRANCH   8   9
ATOM      9  C   LIG    1       25.244 -29.930   7.103  0.00  0.00    -0.014 A 
ATOM     10  C   LIG    1       25.790 -31.194   7.382  0.00  0.00    +0.055 A 
ATOM     11  C   LIG    1       26.508 -31.399   8.552  0.00  0.00    +0.159 A 
ATOM     12  C   LIG    1       26.708 -30.364   9.461  0.00  0.00    +0.158 A 
ATOM     13  C   LIG    1       26.194 -29.101   9.207  0.00  0.00    +0.049 A 
ATOM     14  C   LIG    1       25.457 -28.890   8.037  0.00  0.00    +0.010 A 
BRANCH  12  15
ATOM     15  O   LIG    1       27.432 -30.632  10.589  0.00  0.00    -0.503 OA
ATOM     16  H   LIG    1       27.173 -31.514  10.905  0.00  0.00    +0.292 HD
ENDBRANCH  12  15
BRANCH  11  17
ATOM     17  O   LIG    1       27.046 -32.632   8.792  0.00  0.00    -0.503 OA
ATOM     18  H   LIG    1       26.853 -33.142   7.979  0.00  0.00    +0.292 HD
ENDBRANCH  11  17
ENDBRANCH   8   9
BRANCH   8  19
ATOM     19  O   LIG    1       23.318 -30.239   5.891  0.00  0.00    -0.386 OA
ATOM     20  H   LIG    1       23.151 -30.345   6.848  0.00  0.00    +0.210 HD
ENDBRANCH   8  19
ENDBRANCH   7   8
ENDBRANCH   5   7
ENDBRANCH   4   5
ENDBRANCH   3   4
ENDBRANCH   2   3
ENDBRANCH   1   2
BRANCH   1  21
ATOM     21  C   LIG    1       22.630 -23.143   6.875  0.00  0.00    +0.015 C 
BRANCH  21  22
ATOM     22  C   LIG    1       23.086 -21.758   6.335  0.00  0.00    +0.081 C 
BRANCH  22  23
ATOM     23  N   LIG    1       23.217 -21.601   4.880  0.00  0.00    -0.313 NA
ATOM     24  H   LIG    1       22.787 -22.391   4.398  0.00  0.00    +0.122 HD
BRANCH  23  25
ATOM     25  C   LIG    1       24.650 -21.486   4.459  0.00  0.00    +0.117 C 
BRANCH  25  26
ATOM     26  C   LIG    1       25.393 -20.203   4.977  0.00  0.00    +0.158 C 
BRANCH  26  30
ATOM     27  C   LIG    1       28.625 -21.021   7.839  0.00  0.00    +0.158 A 
ATOM     28  C   LIG    1       28.855 -20.333   6.649  0.00  0.00    +0.159 A 
ATOM     29  C   LIG    1       27.807 -20.044   5.783  0.00  0.00    +0.055 A 
ATOM     30  C   LIG    1       26.489 -20.470   6.028  0.00  0.00    -0.014 A 
ATOM     31  C   LIG    1       26.265 -21.130   7.251  0.00  0.00    +0.010 A 
ATOM     32  C   LIG    1       27.319 -21.407   8.150  0.00  0.00    +0.049 A 
BRANCH  27  33
ATOM     33  O   LIG    1       29.694 -21.301   8.636  0.00  0.00    -0.503 OA
ATOM     34  H   LIG    1       30.149 -22.106   8.340  0.00  0.00    +0.292 HD
ENDBRANCH  27  33
BRANCH  28  35
ATOM     35  O   LIG    1       30.129 -19.952   6.334  0.00  0.00    -0.503 OA
ATOM     36  H   LIG    1       30.268 -20.103   5.388  0.00  0.00    +0.292 HD
ENDBRANCH  28  35
ENDBRANCH  26  30
BRANCH  26  37
ATOM     37  O   LIG    1       25.974 -19.551   3.829  0.00  0.00    -0.386 OA
ATOM     38  H   LIG    1       26.905 -19.388   4.048  0.00  0.00    +0.210 HD
ENDBRANCH  26  37
ENDBRANCH  25  26
ENDBRANCH  23  25
ENDBRANCH  22  23
ENDBRANCH  21  22
ENDBRANCH   1  21
TORSDOF 19
ENDMDL
