MODEL 1
REMARK VINA RESULT:       3.6      0.000      0.000
REMARK  Name = *****
REMARK                            x       y       z     vdW  Elec       q    Type
REMARK                         _______ _______ _______ _____ _____    ______ ____
ROOT
ATOM      1  C   LIG    1       22.505 -28.426  15.499  0.00  0.00    +0.150 C 
ATOM      2  C   LIG    1       21.329 -28.610  14.430  0.00  0.00    +0.060 C 
ATOM      3  C   LIG    1       20.840 -27.238  13.930  0.00  0.00    +0.014 C 
ATOM      4  C   LIG    1       20.074 -29.467  14.929  0.00  0.00    +0.187 C 
ATOM      5  C   LIG    1       18.817 -29.452  13.949  0.00  0.00    +0.056 C 
ATOM      6  C   LIG    1       17.493 -29.878  14.603  0.00  0.00    +0.014 C 
ATOM      7  C   LIG    1       19.008 -29.962  12.476  0.00  0.00    +0.126 C 
ATOM      8  C   LIG    1       18.745 -31.388  11.840  0.00  0.00    +0.044 C 
ATOM      9  C   LIG    1       17.540 -32.202  12.324  0.00  0.00    +0.013 C 
ATOM     10  C   LIG    1       20.043 -32.225  11.617  0.00  0.00    +0.126 C 
ATOM     11  C   LIG    1       19.970 -33.354  10.528  0.00  0.00    +0.037 C 
ATOM     12  C   LIG    1       19.128 -33.002   9.294  0.00  0.00    +0.014 C 
ATOM     13  C   LIG    1       21.316 -33.825   9.975  0.00  0.00    -0.021 C 
ATOM     14  C   LIG    1       22.500 -33.192  10.011  0.00  0.00    -0.003 C 
ATOM     15  C   LIG    1       23.663 -33.704   9.319  0.00  0.00    +0.008 C 
ATOM     16  C   LIG    1       24.891 -33.162   9.312  0.00  0.00    +0.011 C 
ATOM     17  C   LIG    1       26.074 -33.825   8.676  0.00  0.00    +0.049 C 
ATOM     18  C   LIG    1       25.238 -31.986  10.135  0.00  0.00    +0.244 C 
ATOM     19  O   LIG    1       25.393 -32.135  11.347  0.00  0.00    -0.270 OA
ATOM     20  N   LIG    1       25.464 -30.817   9.445  0.00  0.00    -0.278 N 
ATOM     21  H   LIG    1       24.996 -30.657   8.549  0.00  0.00    +0.155 HD
ATOM     22  C   LIG    1       26.165 -29.709   9.993  0.00  0.00    +0.089 A 
ATOM     23  C   LIG    1       27.143 -29.908  10.992  0.00  0.00    +0.150 A 
ATOM     24  C   LIG    1       27.564 -28.903  11.883  0.00  0.00    +0.071 A 
ATOM     25  C   LIG    1       27.035 -27.620  11.686  0.00  0.00    +0.046 A 
ATOM     26  C   LIG    1       26.389 -27.357  10.439  0.00  0.00    +0.136 A 
ATOM     27  C   LIG    1       27.124 -26.783  12.815  0.00  0.00    +0.079 A 
ATOM     28  C   LIG    1       26.444 -25.531  13.091  0.00  0.00    +0.251 C 
ATOM     29  C   LIG    1       26.375 -25.395  14.620  0.00  0.00    +0.314 C 
ATOM     30  O   LIG    1       27.351 -26.368  15.105  0.00  0.00    -0.444 OA
ATOM     31  C   LIG    1       26.894 -24.024  15.036  0.00  0.00    +0.114 C 
ATOM     32  O   LIG    1       25.038 -25.542  15.142  0.00  0.00    -0.453 OA
ATOM     33  C   LIG    1       24.399 -26.745  14.973  0.00  0.00    +0.190 C 
ATOM     34  O   LIG    1       26.062 -24.790  12.238  0.00  0.00    -0.284 OA
ATOM     35  C   LIG    1       27.690 -27.147  14.021  0.00  0.00    +0.143 A 
ATOM     36  C   LIG    1       28.467 -28.285  14.112  0.00  0.00    +0.034 A 
ATOM     37  C   LIG    1       29.268 -28.631  15.328  0.00  0.00    +0.051 C 
ATOM     38  C   LIG    1       28.392 -29.157  13.022  0.00  0.00    +0.135 A 
ATOM     39  C   LIG    1       25.898 -28.395   9.606  0.00  0.00    +0.061 A 
ATOM     40  C   LIG    1       23.194 -27.039  15.498  0.00  0.00    +0.042 C 
ENDROOT
BRANCH   1  42
ATOM     41  C   LIG    1       24.308 -29.190  14.070  0.00  0.00    +0.194 C 
ATOM     42  O   LIG    1       23.508 -29.429  15.232  0.00  0.00    -0.375 OA
ENDBRANCH   1  42
BRANCH   7  43
ATOM     43  O   LIG    1       18.136 -29.086  11.702  0.00  0.00    -0.391 OA
ATOM     44  H   LIG    1       17.865 -29.573  10.904  0.00  0.00    +0.210 HD
ENDBRANCH   7  43
BRANCH  10  45
ATOM     45  O   LIG    1       20.441 -32.827  12.847  0.00  0.00    -0.391 OA
ATOM     46  H   LIG    1       21.333 -32.495  13.062  0.00  0.00    +0.210 HD
ENDBRANCH  10  45
BRANCH  26  47
ATOM     47  O   LIG    1       26.288 -26.062   9.982  0.00  0.00    -0.505 OA
ATOM     48  H   LIG    1       25.431 -25.916   9.523  0.00  0.00    +0.292 HD
ENDBRANCH  26  47
BRANCH  38  49
ATOM     49  O   LIG    1       29.111 -30.326  13.121  0.00  0.00    -0.506 OA
ATOM     50  H   LIG    1       29.148 -30.717  12.221  0.00  0.00    +0.292 HD
ENDBRANCH  38  49
BRANCH  23  51
ATOM     51  O   LIG    1       27.680 -31.165  11.191  0.00  0.00    -0.504 OA
ATOM     52  H   LIG    1       27.629 -31.586  10.299  0.00  0.00    +0.292 HD
ENDBRANCH  23  51
BRANCH  39  53
ATOM     53  C   LIG    1       24.955 -28.006   8.513  0.00  0.00    +0.143 C 
ATOM     54  N   LIG    1       24.493 -28.625   7.456  0.00  0.00    -0.192 NA
BRANCH  54  55
ATOM     55  N   LIG    1       24.910 -29.871   7.111  0.00  0.00    -0.253 N 
ATOM     56  C   LIG    1       26.117 -29.962   6.254  0.00  0.00    +0.141 C 
ATOM     57  C   LIG    1       26.572 -31.428   6.164  0.00  0.00    +0.104 C 
ATOM     58  N   LIG    1       25.605 -32.341   5.533  0.00  0.00    -0.302 NA
ATOM     59  C   LIG    1       25.627 -32.188   4.081  0.00  0.00    +0.105 C 
ATOM     60  C   LIG    1       24.266 -32.144   6.118  0.00  0.00    +0.104 C 
ATOM     61  C   LIG    1       23.847 -30.689   6.457  0.00  0.00    +0.141 C 
ENDBRANCH  54  55
ENDBRANCH  39  53
BRANCH   4  62
ATOM     62  O   LIG    1       20.412 -30.837  15.186  0.00  0.00    -0.461 OA
BRANCH  62  63
ATOM     63  C   LIG    1       21.519 -31.271  14.511  0.00  0.00    +0.304 C 
ATOM     64  O   LIG    1       21.854 -30.897  13.395  0.00  0.00    -0.251 OA
ATOM     65  C   LIG    1       22.372 -32.142  15.383  0.00  0.00    +0.136 C 
ENDBRANCH  62  63
ENDBRANCH   4  62
TORSDOF 10
ENDMDL
