MODEL 1
REMARK VINA RESULT:      -4.2      0.000      0.000
REMARK  Name = *****
REMARK                            x       y       z     vdW  Elec       q    Type
REMARK                         _______ _______ _______ _____ _____    ______ ____
ROOT
ATOM      1  C   LIG    1       25.983 -14.117   4.050  0.00  0.00    +0.129 C 
ATOM      2  C   LIG    1       26.418 -13.570   5.443  0.00  0.00    +0.236 C 
ATOM      3  O   LIG    1       25.803 -13.690   6.501  0.00  0.00    -0.274 OA
ATOM      4  N   LIG    1       27.680 -13.015   5.541  0.00  0.00    -0.239 N 
ATOM      5  H   LIG    1       27.954 -12.689   6.468  0.00  0.00    +0.159 HD
ATOM      6  C   LIG    1       28.447 -12.574   4.519  0.00  0.00    +0.312 C 
ATOM      7  O   LIG    1       29.433 -11.851   4.706  0.00  0.00    -0.252 OA
ATOM      8  N   LIG    1       28.019 -12.905   3.274  0.00  0.00    -0.239 N 
ATOM      9  H   LIG    1       28.499 -12.424   2.525  0.00  0.00    +0.159 HD
ATOM     10  C   LIG    1       26.773 -13.354   2.975  0.00  0.00    +0.236 C 
ATOM     11  O   LIG    1       26.375 -13.149   1.812  0.00  0.00    -0.274 OA
ENDROOT
BRANCH   1  12
ATOM     12  C   LIG    1       24.395 -13.946   3.853  0.00  0.00    +0.010 C 
ATOM     13  C   LIG    1       23.533 -14.939   4.649  0.00  0.00    +0.009 C 
BRANCH  12  14
ATOM     14  C   LIG    1       23.874 -12.534   4.238  0.00  0.00    +0.001 C 
ATOM     15  C   LIG    1       23.820 -11.454   3.159  0.00  0.00    +0.004 C 
ENDBRANCH  12  14
ENDBRANCH   1  12
BRANCH   1  16
ATOM     16  C   LIG    1       26.468 -15.611   4.061  0.00  0.00    +0.052 C 
BRANCH  16  18
ATOM     17  C   LIG    1       25.979 -18.069   3.346  0.00  0.00    +0.004 C 
ATOM     18  C   LIG    1       25.838 -16.739   3.267  0.00  0.00    -0.033 C 
ENDBRANCH  16  18
ENDBRANCH   1  16
TORSDOF 4
ENDMDL
MODEL 2
REMARK VINA RESULT:      -3.9      0.844      1.681
REMARK  Name = *****
REMARK                            x       y       z     vdW  Elec       q    Type
REMARK                         _______ _______ _______ _____ _____    ______ ____
ROOT
ATOM      1  C   LIG    1       25.942 -14.341   4.169  0.00  0.00    +0.129 C 
ATOM      2  C   LIG    1       26.868 -13.683   5.234  0.00  0.00    +0.236 C 
ATOM      3  O   LIG    1       26.672 -13.638   6.448  0.00  0.00    -0.274 OA
ATOM      4  N   LIG    1       28.100 -13.222   4.809  0.00  0.00    -0.239 N 
ATOM      5  H   LIG    1       28.701 -12.820   5.529  0.00  0.00    +0.159 HD
ATOM      6  C   LIG    1       28.462 -12.957   3.533  0.00  0.00    +0.312 C 
ATOM      7  O   LIG    1       29.475 -12.298   3.265  0.00  0.00    -0.252 OA
ATOM      8  N   LIG    1       27.604 -13.386   2.574  0.00  0.00    -0.239 N 
ATOM      9  H   LIG    1       27.799 -13.028   1.648  0.00  0.00    +0.159 HD
ATOM     10  C   LIG    1       26.319 -13.764   2.794  0.00  0.00    +0.236 C 
ATOM     11  O   LIG    1       25.536 -13.654   1.831  0.00  0.00    -0.274 OA
ENDROOT
BRANCH   1  12
ATOM     12  C   LIG    1       24.396 -14.067   4.524  0.00  0.00    +0.010 C 
ATOM     13  C   LIG    1       23.856 -12.706   4.053  0.00  0.00    +0.009 C 
BRANCH  12  14
ATOM     14  C   LIG    1       23.429 -15.130   3.934  0.00  0.00    +0.001 C 
ATOM     15  C   LIG    1       22.499 -15.881   4.886  0.00  0.00    +0.004 C 
ENDBRANCH  12  14
ENDBRANCH   1  12
BRANCH   1  16
ATOM     16  C   LIG    1       26.345 -15.859   4.200  0.00  0.00    +0.052 C 
BRANCH  16  18
ATOM     17  C   LIG    1       25.430 -18.148   3.356  0.00  0.00    +0.004 C 
ATOM     18  C   LIG    1       25.896 -16.902   3.196  0.00  0.00    -0.033 C 
ENDBRANCH  16  18
ENDBRANCH   1  16
TORSDOF 4
ENDMDL
MODEL 3
REMARK VINA RESULT:      -3.4      2.307      4.057
REMARK  Name = *****
REMARK                            x       y       z     vdW  Elec       q    Type
REMARK                         _______ _______ _______ _____ _____    ______ ____
ROOT
ATOM      1  C   LIG    1       25.460 -13.835   3.881  0.00  0.00    +0.129 C 
ATOM      2  C   LIG    1       26.555 -14.463   2.966  0.00  0.00    +0.236 C 
ATOM      3  O   LIG    1       27.426 -13.856   2.345  0.00  0.00    -0.274 OA
ATOM      4  N   LIG    1       26.657 -15.841   2.951  0.00  0.00    -0.239 N 
ATOM      5  H   LIG    1       27.398 -16.228   2.367  0.00  0.00    +0.159 HD
ATOM      6  C   LIG    1       25.713 -16.722   3.354  0.00  0.00    +0.312 C 
ATOM      7  O   LIG    1       25.771 -17.921   3.059  0.00  0.00    -0.252 OA
ATOM      8  N   LIG    1       24.662 -16.193   4.030  0.00  0.00    -0.239 N 
ATOM      9  H   LIG    1       23.889 -16.831   4.167  0.00  0.00    +0.159 HD
ATOM     10  C   LIG    1       24.340 -14.874   4.058  0.00  0.00    +0.236 C 
ATOM     11  O   LIG    1       23.145 -14.600   4.275  0.00  0.00    -0.274 OA
ENDROOT
BRANCH   1  12
ATOM     12  C   LIG    1       24.905 -12.470   3.234  0.00  0.00    +0.010 C 
ATOM     13  C   LIG    1       24.338 -12.611   1.812  0.00  0.00    +0.009 C 
BRANCH  12  14
ATOM     14  C   LIG    1       23.779 -11.803   4.072  0.00  0.00    +0.001 C 
ATOM     15  C   LIG    1       24.065 -11.447   5.529  0.00  0.00    +0.004 C 
ENDBRANCH  12  14
ENDBRANCH   1  12
BRANCH   1  16
ATOM     16  C   LIG    1       26.184 -13.640   5.261  0.00  0.00    +0.052 C 
BRANCH  16  18
ATOM     17  C   LIG    1       28.394 -12.270   5.099  0.00  0.00    +0.004 C 
ATOM     18  C   LIG    1       27.659 -13.337   5.438  0.00  0.00    -0.033 C 
ENDBRANCH  16  18
ENDBRANCH   1  16
TORSDOF 4
ENDMDL
MODEL 4
REMARK VINA RESULT:      -3.3      2.622      4.636
REMARK  Name = *****
REMARK                            x       y       z     vdW  Elec       q    Type
REMARK                         _______ _______ _______ _____ _____    ______ ____
ROOT
ATOM      1  C   LIG    1       25.576 -14.064   3.692  0.00  0.00    +0.129 C 
ATOM      2  C   LIG    1       24.232 -13.802   4.435  0.00  0.00    +0.236 C 
ATOM      3  O   LIG    1       23.863 -12.736   4.925  0.00  0.00    -0.274 OA
ATOM      4  N   LIG    1       23.294 -14.817   4.429  0.00  0.00    -0.239 N 
ATOM      5  H   LIG    1       22.411 -14.613   4.897  0.00  0.00    +0.159 HD
ATOM      6  C   LIG    1       23.523 -16.123   4.163  0.00  0.00    +0.312 C 
ATOM      7  O   LIG    1       22.698 -17.001   4.441  0.00  0.00    -0.252 OA
ATOM      8  N   LIG    1       24.745 -16.415   3.649  0.00  0.00    -0.239 N 
ATOM      9  H   LIG    1       24.962 -17.402   3.622  0.00  0.00    +0.159 HD
ATOM     10  C   LIG    1       25.818 -15.582   3.674  0.00  0.00    +0.236 C 
ATOM     11  O   LIG    1       26.940 -16.123   3.634  0.00  0.00    -0.274 OA
ENDROOT
BRANCH   1  12
ATOM     12  C   LIG    1       26.780 -13.280   4.418  0.00  0.00    +0.010 C 
ATOM     13  C   LIG    1       27.039 -13.699   5.875  0.00  0.00    +0.009 C 
BRANCH  12  14
ATOM     14  C   LIG    1       28.144 -13.431   3.689  0.00  0.00    +0.001 C 
ATOM     15  C   LIG    1       29.268 -12.455   4.031  0.00  0.00    +0.004 C 
ENDBRANCH  12  14
ENDBRANCH   1  12
BRANCH   1  16
ATOM     16  C   LIG    1       25.298 -13.585   2.222  0.00  0.00    +0.052 C 
BRANCH  16  18
ATOM     17  C   LIG    1       23.856 -11.447   1.848  0.00  0.00    +0.004 C 
ATOM     18  C   LIG    1       24.991 -12.158   1.812  0.00  0.00    -0.033 C 
ENDBRANCH  16  18
ENDBRANCH   1  16
TORSDOF 4
ENDMDL
MODEL 5
REMARK VINA RESULT:      -3.2      0.912      3.788
REMARK  Name = *****
REMARK                            x       y       z     vdW  Elec       q    Type
REMARK                         _______ _______ _______ _____ _____    ______ ____
ROOT
ATOM      1  C   LIG    1       25.685 -13.898   4.020  0.00  0.00    +0.129 C 
ATOM      2  C   LIG    1       26.726 -13.993   2.865  0.00  0.00    +0.236 C 
ATOM      3  O   LIG    1       26.597 -14.616   1.812  0.00  0.00    -0.274 OA
ATOM      4  N   LIG    1       27.851 -13.195   2.955  0.00  0.00    -0.239 N 
ATOM      5  H   LIG    1       28.505 -13.253   2.174  0.00  0.00    +0.159 HD
ATOM      6  C   LIG    1       28.331 -12.604   4.073  0.00  0.00    +0.312 C 
ATOM      7  O   LIG    1       29.475 -12.138   4.126  0.00  0.00    -0.252 OA
ATOM      8  N   LIG    1       27.509 -12.629   5.153  0.00  0.00    -0.239 N 
ATOM      9  H   LIG    1       27.948 -12.344   6.019  0.00  0.00    +0.159 HD
ATOM     10  C   LIG    1       26.426 -13.437   5.286  0.00  0.00    +0.236 C 
ATOM     11  O   LIG    1       26.080 -13.712   6.452  0.00  0.00    -0.274 OA
ENDROOT
BRANCH   1  12
ATOM     12  C   LIG    1       24.961 -15.318   4.240  0.00  0.00    +0.010 C 
ATOM     13  C   LIG    1       23.434 -15.300   4.063  0.00  0.00    +0.009 C 
BRANCH  12  14
ATOM     14  C   LIG    1       25.482 -16.431   3.288  0.00  0.00    +0.001 C 
ATOM     15  C   LIG    1       25.030 -17.870   3.528  0.00  0.00    +0.004 C 
ENDBRANCH  12  14
ENDBRANCH   1  12
BRANCH   1  16
ATOM     16  C   LIG    1       24.715 -12.750   3.563  0.00  0.00    +0.052 C 
BRANCH  16  18
ATOM     17  C   LIG    1       23.528 -11.473   5.500  0.00  0.00    +0.004 C 
ATOM     18  C   LIG    1       24.307 -11.563   4.414  0.00  0.00    -0.033 C 
ENDBRANCH  16  18
ENDBRANCH   1  16
TORSDOF 4
ENDMDL
MODEL 6
REMARK VINA RESULT:      -2.2      5.533      7.239
REMARK  Name = *****
REMARK                            x       y       z     vdW  Elec       q    Type
REMARK                         _______ _______ _______ _____ _____    ______ ____
ROOT
ATOM      1  C   LIG    1       23.564 -19.605   4.427  0.00  0.00    +0.129 C 
ATOM      2  C   LIG    1       24.600 -20.544   3.741  0.00  0.00    +0.236 C 
ATOM      3  O   LIG    1       24.627 -20.860   2.552  0.00  0.00    -0.274 OA
ATOM      4  N   LIG    1       25.680 -20.960   4.496  0.00  0.00    -0.239 N 
ATOM      5  H   LIG    1       26.360 -21.551   4.018  0.00  0.00    +0.159 HD
ATOM      6  C   LIG    1       25.774 -20.939   5.845  0.00  0.00    +0.312 C 
ATOM      7  O   LIG    1       26.649 -21.572   6.449  0.00  0.00    -0.252 OA
ATOM      8  N   LIG    1       24.801 -20.251   6.495  0.00  0.00    -0.239 N 
ATOM      9  H   LIG    1       24.785 -20.393   7.496  0.00  0.00    +0.159 HD
ATOM     10  C   LIG    1       23.622 -19.865   5.942  0.00  0.00    +0.236 C 
ATOM     11  O   LIG    1       22.668 -19.703   6.728  0.00  0.00    -0.274 OA
ENDROOT
BRANCH   1  12
ATOM     12  C   LIG    1       22.091 -19.869   3.836  0.00  0.00    +0.010 C 
ATOM     13  C   LIG    1       21.315 -21.008   4.518  0.00  0.00    +0.009 C 
BRANCH  12  14
ATOM     14  C   LIG    1       21.163 -18.624   3.912  0.00  0.00    +0.001 C 
ATOM     15  C   LIG    1       19.813 -18.674   3.199  0.00  0.00    +0.004 C 
ENDBRANCH  12  14
ENDBRANCH   1  12
BRANCH   1  16
ATOM     16  C   LIG    1       24.116 -18.161   4.147  0.00  0.00    +0.052 C 
BRANCH  16  18
ATOM     17  C   LIG    1       26.186 -16.786   3.365  0.00  0.00    +0.004 C 
ATOM     18  C   LIG    1       25.365 -17.844   3.348  0.00  0.00    -0.033 C 
ENDBRANCH  16  18
ENDBRANCH   1  16
TORSDOF 4
ENDMDL
MODEL 7
REMARK VINA RESULT:      -2.1      5.181      6.736
REMARK  Name = *****
REMARK                            x       y       z     vdW  Elec       q    Type
REMARK                         _______ _______ _______ _____ _____    ______ ____
ROOT
ATOM      1  C   LIG    1       23.014 -19.741   4.482  0.00  0.00    +0.129 C 
ATOM      2  C   LIG    1       23.063 -18.191   4.327  0.00  0.00    +0.236 C 
ATOM      3  O   LIG    1       22.155 -17.401   4.583  0.00  0.00    -0.274 OA
ATOM      4  N   LIG    1       24.280 -17.622   4.003  0.00  0.00    -0.239 N 
ATOM      5  H   LIG    1       24.294 -16.604   3.934  0.00  0.00    +0.159 HD
ATOM      6  C   LIG    1       25.347 -18.256   3.467  0.00  0.00    +0.312 C 
ATOM      7  O   LIG    1       26.289 -17.636   2.960  0.00  0.00    -0.252 OA
ATOM      8  N   LIG    1       25.280 -19.612   3.448  0.00  0.00    -0.239 N 
ATOM      9  H   LIG    1       25.997 -20.058   2.891  0.00  0.00    +0.159 HD
ATOM     10  C   LIG    1       24.146 -20.336   3.628  0.00  0.00    +0.236 C 
ATOM     11  O   LIG    1       24.126 -21.471   3.114  0.00  0.00    -0.274 OA
ENDROOT
BRANCH   1  12
ATOM     12  C   LIG    1       21.575 -20.304   4.035  0.00  0.00    +0.010 C 
ATOM     13  C   LIG    1       21.118 -21.572   4.775  0.00  0.00    +0.009 C 
BRANCH  12  14
ATOM     14  C   LIG    1       20.425 -19.274   4.217  0.00  0.00    +0.001 C 
ATOM     15  C   LIG    1       19.555 -18.928   3.010  0.00  0.00    +0.004 C 
ENDBRANCH  12  14
ENDBRANCH   1  12
BRANCH   1  16
ATOM     16  C   LIG    1       23.353 -19.981   5.997  0.00  0.00    +0.052 C 
BRANCH  16  18
ATOM     17  C   LIG    1       25.680 -20.586   7.002  0.00  0.00    +0.004 C 
ATOM     18  C   LIG    1       24.467 -20.872   6.511  0.00  0.00    -0.033 C 
ENDBRANCH  16  18
ENDBRANCH   1  16
TORSDOF 4
ENDMDL
MODEL 8
REMARK VINA RESULT:      -1.8      1.687      3.420
REMARK  Name = *****
REMARK                            x       y       z     vdW  Elec       q    Type
REMARK                         _______ _______ _______ _____ _____    ______ ____
ROOT
ATOM      1  C   LIG    1       25.316 -14.303   3.517  0.00  0.00    +0.129 C 
ATOM      2  C   LIG    1       26.690 -15.010   3.713  0.00  0.00    +0.236 C 
ATOM      3  O   LIG    1       27.026 -16.098   3.247  0.00  0.00    -0.274 OA
ATOM      4  N   LIG    1       27.687 -14.299   4.354  0.00  0.00    -0.239 N 
ATOM      5  H   LIG    1       28.586 -14.771   4.446  0.00  0.00    +0.159 HD
ATOM      6  C   LIG    1       27.520 -13.207   5.134  0.00  0.00    +0.312 C 
ATOM      7  O   LIG    1       28.416 -12.796   5.882  0.00  0.00    -0.252 OA
ATOM      8  N   LIG    1       26.286 -12.643   5.106  0.00  0.00    -0.239 N 
ATOM      9  H   LIG    1       26.129 -11.944   5.820  0.00  0.00    +0.159 HD
ATOM     10  C   LIG    1       25.169 -13.244   4.623  0.00  0.00    +0.236 C 
ATOM     11  O   LIG    1       24.082 -12.851   5.090  0.00  0.00    -0.274 OA
ENDROOT
BRANCH   1  12
ATOM     12  C   LIG    1       24.120 -15.379   3.563  0.00  0.00    +0.010 C 
ATOM     13  C   LIG    1       24.569 -16.837   3.752  0.00  0.00    +0.009 C 
BRANCH  12  14
ATOM     14  C   LIG    1       23.088 -15.107   4.693  0.00  0.00    +0.001 C 
ATOM     15  C   LIG    1       22.150 -16.236   5.114  0.00  0.00    +0.004 C 
ENDBRANCH  12  14
ENDBRANCH   1  12
BRANCH   1  16
ATOM     16  C   LIG    1       25.461 -13.567   2.137  0.00  0.00    +0.052 C 
BRANCH  16  18
ATOM     17  C   LIG    1       23.971 -11.449   1.843  0.00  0.00    +0.004 C 
ATOM     18  C   LIG    1       25.138 -12.106   1.889  0.00  0.00    -0.033 C 
ENDBRANCH  16  18
ENDBRANCH   1  16
TORSDOF 4
ENDMDL
MODEL 9
REMARK VINA RESULT:      -1.6      1.600      3.709
REMARK  Name = *****
REMARK                            x       y       z     vdW  Elec       q    Type
REMARK                         _______ _______ _______ _____ _____    ______ ____
ROOT
ATOM      1  C   LIG    1       26.005 -14.838   3.778  0.00  0.00    +0.129 C 
ATOM      2  C   LIG    1       26.151 -13.768   2.655  0.00  0.00    +0.236 C 
ATOM      3  O   LIG    1       25.305 -13.472   1.812  0.00  0.00    -0.274 OA
ATOM      4  N   LIG    1       27.279 -12.970   2.680  0.00  0.00    -0.239 N 
ATOM      5  H   LIG    1       27.340 -12.258   1.952  0.00  0.00    +0.159 HD
ATOM      6  C   LIG    1       28.430 -13.225   3.343  0.00  0.00    +0.312 C 
ATOM      7  O   LIG    1       29.474 -12.608   3.100  0.00  0.00    -0.252 OA
ATOM      8  N   LIG    1       28.386 -14.252   4.230  0.00  0.00    -0.239 N 
ATOM      9  H   LIG    1       29.290 -14.539   4.581  0.00  0.00    +0.159 HD
ATOM     10  C   LIG    1       27.415 -15.200   4.272  0.00  0.00    +0.236 C 
ATOM     11  O   LIG    1       27.736 -16.300   4.762  0.00  0.00    -0.274 OA
ENDROOT
BRANCH   1  12
ATOM     12  C   LIG    1       25.222 -16.130   3.223  0.00  0.00    +0.010 C 
ATOM     13  C   LIG    1       26.030 -17.438   3.250  0.00  0.00    +0.009 C 
BRANCH  12  14
ATOM     14  C   LIG    1       23.906 -16.432   3.992  0.00  0.00    +0.001 C 
ATOM     15  C   LIG    1       23.341 -17.851   3.946  0.00  0.00    +0.004 C 
ENDBRANCH  12  14
ENDBRANCH   1  12
BRANCH   1  16
ATOM     16  C   LIG    1       25.251 -14.080   4.929  0.00  0.00    +0.052 C 
BRANCH  16  18
ATOM     17  C   LIG    1       23.907 -11.866   4.647  0.00  0.00    +0.004 C 
ATOM     18  C   LIG    1       24.990 -12.587   4.966  0.00  0.00    -0.033 C 
ENDBRANCH  16  18
ENDBRANCH   1  16
TORSDOF 4
ENDMDL
