MODEL 1
REMARK VINA RESULT:      47.3      0.000      0.000
REMARK  Name = *****
REMARK                            x       y       z     vdW  Elec       q    Type
REMARK                         _______ _______ _______ _____ _____    ______ ____
ROOT
ATOM      1  C   LIG    1       22.545 -20.602   3.918  0.00  0.00    +0.134 C 
ATOM      2  C   LIG    1       23.580 -20.861   2.828  0.00  0.00    +0.079 C 
ATOM      3  C   LIG    1       24.964 -20.282   3.136  0.00  0.00    +0.158 C 
ATOM      4  C   LIG    1       24.791 -18.794   3.423  0.00  0.00    +0.030 A 
ATOM      5  C   LIG    1       23.580 -18.257   3.926  0.00  0.00    +0.007 A 
ATOM      6  C   LIG    1       23.483 -16.876   4.159  0.00  0.00    +0.132 A 
ATOM      7  C   LIG    1       24.571 -16.030   3.913  0.00  0.00    +0.078 A 
ATOM      8  C   LIG    1       24.453 -14.582   4.134  0.00  0.00    +0.198 C 
ATOM      9  O   LIG    1       23.417 -14.125   4.606  0.00  0.00    -0.286 OA
ATOM     10  C   LIG    1       25.563 -13.694   3.753  0.00  0.00    +0.037 A 
ATOM     11  C   LIG    1       26.767 -14.209   3.261  0.00  0.00    +0.075 A 
ATOM     12  C   LIG    1       27.799 -13.329   2.889  0.00  0.00    +0.132 A 
ATOM     13  C   LIG    1       27.597 -11.950   3.024  0.00  0.00    +0.046 A 
ATOM     14  C   LIG    1       26.396 -11.447   3.521  0.00  0.00    +0.004 A 
ATOM     15  C   LIG    1       26.920 -15.677   3.167  0.00  0.00    +0.202 C 
ATOM     16  O   LIG    1       27.994 -16.213   2.913  0.00  0.00    -0.286 OA
ATOM     17  C   LIG    1       25.375 -12.316   3.882  0.00  0.00    +0.012 A 
ATOM     18  C   LIG    1       25.758 -16.553   3.410  0.00  0.00    +0.078 A 
ATOM     19  C   LIG    1       25.851 -17.924   3.137  0.00  0.00    +0.135 A 
ATOM     20  C   LIG    1       22.329 -19.098   4.103  0.00  0.00    +0.082 C 
ENDROOT
BRANCH   1  21
ATOM     21  O   LIG    1       23.017 -21.174   5.150  0.00  0.00    -0.381 OA
ATOM     22  H   LIG    1       23.976 -21.338   5.033  0.00  0.00    +0.211 HD
ENDBRANCH   1  21
BRANCH  19  23
ATOM     23  O   LIG    1       26.951 -18.459   2.514  0.00  0.00    -0.506 OA
ATOM     24  H   LIG    1       26.649 -19.024   1.767  0.00  0.00    +0.292 HD
ENDBRANCH  19  23
BRANCH   6  25
ATOM     25  O   LIG    1       22.273 -16.398   4.603  0.00  0.00    -0.506 OA
ATOM     26  H   LIG    1       22.390 -15.468   4.905  0.00  0.00    +0.292 HD
ENDBRANCH   6  25
BRANCH  12  27
ATOM     27  O   LIG    1       28.926 -13.845   2.308  0.00  0.00    -0.494 OA
ATOM     28  C   LIG    1       29.355 -15.127   2.750  0.00  0.00    +0.277 C 
ENDBRANCH  12  27
BRANCH   1  29
ATOM     29  C   LIG    1       21.177 -21.266   3.647  0.00  0.00    +0.202 C 
ATOM     30  O   LIG    1       20.862 -21.572   2.488  0.00  0.00    -0.291 OA
BRANCH  29  31
ATOM     31  C   LIG    1       20.221 -21.553   4.798  0.00  0.00    +0.309 C 
BRANCH  31  32
ATOM     32  O   LIG    1       19.351 -20.483   5.129  0.00  0.00    -0.457 OA
BRANCH  32  33
ATOM     33  C   LIG    1       19.458 -19.377   4.312  0.00  0.00    +0.307 C 
ATOM     34  O   LIG    1       19.593 -18.245   4.675  0.00  0.00    -0.251 OA
BRANCH  33  35
ATOM     35  C   LIG    1       19.490 -19.816   2.870  0.00  0.00    +0.120 C 
BRANCH  35  36
ATOM     36  C   LIG    1       19.351 -18.594   1.960  0.00  0.00    +0.011 C 
BRANCH  36  38
ATOM     37  C   LIG    1       20.546 -16.396   2.464  0.00  0.00    +0.004 C 
ATOM     38  C   LIG    1       20.644 -17.774   1.825  0.00  0.00    -0.003 C 
ENDBRANCH  36  38
ENDBRANCH  35  36
ENDBRANCH  33  35
ENDBRANCH  32  33
ENDBRANCH  31  32
ENDBRANCH  29  31
ENDBRANCH   1  29
BRANCH   3  39
ATOM     39  O   LIG    1       25.716 -20.895   4.195  0.00  0.00    -0.343 OA
BRANCH  39  40
ATOM     40  C   LIG    1       25.339 -20.474   5.505  0.00  0.00    +0.253 C 
ATOM     41  O   LIG    1       26.045 -21.118   6.556  0.00  0.00    -0.346 OA
ATOM     42  C   LIG    1       27.341 -20.646   6.934  0.00  0.00    +0.148 C 
ATOM     43  C   LIG    1       28.446 -21.572   6.433  0.00  0.00    +0.040 C 
ATOM     44  C   LIG    1       27.641 -19.139   6.752  0.00  0.00    +0.163 C 
ATOM     45  C   LIG    1       26.823 -18.464   5.638  0.00  0.00    +0.109 C 
ATOM     46  C   LIG    1       25.388 -18.955   5.644  0.00  0.00    +0.086 C 
BRANCH  45  47
ATOM     47  N   LIG    1       26.881 -16.993   5.753  0.00  0.00    -0.302 N 
ATOM     48  H   LIG    1       26.022 -16.465   5.896  0.00  0.00    +0.149 HD
ATOM     49  C   LIG    1       28.089 -16.338   5.994  0.00  0.00    +0.318 C 
ATOM     50  O   LIG    1       29.144 -16.972   6.086  0.00  0.00    -0.266 OA
BRANCH  49  51
ATOM     51  C   LIG    1       28.019 -14.794   6.089  0.00  0.00    +0.469 C 
ATOM     52  F   LIG    1       27.826 -14.211   4.874  0.00  0.00    -0.162 F 
ATOM     53  F   LIG    1       29.150 -14.244   6.610  0.00  0.00    -0.162 F 
ATOM     54  F   LIG    1       26.990 -14.372   6.884  0.00  0.00    -0.162 F 
ENDBRANCH  49  51
ENDBRANCH  45  47
BRANCH  44  55
ATOM     55  O   LIG    1       29.045 -18.902   6.581  0.00  0.00    -0.387 OA
ATOM     56  H   LIG    1       29.509 -19.765   6.625  0.00  0.00    +0.210 HD
ENDBRANCH  44  55
ENDBRANCH  39  40
ENDBRANCH   3  39
TORSDOF 16
ENDMDL
