MODEL 1
REMARK VINA RESULT:      -5.8      0.000      0.000
REMARK  Name = *****
REMARK                            x       y       z     vdW  Elec       q    Type
REMARK                         _______ _______ _______ _____ _____    ______ ____
ROOT
ATOM      1  N   LIG    1       31.258 -19.066   8.658  0.00  0.00    -0.140 N 
ATOM      2  C   LIG    1       30.297 -19.160   7.644  0.00  0.00    +0.324 C 
ATOM      3  N   LIG    1       29.608 -20.354   7.572  0.00  0.00    -0.297 N 
ATOM      4  H   LIG    1       30.020 -21.161   8.023  0.00  0.00    +0.150 HD
ATOM      5  O   LIG    1       30.072 -18.255   6.848  0.00  0.00    -0.251 OA
ENDROOT
BRANCH   1   7
ATOM      6  O   LIG    1       32.189 -20.993   9.250  0.00  0.00    -0.126 OA
ATOM      7  N   LIG    1       31.396 -20.109   9.584  0.00  0.00    +0.053 NA
ENDBRANCH   1   7
BRANCH   3   8
ATOM      8  C   LIG    1       28.703 -20.637   6.470  0.00  0.00    +0.121 C 
BRANCH   8   9
ATOM      9  C   LIG    1       27.401 -21.290   6.928  0.00  0.00    +0.127 C 
ATOM     10 CL   LIG    1       26.659 -20.362   8.262  0.00  0.00    -0.124 Cl
ENDBRANCH   8   9
ENDBRANCH   3   8
BRANCH   1  11
ATOM     11  C   LIG    1       32.075 -17.851   8.751  0.00  0.00    +0.155 C 
BRANCH  11  12
ATOM     12  C   LIG    1       32.073 -17.275  10.167  0.00  0.00    +0.130 C 
ATOM     13 CL   LIG    1       30.414 -16.970  10.733  0.00  0.00    -0.124 Cl
ENDBRANCH  11  12
ENDBRANCH   1  11
TORSDOF 5
ENDMDL
MODEL 2
REMARK VINA RESULT:      -5.8      2.235      4.956
REMARK  Name = *****
REMARK                            x       y       z     vdW  Elec       q    Type
REMARK                         _______ _______ _______ _____ _____    ______ ____
ROOT
ATOM      1  N   LIG    1       31.280 -19.301   8.618  0.00  0.00    -0.140 N 
ATOM      2  C   LIG    1       31.447 -18.054   9.234  0.00  0.00    +0.324 C 
ATOM      3  N   LIG    1       31.422 -18.054  10.614  0.00  0.00    -0.297 N 
ATOM      4  H   LIG    1       31.001 -18.849  11.076  0.00  0.00    +0.150 HD
ATOM      5  O   LIG    1       31.593 -17.011   8.607  0.00  0.00    -0.251 OA
ENDROOT
BRANCH   1   7
ATOM      6  O   LIG    1       32.236 -21.139   9.418  0.00  0.00    -0.126 OA
ATOM      7  N   LIG    1       31.205 -20.460   9.402  0.00  0.00    +0.053 NA
ENDBRANCH   1   7
BRANCH   3   8
ATOM      8  C   LIG    1       31.423 -16.810  11.367  0.00  0.00    +0.121 C 
BRANCH   8   9
ATOM      9  C   LIG    1       32.691 -16.623  12.197  0.00  0.00    +0.127 C 
ATOM     10 CL   LIG    1       32.308 -15.912  13.791  0.00  0.00    -0.124 Cl
ENDBRANCH   8   9
ENDBRANCH   3   8
BRANCH   1  11
ATOM     11  C   LIG    1       31.228 -19.367   7.153  0.00  0.00    +0.155 C 
BRANCH  11  12
ATOM     12  C   LIG    1       29.803 -19.587   6.646  0.00  0.00    +0.130 C 
ATOM     13 CL   LIG    1       29.320 -18.304   5.512  0.00  0.00    -0.124 Cl
ENDBRANCH  11  12
ENDBRANCH   1  11
TORSDOF 5
ENDMDL
MODEL 3
REMARK VINA RESULT:      -5.7      1.434      4.705
REMARK  Name = *****
REMARK                            x       y       z     vdW  Elec       q    Type
REMARK                         _______ _______ _______ _____ _____    ______ ____
ROOT
ATOM      1  N   LIG    1       30.753 -20.015   8.564  0.00  0.00    -0.140 N 
ATOM      2  C   LIG    1       31.204 -18.710   8.797  0.00  0.00    +0.324 C 
ATOM      3  N   LIG    1       31.811 -18.488  10.017  0.00  0.00    -0.297 N 
ATOM      4  H   LIG    1       31.631 -19.154  10.758  0.00  0.00    +0.150 HD
ATOM      5  O   LIG    1       31.068 -17.800   7.988  0.00  0.00    -0.251 OA
ENDROOT
BRANCH   1   7
ATOM      6  O   LIG    1       32.187 -21.432   9.497  0.00  0.00    -0.126 OA
ATOM      7  N   LIG    1       31.023 -21.022   9.502  0.00  0.00    +0.053 NA
ENDBRANCH   1   7
BRANCH   3   8
ATOM      8  C   LIG    1       32.176 -17.147  10.444  0.00  0.00    +0.121 C 
BRANCH   8   9
ATOM      9  C   LIG    1       31.126 -16.510  11.351  0.00  0.00    +0.127 C 
ATOM     10 CL   LIG    1       31.875 -15.882  12.847  0.00  0.00    -0.124 Cl
ENDBRANCH   8   9
ENDBRANCH   3   8
BRANCH   1  11
ATOM     11  C   LIG    1       30.039 -20.307   7.316  0.00  0.00    +0.155 C 
BRANCH  11  12
ATOM     12  C   LIG    1       28.783 -21.141   7.565  0.00  0.00    +0.130 C 
ATOM     13 CL   LIG    1       27.328 -20.296   6.984  0.00  0.00    -0.124 Cl
ENDBRANCH  11  12
ENDBRANCH   1  11
TORSDOF 5
ENDMDL
MODEL 4
REMARK VINA RESULT:      -5.4      3.784      4.791
REMARK  Name = *****
REMARK                            x       y       z     vdW  Elec       q    Type
REMARK                         _______ _______ _______ _____ _____    ______ ____
ROOT
ATOM      1  N   LIG    1       27.249 -20.957   7.629  0.00  0.00    -0.140 N 
ATOM      2  C   LIG    1       26.518 -20.569   6.500  0.00  0.00    +0.324 C 
ATOM      3  N   LIG    1       25.149 -20.731   6.580  0.00  0.00    -0.297 N 
ATOM      4  H   LIG    1       24.793 -21.369   7.280  0.00  0.00    +0.150 HD
ATOM      5  O   LIG    1       27.040 -20.123   5.484  0.00  0.00    -0.251 OA
ENDROOT
BRANCH   1   7
ATOM      6  O   LIG    1       25.982 -20.478   9.389  0.00  0.00    -0.126 OA
ATOM      7  N   LIG    1       26.574 -21.376   8.784  0.00  0.00    +0.053 NA
ENDBRANCH   1   7
BRANCH   3   8
ATOM      8  C   LIG    1       24.296 -20.518   5.422  0.00  0.00    +0.121 C 
BRANCH   8   9
ATOM      9  C   LIG    1       22.876 -20.106   5.802  0.00  0.00    +0.127 C 
ATOM     10 CL   LIG    1       22.294 -18.786   4.747  0.00  0.00    -0.124 Cl
ENDBRANCH   8   9
ENDBRANCH   3   8
BRANCH   1  11
ATOM     11  C   LIG    1       28.713 -20.876   7.589  0.00  0.00    +0.155 C 
BRANCH  11  12
ATOM     12  C   LIG    1       29.214 -19.489   7.989  0.00  0.00    +0.130 C 
ATOM     13 CL   LIG    1       29.958 -18.652   6.606  0.00  0.00    -0.124 Cl
ENDBRANCH  11  12
ENDBRANCH   1  11
TORSDOF 5
ENDMDL
MODEL 5
REMARK VINA RESULT:      -5.2      1.452      2.339
REMARK  Name = *****
REMARK                            x       y       z     vdW  Elec       q    Type
REMARK                         _______ _______ _______ _____ _____    ______ ____
ROOT
ATOM      1  N   LIG    1       30.624 -19.560   7.554  0.00  0.00    -0.140 N 
ATOM      2  C   LIG    1       29.628 -20.524   7.749  0.00  0.00    +0.324 C 
ATOM      3  N   LIG    1       28.704 -20.654   6.730  0.00  0.00    -0.297 N 
ATOM      4  H   LIG    1       28.613 -19.885   6.079  0.00  0.00    +0.150 HD
ATOM      5  O   LIG    1       29.550 -21.213   8.760  0.00  0.00    -0.251 OA
ENDROOT
BRANCH   1   7
ATOM      6  O   LIG    1       29.742 -18.127   6.105  0.00  0.00    -0.126 OA
ATOM      7  N   LIG    1       30.698 -18.872   6.335  0.00  0.00    +0.053 NA
ENDBRANCH   1   7
BRANCH   3   8
ATOM      8  C   LIG    1       27.532 -21.501   6.879  0.00  0.00    +0.121 C 
BRANCH   8   9
ATOM      9  C   LIG    1       26.253 -20.703   7.117  0.00  0.00    +0.127 C 
ATOM     10 CL   LIG    1       25.949 -20.497   8.866  0.00  0.00    -0.124 Cl
ENDBRANCH   8   9
ENDBRANCH   3   8
BRANCH   1  11
ATOM     11  C   LIG    1       31.599 -19.321   8.625  0.00  0.00    +0.155 C 
BRANCH  11  12
ATOM     12  C   LIG    1       31.763 -17.830   8.918  0.00  0.00    +0.130 C 
ATOM     13 CL   LIG    1       30.286 -17.153   9.642  0.00  0.00    -0.124 Cl
ENDBRANCH  11  12
ENDBRANCH   1  11
TORSDOF 5
ENDMDL
MODEL 6
REMARK VINA RESULT:      -5.2      3.044      5.547
REMARK  Name = *****
REMARK                            x       y       z     vdW  Elec       q    Type
REMARK                         _______ _______ _______ _____ _____    ______ ____
ROOT
ATOM      1  N   LIG    1       26.749 -21.109   7.396  0.00  0.00    -0.140 N 
ATOM      2  C   LIG    1       27.848 -20.372   6.936  0.00  0.00    +0.324 C 
ATOM      3  N   LIG    1       28.670 -19.841   7.910  0.00  0.00    -0.297 N 
ATOM      4  H   LIG    1       28.293 -19.751   8.844  0.00  0.00    +0.150 HD
ATOM      5  O   LIG    1       28.078 -20.184   5.747  0.00  0.00    -0.251 OA
ENDROOT
BRANCH   1   7
ATOM      6  O   LIG    1       26.003 -20.471   9.388  0.00  0.00    -0.126 OA
ATOM      7  N   LIG    1       26.602 -21.354   8.769  0.00  0.00    +0.053 NA
ENDBRANCH   1   7
BRANCH   3   8
ATOM      8  C   LIG    1       29.747 -18.926   7.569  0.00  0.00    +0.121 C 
BRANCH   8   9
ATOM      9  C   LIG    1       31.130 -19.546   7.752  0.00  0.00    +0.127 C 
ATOM     10 CL   LIG    1       31.023 -21.080   8.661  0.00  0.00    -0.124 Cl
ENDBRANCH   8   9
ENDBRANCH   3   8
BRANCH   1  11
ATOM     11  C   LIG    1       25.795 -21.646   6.419  0.00  0.00    +0.155 C 
BRANCH  11  12
ATOM     12  C   LIG    1       24.703 -20.633   6.080  0.00  0.00    +0.130 C 
ATOM     13 CL   LIG    1       23.330 -20.771   7.203  0.00  0.00    -0.124 Cl
ENDBRANCH  11  12
ENDBRANCH   1  11
TORSDOF 5
ENDMDL
MODEL 7
REMARK VINA RESULT:      -5.1      4.398      5.519
REMARK  Name = *****
REMARK                            x       y       z     vdW  Elec       q    Type
REMARK                         _______ _______ _______ _____ _____    ______ ____
ROOT
ATOM      1  N   LIG    1       26.531 -21.088   7.353  0.00  0.00    -0.140 N 
ATOM      2  C   LIG    1       25.445 -21.618   6.646  0.00  0.00    +0.324 C 
ATOM      3  N   LIG    1       24.592 -22.431   7.365  0.00  0.00    -0.297 N 
ATOM      4  H   LIG    1       24.941 -22.830   8.227  0.00  0.00    +0.150 HD
ATOM      5  O   LIG    1       25.250 -21.400   5.455  0.00  0.00    -0.251 OA
ENDROOT
BRANCH   1   7
ATOM      6  O   LIG    1       25.901 -20.607   9.428  0.00  0.00    -0.126 OA
ATOM      7  N   LIG    1       26.637 -21.312   8.733  0.00  0.00    +0.053 NA
ENDBRANCH   1   7
BRANCH   3   8
ATOM      8  C   LIG    1       23.524 -23.169   6.712  0.00  0.00    +0.121 C 
BRANCH   8   9
ATOM      9  C   LIG    1       23.871 -24.639   6.490  0.00  0.00    +0.127 C 
ATOM     10 CL   LIG    1       25.021 -24.823   5.134  0.00  0.00    -0.124 Cl
ENDBRANCH   8   9
ENDBRANCH   3   8
BRANCH   1  11
ATOM     11  C   LIG    1       27.515 -20.270   6.635  0.00  0.00    +0.155 C 
BRANCH  11  12
ATOM     12  C   LIG    1       28.933 -20.812   6.806  0.00  0.00    +0.130 C 
ATOM     13 CL   LIG    1       30.139 -19.515   6.634  0.00  0.00    -0.124 Cl
ENDBRANCH  11  12
ENDBRANCH   1  11
TORSDOF 5
ENDMDL
MODEL 8
REMARK VINA RESULT:      -5.1      7.539      8.403
REMARK  Name = *****
REMARK                            x       y       z     vdW  Elec       q    Type
REMARK                         _______ _______ _______ _____ _____    ______ ____
ROOT
ATOM      1  N   LIG    1       24.599 -23.909   6.370  0.00  0.00    -0.140 N 
ATOM      2  C   LIG    1       24.632 -22.586   5.910  0.00  0.00    +0.324 C 
ATOM      3  N   LIG    1       23.467 -22.116   5.336  0.00  0.00    -0.297 N 
ATOM      4  H   LIG    1       22.794 -22.800   5.014  0.00  0.00    +0.150 HD
ATOM      5  O   LIG    1       25.626 -21.874   5.987  0.00  0.00    -0.251 OA
ENDROOT
BRANCH   1   7
ATOM      6  O   LIG    1       22.461 -24.110   6.936  0.00  0.00    -0.126 OA
ATOM      7  N   LIG    1       23.398 -24.631   6.325  0.00  0.00    +0.053 NA
ENDBRANCH   1   7
BRANCH   3   8
ATOM      8  C   LIG    1       23.421 -20.821   4.678  0.00  0.00    +0.121 C 
BRANCH   8   9
ATOM      9  C   LIG    1       22.617 -19.787   5.463  0.00  0.00    +0.127 C 
ATOM     10 CL   LIG    1       22.278 -18.349   4.458  0.00  0.00    -0.124 Cl
ENDBRANCH   8   9
ENDBRANCH   3   8
BRANCH   1  11
ATOM     11  C   LIG    1       25.822 -24.496   6.929  0.00  0.00    +0.155 C 
BRANCH  11  12
ATOM     12  C   LIG    1       26.196 -25.800   6.226  0.00  0.00    +0.130 C 
ATOM     13 CL   LIG    1       25.835 -27.208   7.253  0.00  0.00    -0.124 Cl
ENDBRANCH  11  12
ENDBRANCH   1  11
TORSDOF 5
ENDMDL
MODEL 9
REMARK VINA RESULT:      -5.0      3.428      6.237
REMARK  Name = *****
REMARK                            x       y       z     vdW  Elec       q    Type
REMARK                         _______ _______ _______ _____ _____    ______ ____
ROOT
ATOM      1  N   LIG    1       25.700 -20.859   7.448  0.00  0.00    -0.140 N 
ATOM      2  C   LIG    1       26.896 -20.442   6.851  0.00  0.00    +0.324 C 
ATOM      3  N   LIG    1       27.999 -20.390   7.680  0.00  0.00    -0.297 N 
ATOM      4  H   LIG    1       27.835 -20.357   8.677  0.00  0.00    +0.150 HD
ATOM      5  O   LIG    1       26.980 -20.121   5.671  0.00  0.00    -0.251 OA
ENDROOT
BRANCH   1   7
ATOM      6  O   LIG    1       25.941 -20.408   9.609  0.00  0.00    -0.126 OA
ATOM      7  N   LIG    1       25.702 -21.292   8.782  0.00  0.00    +0.053 NA
ENDBRANCH   1   7
BRANCH   3   8
ATOM      8  C   LIG    1       29.257 -19.821   7.224  0.00  0.00    +0.121 C 
BRANCH   8   9
ATOM      9  C   LIG    1       29.890 -18.887   8.253  0.00  0.00    +0.127 C 
ATOM     10 CL   LIG    1       31.635 -18.675   7.929  0.00  0.00    -0.124 Cl
ENDBRANCH   8   9
ENDBRANCH   3   8
BRANCH   1  11
ATOM     11  C   LIG    1       24.473 -20.873   6.644  0.00  0.00    +0.155 C 
BRANCH  11  12
ATOM     12  C   LIG    1       24.237 -22.237   5.996  0.00  0.00    +0.130 C 
ATOM     13 CL   LIG    1       22.965 -23.141   6.851  0.00  0.00    -0.124 Cl
ENDBRANCH  11  12
ENDBRANCH   1  11
TORSDOF 5
ENDMDL
