MODEL 1
REMARK VINA RESULT:       5.2      0.000      0.000
REMARK  Name = *****
REMARK                            x       y       z     vdW  Elec       q    Type
REMARK                         _______ _______ _______ _____ _____    ______ ____
ROOT
ATOM      1  C   LIG    1       25.204 -19.805   4.328  0.00  0.00    +0.383 C 
ATOM      2  C   LIG    1       24.662 -20.308   5.695  0.00  0.00    +0.284 C 
ATOM      3  O   LIG    1       25.406 -20.820   6.542  0.00  0.00    -0.269 OA
ATOM      4  N   LIG    1       23.269 -20.239   5.898  0.00  0.00    -0.269 N 
ATOM      5  C   LIG    1       22.750 -20.948   7.062  0.00  0.00    +0.138 C 
ATOM      6  C   LIG    1       22.347 -19.672   4.958  0.00  0.00    +0.045 A 
ATOM      7  C   LIG    1       22.683 -18.619   4.082  0.00  0.00    +0.023 A 
ATOM      8  C   LIG    1       21.794 -18.201   3.075  0.00  0.00    +0.032 A 
ATOM      9  C   LIG    1       20.517 -18.742   3.011  0.00  0.00    +0.042 A 
ATOM     10  C   LIG    1       20.122 -19.705   3.930  0.00  0.00    +0.022 A 
ATOM     11 CL   LIG    1       19.407 -18.185   1.824  0.00  0.00    -0.084 Cl
ATOM     12  C   LIG    1       23.931 -17.824   4.257  0.00  0.00    +0.079 C 
ATOM     13  C   LIG    1       21.033 -20.175   4.884  0.00  0.00    +0.025 A 
ATOM     14  N   LIG    1       25.103 -18.348   4.354  0.00  0.00    -0.232 NA
ENDROOT
BRANCH  12  15
ATOM     15  C   LIG    1       23.833 -16.328   4.357  0.00  0.00    +0.001 A 
ATOM     16  C   LIG    1       24.825 -15.540   3.758  0.00  0.00    +0.010 A 
ATOM     17  C   LIG    1       24.777 -14.148   3.859  0.00  0.00    +0.001 A 
ATOM     18  C   LIG    1       23.741 -13.536   4.563  0.00  0.00    +0.000 A 
ATOM     19  C   LIG    1       22.761 -14.312   5.178  0.00  0.00    +0.001 A 
ATOM     20  C   LIG    1       22.810 -15.705   5.085  0.00  0.00    +0.010 A 
ENDBRANCH  12  15
BRANCH   1  21
ATOM     21  O   LIG    1       26.537 -20.306   4.213  0.00  0.00    -0.416 OA
BRANCH  21  24
ATOM     22  C   LIG    1       28.111 -21.215   6.161  0.00  0.00    +0.135 C 
ATOM     23  N   LIG    1       28.235 -19.856   5.646  0.00  0.00    -0.274 N 
ATOM     24  C   LIG    1       27.523 -19.429   4.538  0.00  0.00    +0.405 C 
ATOM     25  O   LIG    1       27.769 -18.404   3.920  0.00  0.00    -0.226 OA
ATOM     26  C   LIG    1       29.396 -19.099   6.064  0.00  0.00    +0.135 C 
ENDBRANCH  21  24
ENDBRANCH   1  21
TORSDOF 3
ENDMDL
MODEL 2
REMARK VINA RESULT:       7.2      2.781      6.044
REMARK  Name = *****
REMARK                            x       y       z     vdW  Elec       q    Type
REMARK                         _______ _______ _______ _____ _____    ______ ____
ROOT
ATOM      1  C   LIG    1       23.786 -18.286   3.214  0.00  0.00    +0.383 C 
ATOM      2  C   LIG    1       23.018 -17.499   4.312  0.00  0.00    +0.284 C 
ATOM      3  O   LIG    1       21.973 -17.935   4.816  0.00  0.00    -0.269 OA
ATOM      4  N   LIG    1       23.510 -16.222   4.651  0.00  0.00    -0.269 N 
ATOM      5  C   LIG    1       22.641 -15.394   5.479  0.00  0.00    +0.138 C 
ATOM      6  C   LIG    1       24.703 -15.649   4.101  0.00  0.00    +0.045 A 
ATOM      7  C   LIG    1       25.812 -16.416   3.688  0.00  0.00    +0.023 A 
ATOM      8  C   LIG    1       26.895 -15.823   3.015  0.00  0.00    +0.032 A 
ATOM      9  C   LIG    1       26.940 -14.445   2.857  0.00  0.00    +0.042 A 
ATOM     10  C   LIG    1       25.911 -13.653   3.350  0.00  0.00    +0.022 A 
ATOM     11 CL   LIG    1       28.293 -13.711   2.093  0.00  0.00    -0.084 Cl
ATOM     12  C   LIG    1       25.946 -17.855   4.051  0.00  0.00    +0.079 C 
ATOM     13  C   LIG    1       24.798 -14.252   3.952  0.00  0.00    +0.025 A 
ATOM     14  N   LIG    1       25.034 -18.736   3.826  0.00  0.00    -0.232 NA
ENDROOT
BRANCH  12  15
ATOM     15  C   LIG    1       27.195 -18.318   4.746  0.00  0.00    +0.001 A 
ATOM     16  C   LIG    1       27.198 -19.569   5.379  0.00  0.00    +0.010 A 
ATOM     17  C   LIG    1       28.335 -20.012   6.057  0.00  0.00    +0.001 A 
ATOM     18  C   LIG    1       29.473 -19.210   6.111  0.00  0.00    +0.000 A 
ATOM     19  C   LIG    1       29.473 -17.958   5.500  0.00  0.00    +0.001 A 
ATOM     20  C   LIG    1       28.335 -17.507   4.826  0.00  0.00    +0.010 A 
ENDBRANCH  12  15
BRANCH   1  21
ATOM     21  O   LIG    1       22.918 -19.339   2.790  0.00  0.00    -0.416 OA
BRANCH  21  24
ATOM     22  C   LIG    1       20.433 -19.662   3.694  0.00  0.00    +0.135 C 
ATOM     23  N   LIG    1       21.547 -20.447   4.214  0.00  0.00    -0.274 N 
ATOM     24  C   LIG    1       22.808 -20.388   3.648  0.00  0.00    +0.405 C 
ATOM     25  O   LIG    1       23.699 -21.194   3.873  0.00  0.00    -0.226 OA
ATOM     26  C   LIG    1       21.216 -21.570   5.066  0.00  0.00    +0.135 C 
ENDBRANCH  21  24
ENDBRANCH   1  21
TORSDOF 3
ENDMDL
