MODEL 1
REMARK VINA RESULT:      -9.4      0.000      0.000
REMARK  Name = *****
REMARK                            x       y       z     vdW  Elec       q    Type
REMARK                         _______ _______ _______ _____ _____    ______ ____
ROOT
ATOM      1  C   LIG    1       24.548 -19.452   3.878  0.00  0.00    +0.138 C 
ATOM      2  N   LIG    1       24.440 -20.319   5.047  0.00  0.00    -0.272 N 
ATOM      3  C   LIG    1       23.158 -20.521   5.552  0.00  0.00    +0.228 C 
ATOM      4  O   LIG    1       22.152 -20.041   5.025  0.00  0.00    -0.275 OA
ATOM      5  C   LIG    1       23.054 -21.291   6.826  0.00  0.00    +0.193 C 
ATOM      6  C   LIG    1       23.395 -22.723   6.569  0.00  0.00    +0.233 C 
ATOM      7  O   LIG    1       22.485 -23.553   6.519  0.00  0.00    -0.274 OA
ATOM      8  N   LIG    1       24.756 -23.004   6.405  0.00  0.00    -0.238 N 
ATOM      9  C   LIG    1       25.772 -21.979   6.388  0.00  0.00    +0.064 A 
ATOM     10  C   LIG    1       26.989 -22.252   7.060  0.00  0.00    +0.045 A 
ATOM     11  C   LIG    1       28.056 -21.358   7.031  0.00  0.00    +0.043 A 
ATOM     12 CL   LIG    1       29.517 -21.736   7.852  0.00  0.00    -0.084 Cl
ATOM     13  C   LIG    1       27.940 -20.166   6.338  0.00  0.00    +0.022 A 
ATOM     14  C   LIG    1       26.742 -19.860   5.691  0.00  0.00    +0.027 A 
ATOM     15  C   LIG    1       25.632 -20.734   5.722  0.00  0.00    +0.058 A 
ENDROOT
BRANCH   8  16
ATOM     16  C   LIG    1       25.194 -24.370   6.229  0.00  0.00    +0.041 A 
ATOM     17  C   LIG    1       25.151 -24.988   4.964  0.00  0.00    +0.024 A 
ATOM     18  C   LIG    1       25.572 -26.310   4.788  0.00  0.00    +0.002 A 
ATOM     19  C   LIG    1       26.037 -27.042   5.874  0.00  0.00    +0.000 A 
ATOM     20  C   LIG    1       26.075 -26.458   7.136  0.00  0.00    +0.002 A 
ATOM     21  C   LIG    1       25.653 -25.135   7.312  0.00  0.00    +0.024 A 
ENDBRANCH   8  16
TORSDOF 1
ENDMDL
MODEL 2
REMARK VINA RESULT:      -6.5      2.720      5.243
REMARK  Name = *****
REMARK                            x       y       z     vdW  Elec       q    Type
REMARK                         _______ _______ _______ _____ _____    ______ ____
ROOT
ATOM      1  C   LIG    1       24.716 -24.163   4.487  0.00  0.00    +0.138 C 
ATOM      2  N   LIG    1       24.826 -23.061   5.437  0.00  0.00    -0.272 N 
ATOM      3  C   LIG    1       24.557 -23.363   6.769  0.00  0.00    +0.228 C 
ATOM      4  O   LIG    1       24.287 -24.503   7.152  0.00  0.00    -0.275 OA
ATOM      5  C   LIG    1       24.532 -22.216   7.724  0.00  0.00    +0.193 C 
ATOM      6  C   LIG    1       25.920 -21.697   7.913  0.00  0.00    +0.233 C 
ATOM      7  O   LIG    1       26.521 -21.966   8.955  0.00  0.00    -0.274 OA
ATOM      8  N   LIG    1       26.430 -20.927   6.861  0.00  0.00    -0.238 N 
ATOM      9  C   LIG    1       25.714 -20.715   5.626  0.00  0.00    +0.064 A 
ATOM     10  C   LIG    1       25.764 -19.419   5.054  0.00  0.00    +0.045 A 
ATOM     11  C   LIG    1       25.172 -19.140   3.826  0.00  0.00    +0.043 A 
ATOM     12 CL   LIG    1       25.266 -17.556   3.166  0.00  0.00    -0.084 Cl
ATOM     13  C   LIG    1       24.510 -20.139   3.134  0.00  0.00    +0.022 A 
ATOM     14  C   LIG    1       24.421 -21.417   3.688  0.00  0.00    +0.027 A 
ATOM     15  C   LIG    1       24.990 -21.727   4.944  0.00  0.00    +0.058 A 
ENDROOT
BRANCH   8  16
ATOM     16  C   LIG    1       27.734 -20.316   6.982  0.00  0.00    +0.041 A 
ATOM     17  C   LIG    1       28.184 -19.805   8.215  0.00  0.00    +0.024 A 
ATOM     18  C   LIG    1       29.444 -19.212   8.338  0.00  0.00    +0.002 A 
ATOM     19  C   LIG    1       30.276 -19.110   7.228  0.00  0.00    +0.000 A 
ATOM     20  C   LIG    1       29.847 -19.594   5.996  0.00  0.00    +0.002 A 
ATOM     21  C   LIG    1       28.586 -20.188   5.874  0.00  0.00    +0.024 A 
ENDBRANCH   8  16
TORSDOF 1
ENDMDL
