MODEL 1
REMARK VINA RESULT:      11.6      0.000      0.000
REMARK  Name = *****
REMARK                            x       y       z     vdW  Elec       q    Type
REMARK                         _______ _______ _______ _____ _____    ______ ____
ROOT
ATOM      1  C   LIG    1       26.673 -19.658   2.664  0.00  0.00    +0.015 C 
ATOM      2  C   LIG    1       26.617 -18.629   3.820  0.00  0.00    +0.008 C 
ATOM      3  C   LIG    1       28.063 -18.095   4.049  0.00  0.00    +0.183 C 
ATOM      4  C   LIG    1       28.729 -19.222   4.881  0.00  0.00    +0.045 C 
ATOM      5  C   LIG    1       27.584 -20.037   5.526  0.00  0.00    +0.008 C 
ATOM      6  C   LIG    1       26.347 -19.204   5.226  0.00  0.00    +0.002 C 
ATOM      7  C   LIG    1       24.945 -19.757   5.509  0.00  0.00    -0.003 C 
ATOM      8  C   LIG    1       24.579 -21.105   4.869  0.00  0.00    +0.008 C 
ATOM      9  C   LIG    1       23.143 -21.529   5.201  0.00  0.00    +0.032 C 
ATOM     10  C   LIG    1       22.169 -20.424   4.854  0.00  0.00    -0.060 C 
ATOM     11  C   LIG    1       22.435 -19.076   5.515  0.00  0.00    -0.007 C 
ATOM     12  C   LIG    1       22.302 -19.217   7.062  0.00  0.00    +0.016 C 
ATOM     13  C   LIG    1       21.374 -18.001   5.127  0.00  0.00    +0.019 C 
ATOM     14  C   LIG    1       20.770 -18.134   3.738  0.00  0.00    +0.080 C 
ATOM     15  C   LIG    1       20.331 -19.545   3.464  0.00  0.00    +0.156 C 
ATOM     16  O   LIG    1       19.364 -19.807   2.753  0.00  0.00    -0.293 OA
ATOM     17  C   LIG    1       21.185 -20.644   3.965  0.00  0.00    +0.046 C 
ATOM     18  C   LIG    1       23.903 -18.631   5.181  0.00  0.00    +0.002 C 
ATOM     19  C   LIG    1       24.118 -18.099   3.741  0.00  0.00    +0.005 C 
ATOM     20  C   LIG    1       25.547 -17.576   3.503  0.00  0.00    +0.011 C 
ENDROOT
BRANCH   3  21
ATOM     21  O   LIG    1       28.020 -16.874   4.826  0.00  0.00    -0.461 OA
BRANCH  21  22
ATOM     22  C   LIG    1       27.676 -15.734   4.163  0.00  0.00    +0.307 C 
ATOM     23  O   LIG    1       27.545 -15.644   2.949  0.00  0.00    -0.251 OA
BRANCH  22  24
ATOM     24  C   LIG    1       27.482 -14.603   5.154  0.00  0.00    +0.121 C 
BRANCH  24  25
ATOM     25  C   LIG    1       27.348 -13.239   4.466  0.00  0.00    +0.015 C 
BRANCH  25  26
ATOM     26  C   LIG    1       25.919 -12.935   3.994  0.00  0.00    -0.010 C 
ATOM     27  C   LIG    1       25.656 -13.288   2.527  0.00  0.00    +0.003 C 
ATOM     28  C   LIG    1       24.163 -13.563   2.477  0.00  0.00    +0.000 C 
ATOM     29  C   LIG    1       23.929 -14.360   3.748  0.00  0.00    +0.000 C 
ATOM     30  C   LIG    1       24.845 -13.710   4.784  0.00  0.00    +0.003 C 
ENDBRANCH  25  26
ENDBRANCH  24  25
ENDBRANCH  22  24
ENDBRANCH  21  22
ENDBRANCH   3  21
TORSDOF 5
ENDMDL
MODEL 2
REMARK VINA RESULT:      11.6      1.076      1.403
REMARK  Name = *****
REMARK                            x       y       z     vdW  Elec       q    Type
REMARK                         _______ _______ _______ _____ _____    ______ ____
ROOT
ATOM      1  C   LIG    1       26.579 -18.782   2.313  0.00  0.00    +0.015 C 
ATOM      2  C   LIG    1       26.440 -17.907   3.582  0.00  0.00    +0.008 C 
ATOM      3  C   LIG    1       27.771 -17.118   3.763  0.00  0.00    +0.183 C 
ATOM      4  C   LIG    1       28.719 -18.165   4.404  0.00  0.00    +0.045 C 
ATOM      5  C   LIG    1       27.821 -19.254   5.033  0.00  0.00    +0.008 C 
ATOM      6  C   LIG    1       26.423 -18.662   4.928  0.00  0.00    +0.002 C 
ATOM      7  C   LIG    1       25.188 -19.512   5.249  0.00  0.00    -0.003 C 
ATOM      8  C   LIG    1       25.027 -20.835   4.484  0.00  0.00    +0.008 C 
ATOM      9  C   LIG    1       23.738 -21.571   4.872  0.00  0.00    +0.032 C 
ATOM     10  C   LIG    1       22.541 -20.657   4.732  0.00  0.00    -0.060 C 
ATOM     11  C   LIG    1       22.606 -19.355   5.525  0.00  0.00    -0.007 C 
ATOM     12  C   LIG    1       22.654 -19.674   7.050  0.00  0.00    +0.016 C 
ATOM     13  C   LIG    1       21.326 -18.483   5.347  0.00  0.00    +0.019 C 
ATOM     14  C   LIG    1       20.626 -18.595   4.001  0.00  0.00    +0.080 C 
ATOM     15  C   LIG    1       20.443 -20.031   3.598  0.00  0.00    +0.156 C 
ATOM     16  O   LIG    1       19.479 -20.410   2.936  0.00  0.00    -0.293 OA
ATOM     17  C   LIG    1       21.536 -20.980   3.901  0.00  0.00    +0.046 C 
ATOM     18  C   LIG    1       23.922 -18.592   5.135  0.00  0.00    +0.002 C 
ATOM     19  C   LIG    1       23.889 -17.886   3.756  0.00  0.00    +0.005 C 
ATOM     20  C   LIG    1       25.161 -17.065   3.473  0.00  0.00    +0.011 C 
ENDROOT
BRANCH   3  21
ATOM     21  O   LIG    1       27.570 -16.015   4.679  0.00  0.00    -0.461 OA
BRANCH  21  22
ATOM     22  C   LIG    1       27.809 -14.763   4.197  0.00  0.00    +0.307 C 
ATOM     23  O   LIG    1       28.389 -13.876   4.811  0.00  0.00    -0.251 OA
BRANCH  22  24
ATOM     24  C   LIG    1       27.251 -14.638   2.793  0.00  0.00    +0.121 C 
BRANCH  24  25
ATOM     25  C   LIG    1       26.490 -13.323   2.580  0.00  0.00    +0.015 C 
BRANCH  25  26
ATOM     26  C   LIG    1       25.182 -13.243   3.380  0.00  0.00    -0.010 C 
ATOM     27  C   LIG    1       25.321 -12.543   4.736  0.00  0.00    +0.003 C 
ATOM     28  C   LIG    1       23.933 -11.985   5.005  0.00  0.00    +0.000 C 
ATOM     29  C   LIG    1       23.522 -11.447   3.646  0.00  0.00    +0.000 C 
ATOM     30  C   LIG    1       24.072 -12.464   2.646  0.00  0.00    +0.003 C 
ENDBRANCH  25  26
ENDBRANCH  24  25
ENDBRANCH  22  24
ENDBRANCH  21  22
ENDBRANCH   3  21
TORSDOF 5
ENDMDL
MODEL 3
REMARK VINA RESULT:      12.2      2.083      6.813
REMARK  Name = *****
REMARK                            x       y       z     vdW  Elec       q    Type
REMARK                         _______ _______ _______ _____ _____    ______ ____
ROOT
ATOM      1  C   LIG    1       28.152 -18.569   3.322  0.00  0.00    +0.015 C 
ATOM      2  C   LIG    1       26.935 -18.460   4.272  0.00  0.00    +0.008 C 
ATOM      3  C   LIG    1       26.385 -19.899   4.505  0.00  0.00    +0.183 C 
ATOM      4  C   LIG    1       25.552 -20.171   3.224  0.00  0.00    +0.045 C 
ATOM      5  C   LIG    1       25.218 -18.793   2.608  0.00  0.00    +0.008 C 
ATOM      6  C   LIG    1       25.667 -17.810   3.680  0.00  0.00    +0.002 C 
ATOM      7  C   LIG    1       25.711 -16.305   3.390  0.00  0.00    -0.003 C 
ATOM      8  C   LIG    1       26.535 -15.846   2.177  0.00  0.00    +0.008 C 
ATOM      9  C   LIG    1       26.524 -14.320   2.019  0.00  0.00    +0.032 C 
ATOM     10  C   LIG    1       26.943 -13.649   3.308  0.00  0.00    -0.060 C 
ATOM     11  C   LIG    1       26.117 -14.007   4.540  0.00  0.00    -0.007 C 
ATOM     12  C   LIG    1       24.645 -13.537   4.337  0.00  0.00    +0.016 C 
ATOM     13  C   LIG    1       26.596 -13.255   5.819  0.00  0.00    +0.019 C 
ATOM     14  C   LIG    1       28.081 -12.936   5.887  0.00  0.00    +0.080 C 
ATOM     15  C   LIG    1       28.567 -12.320   4.604  0.00  0.00    +0.156 C 
ATOM     16  O   LIG    1       29.471 -11.488   4.575  0.00  0.00    -0.293 OA
ATOM     17  C   LIG    1       28.020 -12.845   3.334  0.00  0.00    +0.046 C 
ATOM     18  C   LIG    1       26.122 -15.568   4.713  0.00  0.00    +0.002 C 
ATOM     19  C   LIG    1       27.437 -16.164   5.277  0.00  0.00    +0.005 C 
ATOM     20  C   LIG    1       27.348 -17.681   5.529  0.00  0.00    +0.011 C 
ENDROOT
BRANCH   3  21
ATOM     21  O   LIG    1       25.517 -19.914   5.664  0.00  0.00    -0.461 OA
BRANCH  21  22
ATOM     22  C   LIG    1       25.727 -20.903   6.577  0.00  0.00    +0.307 C 
ATOM     23  O   LIG    1       26.828 -21.291   6.947  0.00  0.00    -0.251 OA
BRANCH  22  24
ATOM     24  C   LIG    1       24.397 -21.445   7.062  0.00  0.00    +0.121 C 
BRANCH  24  25
ATOM     25  C   LIG    1       23.247 -20.453   6.846  0.00  0.00    +0.015 C 
BRANCH  25  26
ATOM     26  C   LIG    1       22.943 -20.190   5.364  0.00  0.00    -0.010 C 
ATOM     27  C   LIG    1       21.684 -20.896   4.850  0.00  0.00    +0.003 C 
ATOM     28  C   LIG    1       21.214 -20.018   3.702  0.00  0.00    +0.000 C 
ATOM     29  C   LIG    1       21.414 -18.617   4.251  0.00  0.00    +0.000 C 
ATOM     30  C   LIG    1       22.715 -18.698   5.051  0.00  0.00    +0.003 C 
ENDBRANCH  25  26
ENDBRANCH  24  25
ENDBRANCH  22  24
ENDBRANCH  21  22
ENDBRANCH   3  21
TORSDOF 5
ENDMDL
MODEL 4
REMARK VINA RESULT:      12.8      2.092      7.399
REMARK  Name = *****
REMARK                            x       y       z     vdW  Elec       q    Type
REMARK                         _______ _______ _______ _____ _____    ______ ____
ROOT
ATOM      1  C   LIG    1       22.552 -15.869   2.703  0.00  0.00    +0.015 C 
ATOM      2  C   LIG    1       23.168 -16.527   3.962  0.00  0.00    +0.008 C 
ATOM      3  C   LIG    1       22.248 -17.714   4.374  0.00  0.00    +0.183 C 
ATOM      4  C   LIG    1       21.082 -17.016   5.123  0.00  0.00    +0.045 C 
ATOM      5  C   LIG    1       21.605 -15.630   5.569  0.00  0.00    +0.008 C 
ATOM      6  C   LIG    1       23.094 -15.701   5.264  0.00  0.00    +0.002 C 
ATOM      7  C   LIG    1       23.971 -14.447   5.359  0.00  0.00    -0.003 C 
ATOM      8  C   LIG    1       23.539 -13.223   4.537  0.00  0.00    +0.008 C 
ATOM      9  C   LIG    1       24.516 -12.050   4.694  0.00  0.00    +0.032 C 
ATOM     10  C   LIG    1       25.932 -12.495   4.396  0.00  0.00    -0.060 C 
ATOM     11  C   LIG    1       26.448 -13.663   5.230  0.00  0.00    -0.007 C 
ATOM     12  C   LIG    1       26.496 -13.251   6.733  0.00  0.00    +0.016 C 
ATOM     13  C   LIG    1       27.920 -14.042   4.881  0.00  0.00    +0.019 C 
ATOM     14  C   LIG    1       28.342 -13.808   3.439  0.00  0.00    +0.080 C 
ATOM     15  C   LIG    1       27.940 -12.439   2.966  0.00  0.00    +0.156 C 
ATOM     16  O   LIG    1       28.603 -11.804   2.149  0.00  0.00    -0.293 OA
ATOM     17  C   LIG    1       26.630 -11.912   3.407  0.00  0.00    +0.046 C 
ATOM     18  C   LIG    1       25.455 -14.870   5.076  0.00  0.00    +0.002 C 
ATOM     19  C   LIG    1       25.553 -15.636   3.732  0.00  0.00    +0.005 C 
ATOM     20  C   LIG    1       24.637 -16.872   3.679  0.00  0.00    +0.011 C 
ENDROOT
BRANCH   3  21
ATOM     21  O   LIG    1       22.955 -18.593   5.282  0.00  0.00    -0.461 OA
BRANCH  21  22
ATOM     22  C   LIG    1       22.435 -19.840   5.462  0.00  0.00    +0.307 C 
ATOM     23  O   LIG    1       21.570 -20.345   4.757  0.00  0.00    -0.251 OA
BRANCH  22  24
ATOM     24  C   LIG    1       23.088 -20.500   6.660  0.00  0.00    +0.121 C 
BRANCH  24  25
ATOM     25  C   LIG    1       24.618 -20.522   6.555  0.00  0.00    +0.015 C 
BRANCH  25  26
ATOM     26  C   LIG    1       25.125 -21.023   5.195  0.00  0.00    -0.010 C 
ATOM     27  C   LIG    1       24.026 -21.571   4.281  0.00  0.00    +0.003 C 
ATOM     28  C   LIG    1       24.572 -21.355   2.879  0.00  0.00    +0.000 C 
ATOM     29  C   LIG    1       25.189 -19.971   2.973  0.00  0.00    +0.000 C 
ATOM     30  C   LIG    1       25.816 -19.921   4.366  0.00  0.00    +0.003 C 
ENDBRANCH  25  26
ENDBRANCH  24  25
ENDBRANCH  22  24
ENDBRANCH  21  22
ENDBRANCH   3  21
TORSDOF 5
ENDMDL
MODEL 5
REMARK VINA RESULT:      13.5      2.203      4.930
REMARK  Name = *****
REMARK                            x       y       z     vdW  Elec       q    Type
REMARK                         _______ _______ _______ _____ _____    ______ ____
ROOT
ATOM      1  C   LIG    1       22.991 -15.617   5.894  0.00  0.00    +0.015 C 
ATOM      2  C   LIG    1       23.375 -15.676   4.395  0.00  0.00    +0.008 C 
ATOM      3  C   LIG    1       22.812 -14.395   3.710  0.00  0.00    +0.183 C 
ATOM      4  C   LIG    1       21.314 -14.738   3.495  0.00  0.00    +0.045 C 
ATOM      5  C   LIG    1       21.198 -16.279   3.545  0.00  0.00    +0.008 C 
ATOM      6  C   LIG    1       22.648 -16.742   3.550  0.00  0.00    +0.002 C 
ATOM      7  C   LIG    1       22.998 -18.212   3.808  0.00  0.00    -0.003 C 
ATOM      8  C   LIG    1       22.461 -18.846   5.101  0.00  0.00    +0.008 C 
ATOM      9  C   LIG    1       22.909 -20.305   5.255  0.00  0.00    +0.032 C 
ATOM     10  C   LIG    1       24.412 -20.417   5.119  0.00  0.00    -0.060 C 
ATOM     11  C   LIG    1       25.002 -19.871   3.823  0.00  0.00    -0.007 C 
ATOM     12  C   LIG    1       24.457 -20.690   2.614  0.00  0.00    +0.016 C 
ATOM     13  C   LIG    1       26.550 -20.047   3.750  0.00  0.00    +0.019 C 
ATOM     14  C   LIG    1       27.288 -19.996   5.078  0.00  0.00    +0.080 C 
ATOM     15  C   LIG    1       26.626 -20.871   6.106  0.00  0.00    +0.156 C 
ATOM     16  O   LIG    1       27.260 -21.449   6.985  0.00  0.00    -0.293 OA
ATOM     17  C   LIG    1       25.147 -20.915   6.127  0.00  0.00    +0.046 C 
ATOM     18  C   LIG    1       24.550 -18.376   3.655  0.00  0.00    +0.002 C 
ATOM     19  C   LIG    1       25.293 -17.359   4.559  0.00  0.00    +0.005 C 
ATOM     20  C   LIG    1       24.889 -15.899   4.275  0.00  0.00    +0.011 C 
ENDROOT
BRANCH   3  21
ATOM     21  O   LIG    1       23.457 -14.197   2.429  0.00  0.00    -0.461 OA
BRANCH  21  22
ATOM     22  C   LIG    1       24.210 -13.071   2.286  0.00  0.00    +0.307 C 
ATOM     23  O   LIG    1       23.775 -11.927   2.335  0.00  0.00    -0.251 OA
BRANCH  22  24
ATOM     24  C   LIG    1       25.661 -13.449   2.060  0.00  0.00    +0.121 C 
BRANCH  24  25
ATOM     25  C   LIG    1       26.629 -12.341   2.495  0.00  0.00    +0.015 C 
BRANCH  25  26
ATOM     26  C   LIG    1       27.423 -12.692   3.761  0.00  0.00    -0.010 C 
ATOM     27  C   LIG    1       26.555 -12.895   5.007  0.00  0.00    +0.003 C 
ATOM     28  C   LIG    1       27.370 -13.843   5.872  0.00  0.00    +0.000 C 
ATOM     29  C   LIG    1       27.906 -14.840   4.860  0.00  0.00    +0.000 C 
ATOM     30  C   LIG    1       28.230 -13.999   3.625  0.00  0.00    +0.003 C 
ENDBRANCH  25  26
ENDBRANCH  24  25
ENDBRANCH  22  24
ENDBRANCH  21  22
ENDBRANCH   3  21
TORSDOF 5
ENDMDL
MODEL 6
REMARK VINA RESULT:      14.0      1.911      6.225
REMARK  Name = *****
REMARK                            x       y       z     vdW  Elec       q    Type
REMARK                         _______ _______ _______ _____ _____    ______ ____
ROOT
ATOM      1  C   LIG    1       25.967 -18.357   6.254  0.00  0.00    +0.015 C 
ATOM      2  C   LIG    1       25.926 -18.587   4.724  0.00  0.00    +0.008 C 
ATOM      3  C   LIG    1       26.151 -20.107   4.467  0.00  0.00    +0.183 C 
ATOM      4  C   LIG    1       27.689 -20.266   4.603  0.00  0.00    +0.045 C 
ATOM      5  C   LIG    1       28.302 -18.862   4.394  0.00  0.00    +0.008 C 
ATOM      6  C   LIG    1       27.120 -18.028   3.922  0.00  0.00    +0.002 C 
ATOM      7  C   LIG    1       27.240 -16.505   3.797  0.00  0.00    -0.003 C 
ATOM      8  C   LIG    1       27.692 -15.730   5.045  0.00  0.00    +0.008 C 
ATOM      9  C   LIG    1       27.738 -14.217   4.798  0.00  0.00    +0.032 C 
ATOM     10  C   LIG    1       26.418 -13.728   4.244  0.00  0.00    -0.060 C 
ATOM     11  C   LIG    1       25.945 -14.408   2.963  0.00  0.00    -0.007 C 
ATOM     12  C   LIG    1       26.959 -14.121   1.814  0.00  0.00    +0.016 C 
ATOM     13  C   LIG    1       24.593 -13.831   2.444  0.00  0.00    +0.019 C 
ATOM     14  C   LIG    1       23.634 -13.323   3.510  0.00  0.00    +0.080 C 
ATOM     15  C   LIG    1       24.336 -12.431   4.497  0.00  0.00    +0.156 C 
ATOM     16  O   LIG    1       23.772 -11.489   5.048  0.00  0.00    -0.293 OA
ATOM     17  C   LIG    1       25.709 -12.798   4.906  0.00  0.00    +0.046 C 
ATOM     18  C   LIG    1       25.893 -15.959   3.205  0.00  0.00    +0.002 C 
ATOM     19  C   LIG    1       24.691 -16.454   4.048  0.00  0.00    +0.005 C 
ATOM     20  C   LIG    1       24.630 -17.988   4.161  0.00  0.00    +0.011 C 
ENDROOT
BRANCH   3  21
ATOM     21  O   LIG    1       25.742 -20.445   3.120  0.00  0.00    -0.461 OA
BRANCH  21  22
ATOM     22  C   LIG    1       24.476 -20.924   2.963  0.00  0.00    +0.307 C 
ATOM     23  O   LIG    1       23.868 -20.959   1.900  0.00  0.00    -0.251 OA
BRANCH  22  24
ATOM     24  C   LIG    1       23.939 -21.403   4.297  0.00  0.00    +0.121 C 
BRANCH  24  25
ATOM     25  C   LIG    1       22.414 -21.569   4.289  0.00  0.00    +0.015 C 
BRANCH  25  26
ATOM     26  C   LIG    1       21.666 -20.326   4.790  0.00  0.00    -0.010 C 
ATOM     27  C   LIG    1       22.578 -19.231   5.351  0.00  0.00    +0.003 C 
ATOM     28  C   LIG    1       21.789 -17.950   5.135  0.00  0.00    +0.000 C 
ATOM     29  C   LIG    1       21.210 -18.146   3.745  0.00  0.00    +0.000 C 
ATOM     30  C   LIG    1       20.846 -19.630   3.685  0.00  0.00    +0.003 C 
ENDBRANCH  25  26
ENDBRANCH  24  25
ENDBRANCH  22  24
ENDBRANCH  21  22
ENDBRANCH   3  21
TORSDOF 5
ENDMDL
