MODEL 1
REMARK VINA RESULT:      -5.9      0.000      0.000
REMARK  Name = *****
REMARK                            x       y       z     vdW  Elec       q    Type
REMARK                         _______ _______ _______ _____ _____    ______ ____
ROOT
ATOM      1  C   LIG    1       24.310 -22.394   7.045  0.00  0.00    +0.188 C 
ENDROOT
BRANCH   1   2
ATOM      2  O   LIG    1       24.589 -21.532   8.180  0.00  0.00    -0.375 OA
BRANCH   2   3
ATOM      3  C   LIG    1       25.890 -20.990   8.518  0.00  0.00    +0.188 C 
BRANCH   3   4
ATOM      4  C   LIG    1       27.300 -21.963   8.319  0.00  0.00    +0.188 C 
BRANCH   4   5
ATOM      5  O   LIG    1       28.537 -21.291   8.603  0.00  0.00    -0.375 OA
BRANCH   5   6
ATOM      6  C   LIG    1       29.859 -21.489   8.019  0.00  0.00    +0.188 C 
BRANCH   6   7
ATOM      7  C   LIG    1       30.839 -21.785   9.128  0.00  0.00    +0.188 C 
BRANCH   7   8
ATOM      8  O   LIG    1       31.857 -20.780   9.157  0.00  0.00    -0.375 OA
BRANCH   8   9
ATOM      9  C   LIG    1       31.289 -19.472   9.235  0.00  0.00    +0.188 C 
BRANCH   9  10
ATOM     10  C   LIG    1       31.727 -18.473   8.108  0.00  0.00    +0.188 C 
BRANCH  10  11
ATOM     11  O   LIG    1       30.675 -18.015   7.239  0.00  0.00    -0.375 OA
BRANCH  11  12
ATOM     12  C   LIG    1       30.303 -18.886   6.132  0.00  0.00    +0.188 C 
BRANCH  12  13
ATOM     13  C   LIG    1       28.835 -18.752   5.671  0.00  0.00    +0.188 C 
BRANCH  13  14
ATOM     14  O   LIG    1       28.252 -19.978   5.191  0.00  0.00    -0.375 OA
BRANCH  14  15
ATOM     15  C   LIG    1       26.846 -20.144   5.521  0.00  0.00    +0.188 C 
BRANCH  15  16
ATOM     16  C   LIG    1       25.899 -19.646   4.392  0.00  0.00    +0.188 C 
BRANCH  16  17
ATOM     17  O   LIG    1       24.526 -20.046   4.378  0.00  0.00    -0.375 OA
BRANCH  17  18
ATOM     18  C   LIG    1       23.609 -19.239   3.623  0.00  0.00    +0.187 C 
BRANCH  18  19
ATOM     19  C   LIG    1       22.440 -18.872   4.517  0.00  0.00    +0.184 C 
BRANCH  19  20
ATOM     20  O   LIG    1       22.512 -19.566   5.759  0.00  0.00    -0.393 OA
ATOM     21  H   LIG    1       22.387 -18.902   6.464  0.00  0.00    +0.209 HD
ENDBRANCH  19  20
ENDBRANCH  18  19
ENDBRANCH  17  18
ENDBRANCH  16  17
ENDBRANCH  15  16
ENDBRANCH  14  15
ENDBRANCH  13  14
ENDBRANCH  12  13
ENDBRANCH  11  12
ENDBRANCH  10  11
ENDBRANCH   9  10
ENDBRANCH   8   9
ENDBRANCH   7   8
ENDBRANCH   6   7
ENDBRANCH   5   6
ENDBRANCH   4   5
ENDBRANCH   3   4
ENDBRANCH   2   3
ENDBRANCH   1   2
BRANCH   1  22
ATOM     22  C   LIG    1       22.875 -22.938   6.933  0.00  0.00    +0.188 C 
BRANCH  22  23
ATOM     23  O   LIG    1       22.876 -24.378   6.726  0.00  0.00    -0.375 OA
BRANCH  23  24
ATOM     24  C   LIG    1       24.183 -24.873   6.455  0.00  0.00    +0.188 C 
BRANCH  24  25
ATOM     25  C   LIG    1       24.222 -26.133   5.483  0.00  0.00    +0.188 C 
BRANCH  25  26
ATOM     26  O   LIG    1       24.111 -27.489   6.011  0.00  0.00    -0.375 OA
BRANCH  26  27
ATOM     27  C   LIG    1       24.379 -28.669   5.190  0.00  0.00    +0.188 C 
BRANCH  27  28
ATOM     28  C   LIG    1       24.692 -29.858   6.043  0.00  0.00    +0.188 C 
BRANCH  28  29
ATOM     29  O   LIG    1       23.825 -30.015   7.130  0.00  0.00    -0.378 OA
BRANCH  29  30
ATOM     30  C   LIG    1       24.419 -30.224   8.415  0.00  0.00    +0.160 C 
BRANCH  30  31
ATOM     31  C   LIG    1       25.813 -30.892   8.431  0.00  0.00    +0.028 C 
BRANCH  31  32
ATOM     32  C   LIG    1       26.801 -30.310   9.468  0.00  0.00    +0.002 C 
BRANCH  32  33
ATOM     33  C   LIG    1       26.664 -28.782   9.658  0.00  0.00    +0.000 C 
BRANCH  33  34
ATOM     34  C   LIG    1       27.172 -28.201  11.012  0.00  0.00    -0.000 C 
BRANCH  34  35
ATOM     35  C   LIG    1       26.112 -28.020  12.108  0.00  0.00    -0.000 C 
BRANCH  35  36
ATOM     36  C   LIG    1       24.790 -28.830  12.019  0.00  0.00    -0.000 C 
BRANCH  36  37
ATOM     37  C   LIG    1       23.767 -28.760  13.178  0.00  0.00    -0.000 C 
BRANCH  37  38
ATOM     38  C   LIG    1       22.470 -27.982  12.863  0.00  0.00    -0.000 C 
BRANCH  38  39
ATOM     39  C   LIG    1       22.441 -26.546  13.430  0.00  0.00    -0.000 C 
BRANCH  39  41
ATOM     40  C   LIG    1       24.601 -25.158  13.820  0.00  0.00    +0.004 C 
ATOM     41  C   LIG    1       23.597 -26.157  14.378  0.00  0.00    -0.003 C 
ENDBRANCH  39  41
ENDBRANCH  38  39
ENDBRANCH  37  38
ENDBRANCH  36  37
ENDBRANCH  35  36
ENDBRANCH  34  35
ENDBRANCH  33  34
ENDBRANCH  32  33
ENDBRANCH  31  32
ENDBRANCH  30  31
ENDBRANCH  29  30
ENDBRANCH  28  29
ENDBRANCH  27  28
ENDBRANCH  26  27
ENDBRANCH  25  26
ENDBRANCH  24  25
ENDBRANCH  23  24
ENDBRANCH  22  23
ENDBRANCH   1  22
TORSDOF 38
ENDMDL
MODEL 2
REMARK VINA RESULT:      -5.8      2.113      6.661
REMARK  Name = *****
REMARK                            x       y       z     vdW  Elec       q    Type
REMARK                         _______ _______ _______ _____ _____    ______ ____
ROOT
ATOM      1  C   LIG    1       25.102 -31.167   5.670  0.00  0.00    +0.188 C 
ENDROOT
BRANCH   1   2
ATOM      2  O   LIG    1       25.347 -29.752   5.454  0.00  0.00    -0.375 OA
BRANCH   2   3
ATOM      3  C   LIG    1       24.718 -28.673   6.188  0.00  0.00    +0.188 C 
BRANCH   3   4
ATOM      4  C   LIG    1       25.616 -27.244   6.546  0.00  0.00    +0.188 C 
BRANCH   4   5
ATOM      5  O   LIG    1       25.811 -26.364   5.428  0.00  0.00    -0.375 OA
BRANCH   5   6
ATOM      6  C   LIG    1       25.179 -25.084   5.132  0.00  0.00    +0.188 C 
BRANCH   6   7
ATOM      7  C   LIG    1       24.241 -24.734   6.261  0.00  0.00    +0.188 C 
BRANCH   7   8
ATOM      8  O   LIG    1       24.676 -23.529   6.898  0.00  0.00    -0.375 OA
BRANCH   8   9
ATOM      9  C   LIG    1       23.600 -22.599   7.034  0.00  0.00    +0.188 C 
BRANCH   9  10
ATOM     10  C   LIG    1       24.006 -21.152   7.483  0.00  0.00    +0.188 C 
BRANCH  10  11
ATOM     11  O   LIG    1       25.250 -20.662   6.949  0.00  0.00    -0.375 OA
BRANCH  11  12
ATOM     12  C   LIG    1       26.347 -20.472   7.888  0.00  0.00    +0.188 C 
BRANCH  12  13
ATOM     13  C   LIG    1       27.755 -20.519   7.256  0.00  0.00    +0.188 C 
BRANCH  13  14
ATOM     14  O   LIG    1       28.784 -19.916   8.061  0.00  0.00    -0.375 OA
BRANCH  14  15
ATOM     15  C   LIG    1       29.911 -20.789   8.347  0.00  0.00    +0.188 C 
BRANCH  15  16
ATOM     16  C   LIG    1       31.272 -20.035   8.355  0.00  0.00    +0.188 C 
BRANCH  16  17
ATOM     17  O   LIG    1       31.699 -19.341   9.530  0.00  0.00    -0.375 OA
BRANCH  17  18
ATOM     18  C   LIG    1       31.400 -17.939   9.616  0.00  0.00    +0.187 C 
BRANCH  18  19
ATOM     19  C   LIG    1       30.335 -17.736  10.676  0.00  0.00    +0.184 C 
BRANCH  19  20
ATOM     20  O   LIG    1       30.330 -16.390  11.142  0.00  0.00    -0.393 OA
ATOM     21  H   LIG    1       30.795 -16.383  11.999  0.00  0.00    +0.209 HD
ENDBRANCH  19  20
ENDBRANCH  18  19
ENDBRANCH  17  18
ENDBRANCH  16  17
ENDBRANCH  15  16
ENDBRANCH  14  15
ENDBRANCH  13  14
ENDBRANCH  12  13
ENDBRANCH  11  12
ENDBRANCH  10  11
ENDBRANCH   9  10
ENDBRANCH   8   9
ENDBRANCH   7   8
ENDBRANCH   6   7
ENDBRANCH   5   6
ENDBRANCH   4   5
ENDBRANCH   3   4
ENDBRANCH   2   3
ENDBRANCH   1   2
BRANCH   1  22
ATOM     22  C   LIG    1       26.291 -32.114   5.433  0.00  0.00    +0.188 C 
BRANCH  22  23
ATOM     23  O   LIG    1       26.282 -33.216   6.383  0.00  0.00    -0.375 OA
BRANCH  23  24
ATOM     24  C   LIG    1       27.480 -33.265   7.149  0.00  0.00    +0.188 C 
BRANCH  24  25
ATOM     25  C   LIG    1       27.261 -33.177   8.723  0.00  0.00    +0.188 C 
BRANCH  25  26
ATOM     26  O   LIG    1       27.183 -31.884   9.397  0.00  0.00    -0.375 OA
BRANCH  26  27
ATOM     27  C   LIG    1       26.150 -30.900   9.077  0.00  0.00    +0.188 C 
BRANCH  27  28
ATOM     28  C   LIG    1       26.602 -29.515   9.421  0.00  0.00    +0.188 C 
BRANCH  28  29
ATOM     29  O   LIG    1       27.787 -29.478  10.163  0.00  0.00    -0.378 OA
BRANCH  29  30
ATOM     30  C   LIG    1       27.760 -28.765  11.403  0.00  0.00    +0.160 C 
BRANCH  30  31
ATOM     31  C   LIG    1       26.636 -27.717  11.573  0.00  0.00    +0.028 C 
BRANCH  31  32
ATOM     32  C   LIG    1       26.869 -26.691  12.705  0.00  0.00    +0.002 C 
BRANCH  32  33
ATOM     33  C   LIG    1       25.816 -26.770  13.834  0.00  0.00    +0.000 C 
BRANCH  33  34
ATOM     34  C   LIG    1       24.468 -26.031  13.581  0.00  0.00    -0.000 C 
BRANCH  34  35
ATOM     35  C   LIG    1       23.198 -26.787  13.995  0.00  0.00    -0.000 C 
BRANCH  35  36
ATOM     36  C   LIG    1       21.864 -26.479  13.260  0.00  0.00    -0.000 C 
BRANCH  36  37
ATOM     37  C   LIG    1       20.953 -27.643  12.802  0.00  0.00    -0.000 C 
BRANCH  37  38
ATOM     38  C   LIG    1       21.513 -29.059  13.067  0.00  0.00    -0.000 C 
BRANCH  38  39
ATOM     39  C   LIG    1       22.064 -29.766  11.809  0.00  0.00    -0.000 C 
BRANCH  39  41
ATOM     40  C   LIG    1       24.438 -30.478  12.586  0.00  0.00    +0.004 C 
ATOM     41  C   LIG    1       23.592 -29.694  11.592  0.00  0.00    -0.003 C 
ENDBRANCH  39  41
ENDBRANCH  38  39
ENDBRANCH  37  38
ENDBRANCH  36  37
ENDBRANCH  35  36
ENDBRANCH  34  35
ENDBRANCH  33  34
ENDBRANCH  32  33
ENDBRANCH  31  32
ENDBRANCH  30  31
ENDBRANCH  29  30
ENDBRANCH  28  29
ENDBRANCH  27  28
ENDBRANCH  26  27
ENDBRANCH  25  26
ENDBRANCH  24  25
ENDBRANCH  23  24
ENDBRANCH  22  23
ENDBRANCH   1  22
TORSDOF 38
ENDMDL
MODEL 3
REMARK VINA RESULT:      -5.7      2.898     10.802
REMARK  Name = *****
REMARK                            x       y       z     vdW  Elec       q    Type
REMARK                         _______ _______ _______ _____ _____    ______ ____
ROOT
ATOM      1  C   LIG    1       25.232 -30.067   5.681  0.00  0.00    +0.188 C 
ENDROOT
BRANCH   1   2
ATOM      2  O   LIG    1       25.551 -31.283   6.407  0.00  0.00    -0.375 OA
BRANCH   2   3
ATOM      3  C   LIG    1       24.592 -32.292   6.812  0.00  0.00    +0.188 C 
BRANCH   3   4
ATOM      4  C   LIG    1       23.977 -32.290   8.424  0.00  0.00    +0.188 C 
BRANCH   4   5
ATOM      5  O   LIG    1       23.075 -31.212   8.719  0.00  0.00    -0.375 OA
BRANCH   5   6
ATOM      6  C   LIG    1       23.018 -30.340   9.887  0.00  0.00    +0.188 C 
BRANCH   6   7
ATOM      7  C   LIG    1       23.270 -31.169  11.123  0.00  0.00    +0.188 C 
BRANCH   7   8
ATOM      8  O   LIG    1       22.064 -31.284  11.884  0.00  0.00    -0.375 OA
BRANCH   8   9
ATOM      9  C   LIG    1       21.195 -30.175  11.645  0.00  0.00    +0.188 C 
BRANCH   9  10
ATOM     10  C   LIG    1       21.345 -28.969  12.635  0.00  0.00    +0.188 C 
BRANCH  10  11
ATOM     11  O   LIG    1       22.055 -29.251  13.855  0.00  0.00    -0.375 OA
BRANCH  11  12
ATOM     12  C   LIG    1       22.994 -28.241  14.326  0.00  0.00    +0.188 C 
BRANCH  12  13
ATOM     13  C   LIG    1       23.365 -27.167  13.280  0.00  0.00    +0.188 C 
BRANCH  13  14
ATOM     14  O   LIG    1       24.686 -26.618  13.439  0.00  0.00    -0.375 OA
BRANCH  14  15
ATOM     15  C   LIG    1       25.730 -27.613  13.624  0.00  0.00    +0.188 C 
BRANCH  15  16
ATOM     16  C   LIG    1       26.961 -27.373  12.703  0.00  0.00    +0.188 C 
BRANCH  16  17
ATOM     17  O   LIG    1       26.829 -27.490  11.284  0.00  0.00    -0.375 OA
BRANCH  17  18
ATOM     18  C   LIG    1       26.248 -28.699  10.771  0.00  0.00    +0.187 C 
BRANCH  18  19
ATOM     19  C   LIG    1       26.401 -28.706   9.262  0.00  0.00    +0.184 C 
BRANCH  19  20
ATOM     20  O   LIG    1       26.705 -30.015   8.788  0.00  0.00    -0.393 OA
ATOM     21  H   LIG    1       25.989 -30.269   8.175  0.00  0.00    +0.209 HD
ENDBRANCH  19  20
ENDBRANCH  18  19
ENDBRANCH  17  18
ENDBRANCH  16  17
ENDBRANCH  15  16
ENDBRANCH  14  15
ENDBRANCH  13  14
ENDBRANCH  12  13
ENDBRANCH  11  12
ENDBRANCH  10  11
ENDBRANCH   9  10
ENDBRANCH   8   9
ENDBRANCH   7   8
ENDBRANCH   6   7
ENDBRANCH   5   6
ENDBRANCH   4   5
ENDBRANCH   3   4
ENDBRANCH   2   3
ENDBRANCH   1   2
BRANCH   1  22
ATOM     22  C   LIG    1       24.185 -29.140   6.321  0.00  0.00    +0.188 C 
BRANCH  22  23
ATOM     23  O   LIG    1       24.346 -27.769   5.858  0.00  0.00    -0.375 OA
BRANCH  23  24
ATOM     24  C   LIG    1       25.615 -27.563   5.248  0.00  0.00    +0.188 C 
BRANCH  24  25
ATOM     25  C   LIG    1       26.444 -26.343   5.847  0.00  0.00    +0.188 C 
BRANCH  25  26
ATOM     26  O   LIG    1       25.865 -25.475   6.869  0.00  0.00    -0.375 OA
BRANCH  26  27
ATOM     27  C   LIG    1       25.037 -24.318   6.530  0.00  0.00    +0.188 C 
BRANCH  27  28
ATOM     28  C   LIG    1       23.589 -24.690   6.475  0.00  0.00    +0.188 C 
BRANCH  28  29
ATOM     29  O   LIG    1       22.724 -23.637   6.794  0.00  0.00    -0.378 OA
BRANCH  29  30
ATOM     30  C   LIG    1       23.231 -22.307   6.644  0.00  0.00    +0.160 C 
BRANCH  30  31
ATOM     31  C   LIG    1       22.499 -21.400   5.628  0.00  0.00    +0.028 C 
BRANCH  31  32
ATOM     32  C   LIG    1       22.848 -19.897   5.730  0.00  0.00    +0.002 C 
BRANCH  32  33
ATOM     33  C   LIG    1       22.969 -19.199   4.356  0.00  0.00    +0.000 C 
BRANCH  33  34
ATOM     34  C   LIG    1       24.396 -19.124   3.737  0.00  0.00    -0.000 C 
BRANCH  34  35
ATOM     35  C   LIG    1       25.367 -20.242   4.142  0.00  0.00    -0.000 C 
BRANCH  35  36
ATOM     36  C   LIG    1       26.566 -19.900   5.068  0.00  0.00    -0.000 C 
BRANCH  36  37
ATOM     37  C   LIG    1       26.726 -20.633   6.421  0.00  0.00    -0.000 C 
BRANCH  37  38
ATOM     38  C   LIG    1       28.183 -20.808   6.905  0.00  0.00    -0.000 C 
BRANCH  38  39
ATOM     39  C   LIG    1       28.960 -19.483   7.063  0.00  0.00    -0.000 C 
BRANCH  39  41
ATOM     40  C   LIG    1       31.361 -18.795   7.775  0.00  0.00    +0.004 C 
ATOM     41  C   LIG    1       30.479 -19.538   6.782  0.00  0.00    -0.003 C 
ENDBRANCH  39  41
ENDBRANCH  38  39
ENDBRANCH  37  38
ENDBRANCH  36  37
ENDBRANCH  35  36
ENDBRANCH  34  35
ENDBRANCH  33  34
ENDBRANCH  32  33
ENDBRANCH  31  32
ENDBRANCH  30  31
ENDBRANCH  29  30
ENDBRANCH  28  29
ENDBRANCH  27  28
ENDBRANCH  26  27
ENDBRANCH  25  26
ENDBRANCH  24  25
ENDBRANCH  23  24
ENDBRANCH  22  23
ENDBRANCH   1  22
TORSDOF 38
ENDMDL
MODEL 4
REMARK VINA RESULT:      -5.7      3.104     11.491
REMARK  Name = *****
REMARK                            x       y       z     vdW  Elec       q    Type
REMARK                         _______ _______ _______ _____ _____    ______ ____
ROOT
ATOM      1  C   LIG    1       24.031 -24.022   6.635  0.00  0.00    +0.188 C 
ENDROOT
BRANCH   1   2
ATOM      2  O   LIG    1       23.685 -25.380   6.252  0.00  0.00    -0.375 OA
BRANCH   2   3
ATOM      3  C   LIG    1       24.453 -26.217   5.352  0.00  0.00    +0.188 C 
BRANCH   3   4
ATOM      4  C   LIG    1       25.011 -27.759   5.886  0.00  0.00    +0.188 C 
BRANCH   4   5
ATOM      5  O   LIG    1       24.017 -28.796   5.865  0.00  0.00    -0.375 OA
BRANCH   5   6
ATOM      6  C   LIG    1       24.088 -30.164   6.365  0.00  0.00    +0.188 C 
BRANCH   6   7
ATOM      7  C   LIG    1       25.110 -30.220   7.475  0.00  0.00    +0.188 C 
BRANCH   7   8
ATOM      8  O   LIG    1       25.085 -31.510   8.092  0.00  0.00    -0.375 OA
BRANCH   8   9
ATOM      9  C   LIG    1       24.331 -31.488   9.306  0.00  0.00    +0.188 C 
BRANCH   9  10
ATOM     10  C   LIG    1       22.883 -32.082   9.217  0.00  0.00    +0.188 C 
BRANCH  10  11
ATOM     11  O   LIG    1       21.839 -31.264   9.778  0.00  0.00    -0.375 OA
BRANCH  11  12
ATOM     12  C   LIG    1       21.762 -31.190  11.231  0.00  0.00    +0.188 C 
BRANCH  12  13
ATOM     13  C   LIG    1       21.526 -29.772  11.794  0.00  0.00    +0.188 C 
BRANCH  13  14
ATOM     14  O   LIG    1       20.396 -29.668  12.679  0.00  0.00    -0.375 OA
BRANCH  14  15
ATOM     15  C   LIG    1       19.864 -30.945  13.126  0.00  0.00    +0.188 C 
BRANCH  15  16
ATOM     16  C   LIG    1       18.314 -30.939  13.262  0.00  0.00    +0.188 C 
BRANCH  16  17
ATOM     17  O   LIG    1       17.495 -31.293  12.145  0.00  0.00    -0.375 OA
BRANCH  17  18
ATOM     18  C   LIG    1       18.081 -32.127  11.133  0.00  0.00    +0.187 C 
BRANCH  18  19
ATOM     19  C   LIG    1       18.002 -31.400   9.804  0.00  0.00    +0.184 C 
BRANCH  19  20
ATOM     20  O   LIG    1       18.885 -30.283   9.782  0.00  0.00    -0.393 OA
ATOM     21  H   LIG    1       19.210 -30.195   8.865  0.00  0.00    +0.209 HD
ENDBRANCH  19  20
ENDBRANCH  18  19
ENDBRANCH  17  18
ENDBRANCH  16  17
ENDBRANCH  15  16
ENDBRANCH  14  15
ENDBRANCH  13  14
ENDBRANCH  12  13
ENDBRANCH  11  12
ENDBRANCH  10  11
ENDBRANCH   9  10
ENDBRANCH   8   9
ENDBRANCH   7   8
ENDBRANCH   6   7
ENDBRANCH   5   6
ENDBRANCH   4   5
ENDBRANCH   3   4
ENDBRANCH   2   3
ENDBRANCH   1   2
BRANCH   1  22
ATOM     22  C   LIG    1       22.863 -23.035   6.792  0.00  0.00    +0.188 C 
BRANCH  22  23
ATOM     23  O   LIG    1       23.185 -21.991   7.754  0.00  0.00    -0.375 OA
BRANCH  23  24
ATOM     24  C   LIG    1       23.293 -20.715   7.133  0.00  0.00    +0.188 C 
BRANCH  24  25
ATOM     25  C   LIG    1       22.556 -20.601   5.727  0.00  0.00    +0.188 C 
BRANCH  25  26
ATOM     26  O   LIG    1       22.496 -19.329   5.014  0.00  0.00    -0.375 OA
BRANCH  26  27
ATOM     27  C   LIG    1       23.387 -19.019   3.897  0.00  0.00    +0.188 C 
BRANCH  27  28
ATOM     28  C   LIG    1       24.289 -20.173   3.592  0.00  0.00    +0.188 C 
BRANCH  28  29
ATOM     29  O   LIG    1       25.635 -19.816   3.458  0.00  0.00    -0.378 OA
BRANCH  29  30
ATOM     30  C   LIG    1       26.392 -19.655   4.661  0.00  0.00    +0.160 C 
BRANCH  30  31
ATOM     31  C   LIG    1       26.267 -20.783   5.711  0.00  0.00    +0.028 C 
BRANCH  31  32
ATOM     32  C   LIG    1       26.825 -20.433   7.110  0.00  0.00    +0.002 C 
BRANCH  32  33
ATOM     33  C   LIG    1       27.771 -21.512   7.682  0.00  0.00    +0.000 C 
BRANCH  33  34
ATOM     34  C   LIG    1       29.291 -21.171   7.691  0.00  0.00    -0.000 C 
BRANCH  34  35
ATOM     35  C   LIG    1       29.665 -19.747   7.257  0.00  0.00    -0.000 C 
BRANCH  35  36
ATOM     36  C   LIG    1       31.144 -19.287   7.372  0.00  0.00    -0.000 C 
BRANCH  36  37
ATOM     37  C   LIG    1       31.561 -18.312   8.498  0.00  0.00    -0.000 C 
BRANCH  37  38
ATOM     38  C   LIG    1       30.396 -17.554   9.175  0.00  0.00    -0.000 C 
BRANCH  38  39
ATOM     39  C   LIG    1       30.492 -17.493  10.715  0.00  0.00    -0.000 C 
BRANCH  39  41
ATOM     40  C   LIG    1       31.966 -16.607  12.661  0.00  0.00    +0.004 C 
ATOM     41  C   LIG    1       31.326 -16.335  11.307  0.00  0.00    -0.003 C 
ENDBRANCH  39  41
ENDBRANCH  38  39
ENDBRANCH  37  38
ENDBRANCH  36  37
ENDBRANCH  35  36
ENDBRANCH  34  35
ENDBRANCH  33  34
ENDBRANCH  32  33
ENDBRANCH  31  32
ENDBRANCH  30  31
ENDBRANCH  29  30
ENDBRANCH  28  29
ENDBRANCH  27  28
ENDBRANCH  26  27
ENDBRANCH  25  26
ENDBRANCH  24  25
ENDBRANCH  23  24
ENDBRANCH  22  23
ENDBRANCH   1  22
TORSDOF 38
ENDMDL
MODEL 5
REMARK VINA RESULT:      -5.6      2.766     10.959
REMARK  Name = *****
REMARK                            x       y       z     vdW  Elec       q    Type
REMARK                         _______ _______ _______ _____ _____    ______ ____
ROOT
ATOM      1  C   LIG    1       26.278 -26.364   5.919  0.00  0.00    +0.188 C 
ENDROOT
BRANCH   1   2
ATOM      2  O   LIG    1       25.862 -27.508   6.709  0.00  0.00    -0.375 OA
BRANCH   2   3
ATOM      3  C   LIG    1       24.629 -28.248   6.526  0.00  0.00    +0.188 C 
BRANCH   3   4
ATOM      4  C   LIG    1       24.617 -29.958   6.754  0.00  0.00    +0.188 C 
BRANCH   4   5
ATOM      5  O   LIG    1       23.646 -30.429   7.702  0.00  0.00    -0.375 OA
BRANCH   5   6
ATOM      6  C   LIG    1       23.666 -31.623   8.539  0.00  0.00    +0.188 C 
BRANCH   6   7
ATOM      7  C   LIG    1       23.220 -31.247   9.931  0.00  0.00    +0.188 C 
BRANCH   7   8
ATOM      8  O   LIG    1       21.956 -30.581   9.872  0.00  0.00    -0.375 OA
BRANCH   8   9
ATOM      9  C   LIG    1       21.204 -30.792  11.068  0.00  0.00    +0.188 C 
BRANCH   9  10
ATOM     10  C   LIG    1       21.134 -29.571  12.050  0.00  0.00    +0.188 C 
BRANCH  10  11
ATOM     11  O   LIG    1       22.034 -29.623  13.172  0.00  0.00    -0.375 OA
BRANCH  11  12
ATOM     12  C   LIG    1       22.963 -28.512  13.330  0.00  0.00    +0.188 C 
BRANCH  12  13
ATOM     13  C   LIG    1       24.031 -28.714  14.427  0.00  0.00    +0.188 C 
BRANCH  13  14
ATOM     14  O   LIG    1       24.919 -27.595  14.600  0.00  0.00    -0.375 OA
BRANCH  14  15
ATOM     15  C   LIG    1       26.327 -27.911  14.422  0.00  0.00    +0.188 C 
BRANCH  15  16
ATOM     16  C   LIG    1       27.026 -26.987  13.383  0.00  0.00    +0.188 C 
BRANCH  16  17
ATOM     17  O   LIG    1       26.730 -27.121  11.991  0.00  0.00    -0.375 OA
BRANCH  17  18
ATOM     18  C   LIG    1       27.204 -28.301  11.324  0.00  0.00    +0.187 C 
BRANCH  18  19
ATOM     19  C   LIG    1       26.483 -28.428   9.996  0.00  0.00    +0.184 C 
BRANCH  19  20
ATOM     20  O   LIG    1       27.252 -29.190   9.070  0.00  0.00    -0.393 OA
ATOM     21  H   LIG    1       28.059 -29.477   9.539  0.00  0.00    +0.209 HD
ENDBRANCH  19  20
ENDBRANCH  18  19
ENDBRANCH  17  18
ENDBRANCH  16  17
ENDBRANCH  15  16
ENDBRANCH  14  15
ENDBRANCH  13  14
ENDBRANCH  12  13
ENDBRANCH  11  12
ENDBRANCH  10  11
ENDBRANCH   9  10
ENDBRANCH   8   9
ENDBRANCH   7   8
ENDBRANCH   6   7
ENDBRANCH   5   6
ENDBRANCH   4   5
ENDBRANCH   3   4
ENDBRANCH   2   3
ENDBRANCH   1   2
BRANCH   1  22
ATOM     22  C   LIG    1       25.219 -25.751   4.987  0.00  0.00    +0.188 C 
BRANCH  22  23
ATOM     23  O   LIG    1       24.957 -24.362   5.332  0.00  0.00    -0.375 OA
BRANCH  23  24
ATOM     24  C   LIG    1       24.209 -24.249   6.538  0.00  0.00    +0.188 C 
BRANCH  24  25
ATOM     25  C   LIG    1       24.506 -22.928   7.375  0.00  0.00    +0.188 C 
BRANCH  25  26
ATOM     26  O   LIG    1       23.439 -21.977   7.676  0.00  0.00    -0.375 OA
BRANCH  26  27
ATOM     27  C   LIG    1       23.198 -20.792   6.855  0.00  0.00    +0.188 C 
BRANCH  27  28
ATOM     28  C   LIG    1       22.577 -21.162   5.545  0.00  0.00    +0.188 C 
BRANCH  28  29
ATOM     29  O   LIG    1       23.311 -20.733   4.433  0.00  0.00    -0.378 OA
BRANCH  29  30
ATOM     30  C   LIG    1       24.721 -20.977   4.447  0.00  0.00    +0.160 C 
BRANCH  30  31
ATOM     31  C   LIG    1       25.637 -19.744   4.272  0.00  0.00    +0.028 C 
BRANCH  31  32
ATOM     32  C   LIG    1       26.983 -19.823   5.027  0.00  0.00    +0.002 C 
BRANCH  32  33
ATOM     33  C   LIG    1       26.836 -20.249   6.505  0.00  0.00    +0.000 C 
BRANCH  33  34
ATOM     34  C   LIG    1       28.145 -20.653   7.247  0.00  0.00    -0.000 C 
BRANCH  34  35
ATOM     35  C   LIG    1       29.456 -20.156   6.620  0.00  0.00    -0.000 C 
BRANCH  35  36
ATOM     36  C   LIG    1       30.276 -19.062   7.357  0.00  0.00    -0.000 C 
BRANCH  36  37
ATOM     37  C   LIG    1       30.024 -18.794   8.860  0.00  0.00    -0.000 C 
BRANCH  37  38
ATOM     38  C   LIG    1       30.154 -17.316   9.294  0.00  0.00    -0.000 C 
BRANCH  38  39
ATOM     39  C   LIG    1       30.576 -17.126  10.768  0.00  0.00    -0.000 C 
BRANCH  39  41
ATOM     40  C   LIG    1       32.802 -16.163   9.840  0.00  0.00    +0.004 C 
ATOM     41  C   LIG    1       32.059 -16.773  11.020  0.00  0.00    -0.003 C 
ENDBRANCH  39  41
ENDBRANCH  38  39
ENDBRANCH  37  38
ENDBRANCH  36  37
ENDBRANCH  35  36
ENDBRANCH  34  35
ENDBRANCH  33  34
ENDBRANCH  32  33
ENDBRANCH  31  32
ENDBRANCH  30  31
ENDBRANCH  29  30
ENDBRANCH  28  29
ENDBRANCH  27  28
ENDBRANCH  26  27
ENDBRANCH  25  26
ENDBRANCH  24  25
ENDBRANCH  23  24
ENDBRANCH  22  23
ENDBRANCH   1  22
TORSDOF 38
ENDMDL
MODEL 6
REMARK VINA RESULT:      -5.6      3.139     11.181
REMARK  Name = *****
REMARK                            x       y       z     vdW  Elec       q    Type
REMARK                         _______ _______ _______ _____ _____    ______ ____
ROOT
ATOM      1  C   LIG    1       24.426 -29.346   7.489  0.00  0.00    +0.188 C 
ENDROOT
BRANCH   1   2
ATOM      2  O   LIG    1       24.462 -30.062   8.751  0.00  0.00    -0.375 OA
BRANCH   2   3
ATOM      3  C   LIG    1       23.698 -31.255   9.058  0.00  0.00    +0.188 C 
BRANCH   3   4
ATOM      4  C   LIG    1       22.551 -31.228  10.347  0.00  0.00    +0.188 C 
BRANCH   4   5
ATOM      5  O   LIG    1       21.181 -31.341   9.932  0.00  0.00    -0.375 OA
BRANCH   5   6
ATOM      6  C   LIG    1       19.973 -30.819  10.560  0.00  0.00    +0.188 C 
BRANCH   6   7
ATOM      7  C   LIG    1       19.636 -31.681  11.753  0.00  0.00    +0.188 C 
BRANCH   7   8
ATOM      8  O   LIG    1       18.976 -30.894  12.748  0.00  0.00    -0.375 OA
BRANCH   8   9
ATOM      9  C   LIG    1       19.893 -30.023  13.411  0.00  0.00    +0.188 C 
BRANCH   9  10
ATOM     10  C   LIG    1       19.249 -28.816  14.177  0.00  0.00    +0.188 C 
BRANCH  10  11
ATOM     11  O   LIG    1       20.173 -27.951  14.865  0.00  0.00    -0.375 OA
BRANCH  11  12
ATOM     12  C   LIG    1       20.527 -26.701  14.206  0.00  0.00    +0.188 C 
BRANCH  12  13
ATOM     13  C   LIG    1       21.696 -26.808  13.203  0.00  0.00    +0.188 C 
BRANCH  13  14
ATOM     14  O   LIG    1       22.921 -27.303  13.773  0.00  0.00    -0.375 OA
BRANCH  14  15
ATOM     15  C   LIG    1       23.282 -28.646  13.348  0.00  0.00    +0.188 C 
BRANCH  15  16
ATOM     16  C   LIG    1       24.804 -28.801  13.067  0.00  0.00    +0.188 C 
BRANCH  16  17
ATOM     17  O   LIG    1       25.274 -28.944  11.725  0.00  0.00    -0.375 OA
BRANCH  17  18
ATOM     18  C   LIG    1       26.485 -28.257  11.371  0.00  0.00    +0.187 C 
BRANCH  18  19
ATOM     19  C   LIG    1       27.393 -29.226  10.638  0.00  0.00    +0.184 C 
BRANCH  19  20
ATOM     20  O   LIG    1       27.262 -29.076   9.227  0.00  0.00    -0.393 OA
ATOM     21  H   LIG    1       26.313 -29.171   9.018  0.00  0.00    +0.209 HD
ENDBRANCH  19  20
ENDBRANCH  18  19
ENDBRANCH  17  18
ENDBRANCH  16  17
ENDBRANCH  15  16
ENDBRANCH  14  15
ENDBRANCH  13  14
ENDBRANCH  12  13
ENDBRANCH  11  12
ENDBRANCH  10  11
ENDBRANCH   9  10
ENDBRANCH   8   9
ENDBRANCH   7   8
ENDBRANCH   6   7
ENDBRANCH   5   6
ENDBRANCH   4   5
ENDBRANCH   3   4
ENDBRANCH   2   3
ENDBRANCH   1   2
BRANCH   1  22
ATOM     22  C   LIG    1       24.559 -30.194   6.213  0.00  0.00    +0.188 C 
BRANCH  22  23
ATOM     23  O   LIG    1       24.959 -29.376   5.079  0.00  0.00    -0.375 OA
BRANCH  23  24
ATOM     24  C   LIG    1       24.857 -27.986   5.367  0.00  0.00    +0.188 C 
BRANCH  24  25
ATOM     25  C   LIG    1       26.237 -27.196   5.301  0.00  0.00    +0.188 C 
BRANCH  25  26
ATOM     26  O   LIG    1       26.267 -25.737   5.339  0.00  0.00    -0.375 OA
BRANCH  26  27
ATOM     27  C   LIG    1       25.061 -24.928   5.163  0.00  0.00    +0.188 C 
BRANCH  27  28
ATOM     28  C   LIG    1       24.508 -24.493   6.484  0.00  0.00    +0.188 C 
BRANCH  28  29
ATOM     29  O   LIG    1       23.111 -24.554   6.556  0.00  0.00    -0.378 OA
BRANCH  29  30
ATOM     30  C   LIG    1       22.420 -23.343   6.875  0.00  0.00    +0.160 C 
BRANCH  30  31
ATOM     31  C   LIG    1       23.297 -22.111   7.197  0.00  0.00    +0.028 C 
BRANCH  31  32
ATOM     32  C   LIG    1       23.061 -20.888   6.282  0.00  0.00    +0.002 C 
BRANCH  32  33
ATOM     33  C   LIG    1       24.344 -20.390   5.577  0.00  0.00    +0.000 C 
BRANCH  33  34
ATOM     34  C   LIG    1       25.672 -21.110   5.959  0.00  0.00    -0.000 C 
BRANCH  34  35
ATOM     35  C   LIG    1       26.530 -20.420   7.028  0.00  0.00    -0.000 C 
BRANCH  35  36
ATOM     36  C   LIG    1       28.071 -20.370   6.841  0.00  0.00    -0.000 C 
BRANCH  36  37
ATOM     37  C   LIG    1       28.954 -19.684   7.911  0.00  0.00    -0.000 C 
BRANCH  37  38
ATOM     38  C   LIG    1       30.216 -18.977   7.367  0.00  0.00    -0.000 C 
BRANCH  38  39
ATOM     39  C   LIG    1       30.957 -18.116   8.412  0.00  0.00    -0.000 C 
BRANCH  39  41
ATOM     40  C   LIG    1       30.881 -16.817  10.660  0.00  0.00    +0.004 C 
ATOM     41  C   LIG    1       30.116 -17.598   9.600  0.00  0.00    -0.003 C 
ENDBRANCH  39  41
ENDBRANCH  38  39
ENDBRANCH  37  38
ENDBRANCH  36  37
ENDBRANCH  35  36
ENDBRANCH  34  35
ENDBRANCH  33  34
ENDBRANCH  32  33
ENDBRANCH  31  32
ENDBRANCH  30  31
ENDBRANCH  29  30
ENDBRANCH  28  29
ENDBRANCH  27  28
ENDBRANCH  26  27
ENDBRANCH  25  26
ENDBRANCH  24  25
ENDBRANCH  23  24
ENDBRANCH  22  23
ENDBRANCH   1  22
TORSDOF 38
ENDMDL
MODEL 7
REMARK VINA RESULT:      -5.6      1.240      3.082
REMARK  Name = *****
REMARK                            x       y       z     vdW  Elec       q    Type
REMARK                         _______ _______ _______ _____ _____    ______ ____
ROOT
ATOM      1  C   LIG    1       26.645 -20.965   8.285  0.00  0.00    +0.188 C 
ENDROOT
BRANCH   1   2
ATOM      2  O   LIG    1       28.045 -20.745   8.599  0.00  0.00    -0.375 OA
BRANCH   2   3
ATOM      3  C   LIG    1       29.145 -21.567   8.136  0.00  0.00    +0.188 C 
BRANCH   3   4
ATOM      4  C   LIG    1       30.722 -21.336   8.797  0.00  0.00    +0.188 C 
BRANCH   4   5
ATOM      5  O   LIG    1       30.924 -20.066   9.434  0.00  0.00    -0.375 OA
BRANCH   5   6
ATOM      6  C   LIG    1       31.482 -18.832   8.892  0.00  0.00    +0.188 C 
BRANCH   6   7
ATOM      7  C   LIG    1       30.415 -18.129   8.089  0.00  0.00    +0.188 C 
BRANCH   7   8
ATOM      8  O   LIG    1       30.592 -18.408   6.698  0.00  0.00    -0.375 OA
BRANCH   8   9
ATOM      9  C   LIG    1       29.339 -18.421   6.010  0.00  0.00    +0.188 C 
BRANCH   9  10
ATOM     10  C   LIG    1       28.879 -19.818   5.466  0.00  0.00    +0.188 C 
BRANCH  10  11
ATOM     11  O   LIG    1       27.455 -20.009   5.371  0.00  0.00    -0.375 OA
BRANCH  11  12
ATOM     12  C   LIG    1       26.745 -19.225   4.368  0.00  0.00    +0.188 C 
BRANCH  12  13
ATOM     13  C   LIG    1       25.285 -19.663   4.121  0.00  0.00    +0.188 C 
BRANCH  13  14
ATOM     14  O   LIG    1       24.396 -18.585   3.778  0.00  0.00    -0.375 OA
BRANCH  14  15
ATOM     15  C   LIG    1       22.986 -18.939   3.801  0.00  0.00    +0.188 C 
BRANCH  15  16
ATOM     16  C   LIG    1       22.539 -19.547   5.162  0.00  0.00    +0.188 C 
BRANCH  16  17
ATOM     17  O   LIG    1       22.242 -20.942   5.261  0.00  0.00    -0.375 OA
BRANCH  17  18
ATOM     18  C   LIG    1       23.263 -21.800   5.793  0.00  0.00    +0.187 C 
BRANCH  18  19
ATOM     19  C   LIG    1       22.702 -22.528   6.999  0.00  0.00    +0.184 C 
BRANCH  19  20
ATOM     20  O   LIG    1       22.186 -23.804   6.629  0.00  0.00    -0.393 OA
ATOM     21  H   LIG    1       21.221 -23.702   6.524  0.00  0.00    +0.209 HD
ENDBRANCH  19  20
ENDBRANCH  18  19
ENDBRANCH  17  18
ENDBRANCH  16  17
ENDBRANCH  15  16
ENDBRANCH  14  15
ENDBRANCH  13  14
ENDBRANCH  12  13
ENDBRANCH  11  12
ENDBRANCH  10  11
ENDBRANCH   9  10
ENDBRANCH   8   9
ENDBRANCH   7   8
ENDBRANCH   6   7
ENDBRANCH   5   6
ENDBRANCH   4   5
ENDBRANCH   3   4
ENDBRANCH   2   3
ENDBRANCH   1   2
BRANCH   1  22
ATOM     22  C   LIG    1       26.157 -22.423   8.304  0.00  0.00    +0.188 C 
BRANCH  22  23
ATOM     23  O   LIG    1       26.155 -22.992   6.965  0.00  0.00    -0.375 OA
BRANCH  23  24
ATOM     24  C   LIG    1       25.891 -24.391   6.985  0.00  0.00    +0.188 C 
BRANCH  24  25
ATOM     25  C   LIG    1       25.381 -24.985   5.599  0.00  0.00    +0.188 C 
BRANCH  25  26
ATOM     26  O   LIG    1       26.081 -26.094   4.957  0.00  0.00    -0.375 OA
BRANCH  26  27
ATOM     27  C   LIG    1       25.717 -27.489   5.200  0.00  0.00    +0.188 C 
BRANCH  27  28
ATOM     28  C   LIG    1       24.335 -27.595   5.763  0.00  0.00    +0.188 C 
BRANCH  28  29
ATOM     29  O   LIG    1       24.080 -28.811   6.406  0.00  0.00    -0.378 OA
BRANCH  29  30
ATOM     30  C   LIG    1       25.105 -29.808   6.350  0.00  0.00    +0.160 C 
BRANCH  30  31
ATOM     31  C   LIG    1       25.374 -30.596   7.652  0.00  0.00    +0.028 C 
BRANCH  31  32
ATOM     32  C   LIG    1       25.239 -29.770   8.952  0.00  0.00    +0.002 C 
BRANCH  32  33
ATOM     33  C   LIG    1       26.569 -29.137   9.420  0.00  0.00    +0.000 C 
BRANCH  33  34
ATOM     34  C   LIG    1       26.530 -28.353  10.765  0.00  0.00    -0.000 C 
BRANCH  34  35
ATOM     35  C   LIG    1       25.402 -28.732  11.735  0.00  0.00    -0.000 C 
BRANCH  35  36
ATOM     36  C   LIG    1       25.640 -28.582  13.263  0.00  0.00    -0.000 C 
BRANCH  36  37
ATOM     37  C   LIG    1       25.600 -27.178  13.913  0.00  0.00    -0.000 C 
BRANCH  37  38
ATOM     38  C   LIG    1       24.243 -26.780  14.535  0.00  0.00    -0.000 C 
BRANCH  38  39
ATOM     39  C   LIG    1       23.208 -26.257  13.514  0.00  0.00    -0.000 C 
BRANCH  39  41
ATOM     40  C   LIG    1       20.701 -26.806  13.121  0.00  0.00    +0.004 C 
ATOM     41  C   LIG    1       22.148 -27.270  13.028  0.00  0.00    -0.003 C 
ENDBRANCH  39  41
ENDBRANCH  38  39
ENDBRANCH  37  38
ENDBRANCH  36  37
ENDBRANCH  35  36
ENDBRANCH  34  35
ENDBRANCH  33  34
ENDBRANCH  32  33
ENDBRANCH  31  32
ENDBRANCH  30  31
ENDBRANCH  29  30
ENDBRANCH  28  29
ENDBRANCH  27  28
ENDBRANCH  26  27
ENDBRANCH  25  26
ENDBRANCH  24  25
ENDBRANCH  23  24
ENDBRANCH  22  23
ENDBRANCH   1  22
TORSDOF 38
ENDMDL
MODEL 8
REMARK VINA RESULT:      -5.6      2.608     10.945
REMARK  Name = *****
REMARK                            x       y       z     vdW  Elec       q    Type
REMARK                         _______ _______ _______ _____ _____    ______ ____
ROOT
ATOM      1  C   LIG    1       25.530 -24.886   6.154  0.00  0.00    +0.188 C 
ENDROOT
BRANCH   1   2
ATOM      2  O   LIG    1       26.387 -25.984   5.743  0.00  0.00    -0.375 OA
BRANCH   2   3
ATOM      3  C   LIG    1       25.959 -27.137   4.977  0.00  0.00    +0.188 C 
BRANCH   3   4
ATOM      4  C   LIG    1       25.182 -28.454   5.777  0.00  0.00    +0.188 C 
BRANCH   4   5
ATOM      5  O   LIG    1       25.318 -29.721   5.115  0.00  0.00    -0.375 OA
BRANCH   5   6
ATOM      6  C   LIG    1       25.382 -31.063   5.681  0.00  0.00    +0.188 C 
BRANCH   6   7
ATOM      7  C   LIG    1       25.050 -30.986   7.151  0.00  0.00    +0.188 C 
BRANCH   7   8
ATOM      8  O   LIG    1       23.652 -31.216   7.346  0.00  0.00    -0.375 OA
BRANCH   8   9
ATOM      9  C   LIG    1       23.418 -32.478   7.972  0.00  0.00    +0.188 C 
BRANCH   9  10
ATOM     10  C   LIG    1       22.729 -32.420   9.380  0.00  0.00    +0.188 C 
BRANCH  10  11
ATOM     11  O   LIG    1       23.023 -31.252  10.168  0.00  0.00    -0.375 OA
BRANCH  11  12
ATOM     12  C   LIG    1       24.192 -31.314  11.036  0.00  0.00    +0.188 C 
BRANCH  12  13
ATOM     13  C   LIG    1       25.308 -30.304  10.691  0.00  0.00    +0.188 C 
BRANCH  13  14
ATOM     14  O   LIG    1       26.603 -30.655  11.210  0.00  0.00    -0.375 OA
BRANCH  14  15
ATOM     15  C   LIG    1       27.640 -29.668  10.954  0.00  0.00    +0.188 C 
BRANCH  15  16
ATOM     16  C   LIG    1       27.246 -28.241  11.432  0.00  0.00    +0.188 C 
BRANCH  16  17
ATOM     17  O   LIG    1       26.793 -28.033  12.772  0.00  0.00    -0.375 OA
BRANCH  17  18
ATOM     18  C   LIG    1       25.666 -27.164  12.962  0.00  0.00    +0.187 C 
BRANCH  18  19
ATOM     19  C   LIG    1       26.098 -25.993  13.824  0.00  0.00    +0.184 C 
BRANCH  19  20
ATOM     20  O   LIG    1       26.137 -24.789  13.064  0.00  0.00    -0.393 OA
ATOM     21  H   LIG    1       27.057 -24.673  12.761  0.00  0.00    +0.209 HD
ENDBRANCH  19  20
ENDBRANCH  18  19
ENDBRANCH  17  18
ENDBRANCH  16  17
ENDBRANCH  15  16
ENDBRANCH  14  15
ENDBRANCH  13  14
ENDBRANCH  12  13
ENDBRANCH  11  12
ENDBRANCH  10  11
ENDBRANCH   9  10
ENDBRANCH   8   9
ENDBRANCH   7   8
ENDBRANCH   6   7
ENDBRANCH   5   6
ENDBRANCH   4   5
ENDBRANCH   3   4
ENDBRANCH   2   3
ENDBRANCH   1   2
BRANCH   1  22
ATOM     22  C   LIG    1       24.020 -25.175   6.205  0.00  0.00    +0.188 C 
BRANCH  22  23
ATOM     23  O   LIG    1       23.296 -24.072   6.817  0.00  0.00    -0.375 OA
BRANCH  23  24
ATOM     24  C   LIG    1       24.055 -22.868   6.805  0.00  0.00    +0.188 C 
BRANCH  24  25
ATOM     25  C   LIG    1       23.286 -21.598   7.376  0.00  0.00    +0.188 C 
BRANCH  25  26
ATOM     26  O   LIG    1       23.027 -20.437   6.530  0.00  0.00    -0.375 OA
BRANCH  26  27
ATOM     27  C   LIG    1       22.479 -20.563   5.180  0.00  0.00    +0.188 C 
BRANCH  27  28
ATOM     28  C   LIG    1       23.516 -20.255   4.147  0.00  0.00    +0.188 C 
BRANCH  28  29
ATOM     29  O   LIG    1       24.656 -19.627   4.664  0.00  0.00    -0.378 OA
BRANCH  29  30
ATOM     30  C   LIG    1       25.887 -20.352   4.602  0.00  0.00    +0.160 C 
BRANCH  30  31
ATOM     31  C   LIG    1       27.008 -19.894   5.562  0.00  0.00    +0.028 C 
BRANCH  31  32
ATOM     32  C   LIG    1       26.953 -20.523   6.973  0.00  0.00    +0.002 C 
BRANCH  32  33
ATOM     33  C   LIG    1       28.348 -20.819   7.570  0.00  0.00    +0.000 C 
BRANCH  33  34
ATOM     34  C   LIG    1       29.572 -20.242   6.798  0.00  0.00    -0.000 C 
BRANCH  34  35
ATOM     35  C   LIG    1       30.208 -18.977   7.391  0.00  0.00    -0.000 C 
BRANCH  35  36
ATOM     36  C   LIG    1       29.681 -18.433   8.748  0.00  0.00    -0.000 C 
BRANCH  36  37
ATOM     37  C   LIG    1       30.350 -17.194   9.390  0.00  0.00    -0.000 C 
BRANCH  37  38
ATOM     38  C   LIG    1       31.894 -17.224   9.423  0.00  0.00    -0.000 C 
BRANCH  38  39
ATOM     39  C   LIG    1       32.514 -16.521  10.650  0.00  0.00    -0.000 C 
BRANCH  39  41
ATOM     40  C   LIG    1       32.356 -15.931  13.174  0.00  0.00    +0.004 C 
ATOM     41  C   LIG    1       31.725 -16.624  11.974  0.00  0.00    -0.003 C 
ENDBRANCH  39  41
ENDBRANCH  38  39
ENDBRANCH  37  38
ENDBRANCH  36  37
ENDBRANCH  35  36
ENDBRANCH  34  35
ENDBRANCH  33  34
ENDBRANCH  32  33
ENDBRANCH  31  32
ENDBRANCH  30  31
ENDBRANCH  29  30
ENDBRANCH  28  29
ENDBRANCH  27  28
ENDBRANCH  26  27
ENDBRANCH  25  26
ENDBRANCH  24  25
ENDBRANCH  23  24
ENDBRANCH  22  23
ENDBRANCH   1  22
TORSDOF 38
ENDMDL
MODEL 9
REMARK VINA RESULT:      -5.5      2.760     11.110
REMARK  Name = *****
REMARK                            x       y       z     vdW  Elec       q    Type
REMARK                         _______ _______ _______ _____ _____    ______ ____
ROOT
ATOM      1  C   LIG    1       25.397 -25.241   5.500  0.00  0.00    +0.188 C 
ENDROOT
BRANCH   1   2
ATOM      2  O   LIG    1       25.572 -26.418   4.668  0.00  0.00    -0.375 OA
BRANCH   2   3
ATOM      3  C   LIG    1       25.827 -27.758   5.156  0.00  0.00    +0.188 C 
BRANCH   3   4
ATOM      4  C   LIG    1       24.505 -28.825   5.454  0.00  0.00    +0.188 C 
BRANCH   4   5
ATOM      5  O   LIG    1       24.884 -30.177   5.759  0.00  0.00    -0.375 OA
BRANCH   5   6
ATOM      6  C   LIG    1       24.114 -31.235   6.403  0.00  0.00    +0.188 C 
BRANCH   6   7
ATOM      7  C   LIG    1       24.301 -31.130   7.897  0.00  0.00    +0.188 C 
BRANCH   7   8
ATOM      8  O   LIG    1       23.481 -30.078   8.415  0.00  0.00    -0.375 OA
BRANCH   8   9
ATOM      9  C   LIG    1       23.122 -30.326   9.776  0.00  0.00    +0.188 C 
BRANCH   9  10
ATOM     10  C   LIG    1       22.420 -31.700  10.053  0.00  0.00    +0.188 C 
BRANCH  10  11
ATOM     11  O   LIG    1       22.644 -32.261  11.360  0.00  0.00    -0.375 OA
BRANCH  11  12
ATOM     12  C   LIG    1       23.832 -31.817  12.078  0.00  0.00    +0.188 C 
BRANCH  12  13
ATOM     13  C   LIG    1       23.598 -30.635  13.044  0.00  0.00    +0.188 C 
BRANCH  13  14
ATOM     14  O   LIG    1       24.484 -29.520  12.838  0.00  0.00    -0.375 OA
BRANCH  14  15
ATOM     15  C   LIG    1       25.545 -29.406  13.826  0.00  0.00    +0.188 C 
BRANCH  15  16
ATOM     16  C   LIG    1       26.879 -30.056  13.357  0.00  0.00    +0.188 C 
BRANCH  16  17
ATOM     17  O   LIG    1       27.085 -30.352  11.974  0.00  0.00    -0.375 OA
BRANCH  17  18
ATOM     18  C   LIG    1       27.610 -29.305  11.144  0.00  0.00    +0.187 C 
BRANCH  18  19
ATOM     19  C   LIG    1       26.526 -28.863  10.179  0.00  0.00    +0.184 C 
BRANCH  19  20
ATOM     20  O   LIG    1       27.075 -28.568   8.898  0.00  0.00    -0.393 OA
ATOM     21  H   LIG    1       27.672 -29.306   8.667  0.00  0.00    +0.209 HD
ENDBRANCH  19  20
ENDBRANCH  18  19
ENDBRANCH  17  18
ENDBRANCH  16  17
ENDBRANCH  15  16
ENDBRANCH  14  15
ENDBRANCH  13  14
ENDBRANCH  12  13
ENDBRANCH  11  12
ENDBRANCH  10  11
ENDBRANCH   9  10
ENDBRANCH   8   9
ENDBRANCH   7   8
ENDBRANCH   6   7
ENDBRANCH   5   6
ENDBRANCH   4   5
ENDBRANCH   3   4
ENDBRANCH   2   3
ENDBRANCH   1   2
BRANCH   1  22
ATOM     22  C   LIG    1       24.017 -25.065   6.157  0.00  0.00    +0.188 C 
BRANCH  22  23
ATOM     23  O   LIG    1       23.969 -23.849   6.956  0.00  0.00    -0.375 OA
BRANCH  23  24
ATOM     24  C   LIG    1       22.743 -23.148   6.777  0.00  0.00    +0.188 C 
BRANCH  24  25
ATOM     25  C   LIG    1       22.906 -21.577   6.582  0.00  0.00    +0.188 C 
BRANCH  25  26
ATOM     26  O   LIG    1       22.358 -20.908   5.406  0.00  0.00    -0.375 OA
BRANCH  26  27
ATOM     27  C   LIG    1       22.538 -19.476   5.169  0.00  0.00    +0.188 C 
BRANCH  27  28
ATOM     28  C   LIG    1       23.056 -19.220   3.789  0.00  0.00    +0.188 C 
BRANCH  28  29
ATOM     29  O   LIG    1       24.430 -18.958   3.743  0.00  0.00    -0.378 OA
BRANCH  29  30
ATOM     30  C   LIG    1       25.314 -20.064   3.947  0.00  0.00    +0.160 C 
BRANCH  30  31
ATOM     31  C   LIG    1       26.212 -20.008   5.204  0.00  0.00    +0.028 C 
BRANCH  31  32
ATOM     32  C   LIG    1       26.174 -21.276   6.088  0.00  0.00    +0.002 C 
BRANCH  32  33
ATOM     33  C   LIG    1       26.342 -20.982   7.595  0.00  0.00    +0.000 C 
BRANCH  33  34
ATOM     34  C   LIG    1       27.617 -20.189   8.012  0.00  0.00    -0.000 C 
BRANCH  34  35
ATOM     35  C   LIG    1       28.936 -20.650   7.375  0.00  0.00    -0.000 C 
BRANCH  35  36
ATOM     36  C   LIG    1       29.904 -19.586   6.791  0.00  0.00    -0.000 C 
BRANCH  36  37
ATOM     37  C   LIG    1       31.319 -19.421   7.394  0.00  0.00    -0.000 C 
BRANCH  37  38
ATOM     38  C   LIG    1       31.476 -18.252   8.392  0.00  0.00    -0.000 C 
BRANCH  38  39
ATOM     39  C   LIG    1       30.241 -18.017   9.289  0.00  0.00    -0.000 C 
BRANCH  39  41
ATOM     40  C   LIG    1       31.881 -16.926  10.982  0.00  0.00    +0.004 C 
ATOM     41  C   LIG    1       30.443 -17.092  10.510  0.00  0.00    -0.003 C 
ENDBRANCH  39  41
ENDBRANCH  38  39
ENDBRANCH  37  38
ENDBRANCH  36  37
ENDBRANCH  35  36
ENDBRANCH  34  35
ENDBRANCH  33  34
ENDBRANCH  32  33
ENDBRANCH  31  32
ENDBRANCH  30  31
ENDBRANCH  29  30
ENDBRANCH  28  29
ENDBRANCH  27  28
ENDBRANCH  26  27
ENDBRANCH  25  26
ENDBRANCH  24  25
ENDBRANCH  23  24
ENDBRANCH  22  23
ENDBRANCH   1  22
TORSDOF 38
ENDMDL
