MODEL 1
REMARK VINA RESULT:      -8.4      0.000      0.000
REMARK  Name = *****
REMARK                            x       y       z     vdW  Elec       q    Type
REMARK                         _______ _______ _______ _____ _____    ______ ____
ROOT
ATOM      1  C   LIG    1       28.397 -19.922   8.176  0.00  0.00    +0.141 C 
ATOM      2  N   LIG    1       27.240 -20.376   7.443  0.00  0.00    -0.244 N 
ATOM      3  C   LIG    1       26.111 -20.851   8.043  0.00  0.00    +0.232 C 
ATOM      4  O   LIG    1       25.933 -20.930   9.252  0.00  0.00    -0.274 OA
ATOM      5  C   LIG    1       25.101 -21.255   6.973  0.00  0.00    +0.078 C 
ATOM      6  C   LIG    1       23.754 -20.605   7.327  0.00  0.00    +0.026 C 
ATOM      7  C   LIG    1       25.705 -20.624   5.703  0.00  0.00    +0.117 C 
ATOM      8  C   LIG    1       27.071 -20.160   6.111  0.00  0.00    +0.223 C 
ATOM      9  O   LIG    1       27.862 -19.616   5.355  0.00  0.00    -0.275 OA
ENDROOT
BRANCH   5  10
ATOM     10  C   LIG    1       24.924 -22.771   6.811  0.00  0.00    -0.032 A 
ATOM     11  C   LIG    1       23.634 -23.309   6.633  0.00  0.00    +0.005 A 
ATOM     12  C   LIG    1       23.436 -24.684   6.486  0.00  0.00    +0.000 A 
ATOM     13  C   LIG    1       24.521 -25.551   6.520  0.00  0.00    +0.000 A 
ATOM     14  C   LIG    1       25.804 -25.044   6.707  0.00  0.00    +0.000 A 
ATOM     15  C   LIG    1       26.004 -23.668   6.853  0.00  0.00    +0.005 A 
ENDBRANCH   5  10
TORSDOF 1
ENDMDL
MODEL 2
REMARK VINA RESULT:      -8.2      2.063      2.965
REMARK  Name = *****
REMARK                            x       y       z     vdW  Elec       q    Type
REMARK                         _______ _______ _______ _____ _____    ______ ____
ROOT
ATOM      1  C   LIG    1       24.645 -19.241   3.641  0.00  0.00    +0.141 C 
ATOM      2  N   LIG    1       24.375 -19.987   4.846  0.00  0.00    -0.244 N 
ATOM      3  C   LIG    1       25.352 -20.528   5.628  0.00  0.00    +0.232 C 
ATOM      4  O   LIG    1       26.556 -20.433   5.423  0.00  0.00    -0.274 OA
ATOM      5  C   LIG    1       24.712 -21.257   6.806  0.00  0.00    +0.078 C 
ATOM      6  C   LIG    1       25.406 -20.778   8.090  0.00  0.00    +0.026 C 
ATOM      7  C   LIG    1       23.255 -20.757   6.743  0.00  0.00    +0.117 C 
ATOM      8  C   LIG    1       23.152 -20.022   5.440  0.00  0.00    +0.223 C 
ATOM      9  O   LIG    1       22.128 -19.494   5.033  0.00  0.00    -0.275 OA
ENDROOT
BRANCH   5  10
ATOM     10  C   LIG    1       24.779 -22.788   6.713  0.00  0.00    -0.032 A 
ATOM     11  C   LIG    1       23.594 -23.530   6.537  0.00  0.00    +0.005 A 
ATOM     12  C   LIG    1       23.618 -24.924   6.453  0.00  0.00    +0.000 A 
ATOM     13  C   LIG    1       24.824 -25.607   6.550  0.00  0.00    +0.000 A 
ATOM     14  C   LIG    1       26.007 -24.896   6.737  0.00  0.00    +0.000 A 
ATOM     15  C   LIG    1       25.984 -23.500   6.820  0.00  0.00    +0.005 A 
ENDBRANCH   5  10
TORSDOF 1
ENDMDL
MODEL 3
REMARK VINA RESULT:      -8.1      2.066      3.209
REMARK  Name = *****
REMARK                            x       y       z     vdW  Elec       q    Type
REMARK                         _______ _______ _______ _____ _____    ______ ____
ROOT
ATOM      1  C   LIG    1       24.658 -19.258   3.646  0.00  0.00    +0.141 C 
ATOM      2  N   LIG    1       24.371 -19.996   4.852  0.00  0.00    -0.244 N 
ATOM      3  C   LIG    1       25.337 -20.553   5.638  0.00  0.00    +0.232 C 
ATOM      4  O   LIG    1       26.542 -20.480   5.434  0.00  0.00    -0.274 OA
ATOM      5  C   LIG    1       24.680 -21.268   6.815  0.00  0.00    +0.078 C 
ATOM      6  C   LIG    1       25.381 -20.798   8.100  0.00  0.00    +0.026 C 
ATOM      7  C   LIG    1       23.233 -20.741   6.748  0.00  0.00    +0.117 C 
ATOM      8  C   LIG    1       23.146 -20.007   5.443  0.00  0.00    +0.223 C 
ATOM      9  O   LIG    1       22.133 -19.461   5.033  0.00  0.00    -0.275 OA
ENDROOT
BRANCH   5  10
ATOM     10  C   LIG    1       24.720 -22.799   6.727  0.00  0.00    -0.032 A 
ATOM     11  C   LIG    1       25.952 -23.474   6.832  0.00  0.00    +0.005 A 
ATOM     12  C   LIG    1       26.026 -24.866   6.752  0.00  0.00    +0.000 A 
ATOM     13  C   LIG    1       24.871 -25.615   6.558  0.00  0.00    +0.000 A 
ATOM     14  C   LIG    1       23.643 -24.969   6.439  0.00  0.00    +0.000 A 
ATOM     15  C   LIG    1       23.568 -23.576   6.520  0.00  0.00    +0.005 A 
ENDBRANCH   5  10
TORSDOF 1
ENDMDL
MODEL 4
REMARK VINA RESULT:      -7.9      0.786      1.487
REMARK  Name = *****
REMARK                            x       y       z     vdW  Elec       q    Type
REMARK                         _______ _______ _______ _____ _____    ______ ____
ROOT
ATOM      1  C   LIG    1       27.712 -20.056   7.943  0.00  0.00    +0.141 C 
ATOM      2  N   LIG    1       26.600 -20.704   7.291  0.00  0.00    -0.244 N 
ATOM      3  C   LIG    1       25.640 -21.404   7.962  0.00  0.00    +0.232 C 
ATOM      4  O   LIG    1       25.592 -21.549   9.177  0.00  0.00    -0.274 OA
ATOM      5  C   LIG    1       24.631 -21.964   6.964  0.00  0.00    +0.078 C 
ATOM      6  C   LIG    1       23.224 -21.595   7.460  0.00  0.00    +0.026 C 
ATOM      7  C   LIG    1       24.985 -21.192   5.677  0.00  0.00    +0.117 C 
ATOM      8  C   LIG    1       26.271 -20.486   5.989  0.00  0.00    +0.223 C 
ATOM      9  O   LIG    1       26.872 -19.779   5.194  0.00  0.00    -0.275 OA
ENDROOT
BRANCH   5  10
ATOM     10  C   LIG    1       24.730 -23.480   6.749  0.00  0.00    -0.032 A 
ATOM     11  C   LIG    1       25.981 -24.120   6.851  0.00  0.00    +0.005 A 
ATOM     12  C   LIG    1       26.109 -25.498   6.658  0.00  0.00    +0.000 A 
ATOM     13  C   LIG    1       24.990 -26.264   6.350  0.00  0.00    +0.000 A 
ATOM     14  C   LIG    1       23.745 -25.651   6.232  0.00  0.00    +0.000 A 
ATOM     15  C   LIG    1       23.617 -24.273   6.427  0.00  0.00    +0.005 A 
ENDBRANCH   5  10
TORSDOF 1
ENDMDL
MODEL 5
REMARK VINA RESULT:      -7.7      2.244      4.149
REMARK  Name = *****
REMARK                            x       y       z     vdW  Elec       q    Type
REMARK                         _______ _______ _______ _____ _____    ______ ____
ROOT
ATOM      1  C   LIG    1       27.599 -22.136   7.679  0.00  0.00    +0.141 C 
ATOM      2  N   LIG    1       26.241 -21.669   7.536  0.00  0.00    -0.244 N 
ATOM      3  C   LIG    1       25.376 -22.156   6.601  0.00  0.00    +0.232 C 
ATOM      4  O   LIG    1       25.629 -23.044   5.797  0.00  0.00    -0.274 OA
ATOM      5  C   LIG    1       24.039 -21.429   6.722  0.00  0.00    +0.078 C 
ATOM      6  C   LIG    1       22.930 -22.491   6.779  0.00  0.00    +0.026 C 
ATOM      7  C   LIG    1       24.185 -20.707   8.077  0.00  0.00    +0.117 C 
ATOM      8  C   LIG    1       25.625 -20.880   8.457  0.00  0.00    +0.223 C 
ATOM      9  O   LIG    1       26.122 -20.423   9.475  0.00  0.00    -0.275 OA
ENDROOT
BRANCH   5  10
ATOM     10  C   LIG    1       23.755 -20.434   5.589  0.00  0.00    -0.032 A 
ATOM     11  C   LIG    1       22.510 -19.777   5.533  0.00  0.00    +0.005 A 
ATOM     12  C   LIG    1       22.215 -18.868   4.514  0.00  0.00    +0.000 A 
ATOM     13  C   LIG    1       23.156 -18.602   3.525  0.00  0.00    +0.000 A 
ATOM     14  C   LIG    1       24.389 -19.248   3.554  0.00  0.00    +0.000 A 
ATOM     15  C   LIG    1       24.684 -20.157   4.574  0.00  0.00    +0.005 A 
ENDBRANCH   5  10
TORSDOF 1
ENDMDL
MODEL 6
REMARK VINA RESULT:      -7.7      2.800      4.718
REMARK  Name = *****
REMARK                            x       y       z     vdW  Elec       q    Type
REMARK                         _______ _______ _______ _____ _____    ______ ____
ROOT
ATOM      1  C   LIG    1       24.025 -25.697   5.922  0.00  0.00    +0.141 C 
ATOM      2  N   LIG    1       24.326 -24.320   6.231  0.00  0.00    -0.244 N 
ATOM      3  C   LIG    1       23.369 -23.386   6.499  0.00  0.00    +0.232 C 
ATOM      4  O   LIG    1       22.164 -23.597   6.531  0.00  0.00    -0.274 OA
ATOM      5  C   LIG    1       24.038 -22.040   6.766  0.00  0.00    +0.078 C 
ATOM      6  C   LIG    1       23.463 -21.481   8.077  0.00  0.00    +0.026 C 
ATOM      7  C   LIG    1       25.517 -22.441   6.936  0.00  0.00    +0.117 C 
ATOM      8  C   LIG    1       25.581 -23.879   6.514  0.00  0.00    +0.223 C 
ATOM      9  O   LIG    1       26.607 -24.541   6.500  0.00  0.00    -0.275 OA
ENDROOT
BRANCH   5  10
ATOM     10  C   LIG    1       23.866 -21.014   5.638  0.00  0.00    -0.032 A 
ATOM     11  C   LIG    1       22.747 -20.158   5.637  0.00  0.00    +0.005 A 
ATOM     12  C   LIG    1       22.556 -19.214   4.625  0.00  0.00    +0.000 A 
ATOM     13  C   LIG    1       23.475 -19.111   3.587  0.00  0.00    +0.000 A 
ATOM     14  C   LIG    1       24.583 -19.955   3.561  0.00  0.00    +0.000 A 
ATOM     15  C   LIG    1       24.775 -20.898   4.574  0.00  0.00    +0.005 A 
ENDBRANCH   5  10
TORSDOF 1
ENDMDL
MODEL 7
REMARK VINA RESULT:      -7.3      4.312      6.708
REMARK  Name = *****
REMARK                            x       y       z     vdW  Elec       q    Type
REMARK                         _______ _______ _______ _____ _____    ______ ____
ROOT
ATOM      1  C   LIG    1       24.565 -29.812   8.362  0.00  0.00    +0.141 C 
ATOM      2  N   LIG    1       24.745 -28.804   7.347  0.00  0.00    -0.244 N 
ATOM      3  C   LIG    1       25.708 -27.840   7.409  0.00  0.00    +0.232 C 
ATOM      4  O   LIG    1       26.536 -27.724   8.303  0.00  0.00    -0.274 OA
ATOM      5  C   LIG    1       25.600 -26.937   6.183  0.00  0.00    +0.078 C 
ATOM      6  C   LIG    1       27.000 -26.819   5.561  0.00  0.00    +0.026 C 
ATOM      7  C   LIG    1       24.654 -27.743   5.270  0.00  0.00    +0.117 C 
ATOM      8  C   LIG    1       24.136 -28.855   6.131  0.00  0.00    +0.223 C 
ATOM      9  O   LIG    1       23.339 -29.700   5.751  0.00  0.00    -0.275 OA
ENDROOT
BRANCH   5  10
ATOM     10  C   LIG    1       25.035 -25.540   6.474  0.00  0.00    -0.032 A 
ATOM     11  C   LIG    1       25.901 -24.510   6.893  0.00  0.00    +0.005 A 
ATOM     12  C   LIG    1       25.422 -23.228   7.170  0.00  0.00    +0.000 A 
ATOM     13  C   LIG    1       24.066 -22.949   7.043  0.00  0.00    +0.000 A 
ATOM     14  C   LIG    1       23.189 -23.954   6.642  0.00  0.00    +0.000 A 
ATOM     15  C   LIG    1       23.669 -25.237   6.363  0.00  0.00    +0.005 A 
ENDBRANCH   5  10
TORSDOF 1
ENDMDL
MODEL 8
REMARK VINA RESULT:      -7.2      2.310      4.948
REMARK  Name = *****
REMARK                            x       y       z     vdW  Elec       q    Type
REMARK                         _______ _______ _______ _____ _____    ______ ____
ROOT
ATOM      1  C   LIG    1       24.844 -24.662   4.614  0.00  0.00    +0.141 C 
ATOM      2  N   LIG    1       25.252 -23.791   5.689  0.00  0.00    -0.244 N 
ATOM      3  C   LIG    1       25.068 -22.439   5.668  0.00  0.00    +0.232 C 
ATOM      4  O   LIG    1       24.528 -21.813   4.766  0.00  0.00    -0.274 OA
ATOM      5  C   LIG    1       25.630 -21.834   6.952  0.00  0.00    +0.078 C 
ATOM      6  C   LIG    1       24.551 -20.917   7.551  0.00  0.00    +0.026 C 
ATOM      7  C   LIG    1       25.847 -23.081   7.831  0.00  0.00    +0.117 C 
ATOM      8  C   LIG    1       25.638 -24.247   6.911  0.00  0.00    +0.223 C 
ATOM      9  O   LIG    1       25.743 -25.415   7.253  0.00  0.00    -0.275 OA
ENDROOT
BRANCH   5  10
ATOM     10  C   LIG    1       26.936 -21.051   6.763  0.00  0.00    -0.032 A 
ATOM     11  C   LIG    1       27.990 -21.220   7.683  0.00  0.00    +0.005 A 
ATOM     12  C   LIG    1       29.192 -20.521   7.544  0.00  0.00    +0.000 A 
ATOM     13  C   LIG    1       29.364 -19.634   6.488  0.00  0.00    +0.000 A 
ATOM     14  C   LIG    1       28.332 -19.442   5.573  0.00  0.00    +0.000 A 
ATOM     15  C   LIG    1       27.129 -20.142   5.711  0.00  0.00    +0.005 A 
ENDBRANCH   5  10
TORSDOF 1
ENDMDL
MODEL 9
REMARK VINA RESULT:      -7.1      3.177      4.946
REMARK  Name = *****
REMARK                            x       y       z     vdW  Elec       q    Type
REMARK                         _______ _______ _______ _____ _____    ______ ____
ROOT
ATOM      1  C   LIG    1       31.252 -18.336  10.411  0.00  0.00    +0.141 C 
ATOM      2  N   LIG    1       30.756 -19.021   9.242  0.00  0.00    -0.244 N 
ATOM      3  C   LIG    1       29.958 -18.428   8.308  0.00  0.00    +0.232 C 
ATOM      4  O   LIG    1       29.589 -17.261   8.332  0.00  0.00    -0.274 OA
ATOM      5  C   LIG    1       29.611 -19.442   7.222  0.00  0.00    +0.078 C 
ATOM      6  C   LIG    1       29.904 -18.793   5.860  0.00  0.00    +0.026 C 
ATOM      7  C   LIG    1       30.604 -20.585   7.516  0.00  0.00    +0.117 C 
ATOM      8  C   LIG    1       31.218 -20.235   8.839  0.00  0.00    +0.223 C 
ATOM      9  O   LIG    1       32.051 -20.924   9.408  0.00  0.00    -0.275 OA
ENDROOT
BRANCH   5  10
ATOM     10  C   LIG    1       28.160 -19.941   7.264  0.00  0.00    -0.032 A 
ATOM     11  C   LIG    1       27.446 -20.113   6.062  0.00  0.00    +0.005 A 
ATOM     12  C   LIG    1       26.123 -20.562   6.062  0.00  0.00    +0.000 A 
ATOM     13  C   LIG    1       25.483 -20.842   7.265  0.00  0.00    +0.000 A 
ATOM     14  C   LIG    1       26.165 -20.668   8.466  0.00  0.00    +0.000 A 
ATOM     15  C   LIG    1       27.490 -20.220   8.466  0.00  0.00    +0.005 A 
ENDBRANCH   5  10
TORSDOF 1
ENDMDL
