MODEL 1
REMARK VINA RESULT:      -8.7      0.000      0.000
REMARK  Name = *****
REMARK                            x       y       z     vdW  Elec       q    Type
REMARK                         _______ _______ _______ _____ _____    ______ ____
ROOT
ATOM      1  C   LIG    1       29.334 -20.364   8.027  0.00  0.00    +0.341 C 
ATOM      2  O   LIG    1       29.658 -21.476   8.436  0.00  0.00    -0.247 OA
ENDROOT
BRANCH   1   3
ATOM      3  O   LIG    1       28.057 -19.905   7.924  0.00  0.00    -0.459 OA
BRANCH   3  11
ATOM      4  C   LIG    1       25.510 -19.632   3.684  0.00  0.00    +0.007 C 
ATOM      5  C   LIG    1       25.787 -20.481   4.925  0.00  0.00    -0.010 C 
ATOM      6  C   LIG    1       24.502 -20.659   5.749  0.00  0.00    +0.010 C 
ATOM      7  C   LIG    1       24.716 -21.478   7.041  0.00  0.00    -0.031 C 
ATOM      8  C   LIG    1       23.426 -21.438   7.882  0.00  0.00    +0.011 C 
ATOM      9  C   LIG    1       25.016 -22.952   6.709  0.00  0.00    +0.011 C 
ATOM     10  C   LIG    1       25.867 -20.857   7.862  0.00  0.00    +0.051 C 
ATOM     11  C   LIG    1       27.160 -20.644   7.065  0.00  0.00    +0.177 C 
ATOM     12  C   LIG    1       26.898 -19.853   5.778  0.00  0.00    +0.048 C 
ENDBRANCH   3  11
ENDBRANCH   1   3
BRANCH   1  13
ATOM     13  C   LIG    1       30.348 -19.318   7.535  0.00  0.00    +0.253 C 
BRANCH  13  14
ATOM     14  C   LIG    1       30.763 -18.332   8.608  0.00  0.00    -0.008 A 
ATOM     15  C   LIG    1       29.948 -18.079   9.725  0.00  0.00    +0.007 A 
ATOM     16  C   LIG    1       30.360 -17.187  10.718  0.00  0.00    +0.000 A 
ATOM     17  C   LIG    1       31.583 -16.532  10.606  0.00  0.00    +0.000 A 
ATOM     18  C   LIG    1       32.401 -16.771   9.503  0.00  0.00    +0.000 A 
ATOM     19  C   LIG    1       31.989 -17.663   8.510  0.00  0.00    +0.007 A 
ENDBRANCH  13  14
BRANCH  13  20
ATOM     20  O   LIG    1       31.536 -19.917   7.010  0.00  0.00    -0.376 OA
ATOM     21  H   LIG    1       31.879 -19.295   6.340  0.00  0.00    +0.211 HD
ENDBRANCH  13  20
ENDBRANCH   1  13
TORSDOF 5
ENDMDL
MODEL 2
REMARK VINA RESULT:      -8.5      2.051      6.663
REMARK  Name = *****
REMARK                            x       y       z     vdW  Elec       q    Type
REMARK                         _______ _______ _______ _____ _____    ______ ____
ROOT
ATOM      1  C   LIG    1       25.638 -21.364   7.695  0.00  0.00    +0.341 C 
ATOM      2  O   LIG    1       25.174 -20.720   8.632  0.00  0.00    -0.247 OA
ENDROOT
BRANCH   1   3
ATOM      3  O   LIG    1       26.957 -21.649   7.512  0.00  0.00    -0.459 OA
BRANCH   3  11
ATOM      4  C   LIG    1       29.478 -18.210   4.991  0.00  0.00    +0.007 C 
ATOM      5  C   LIG    1       29.251 -18.837   6.366  0.00  0.00    -0.010 C 
ATOM      6  C   LIG    1       30.545 -19.490   6.877  0.00  0.00    +0.010 C 
ATOM      7  C   LIG    1       30.378 -20.178   8.250  0.00  0.00    -0.031 C 
ATOM      8  C   LIG    1       31.666 -20.957   8.582  0.00  0.00    +0.011 C 
ATOM      9  C   LIG    1       30.161 -19.134   9.361  0.00  0.00    +0.011 C 
ATOM     10  C   LIG    1       29.196 -21.170   8.191  0.00  0.00    +0.051 C 
ATOM     11  C   LIG    1       27.892 -20.557   7.664  0.00  0.00    +0.177 C 
ATOM     12  C   LIG    1       28.107 -19.860   6.316  0.00  0.00    +0.048 C 
ENDBRANCH   3  11
ENDBRANCH   1   3
BRANCH   1  13
ATOM     13  C   LIG    1       24.778 -21.931   6.554  0.00  0.00    +0.253 C 
BRANCH  13  14
ATOM     14  C   LIG    1       24.222 -20.864   5.633  0.00  0.00    -0.008 A 
ATOM     15  C   LIG    1       22.951 -20.302   5.847  0.00  0.00    +0.007 A 
ATOM     16  C   LIG    1       22.466 -19.299   5.004  0.00  0.00    +0.000 A 
ATOM     17  C   LIG    1       23.237 -18.851   3.936  0.00  0.00    +0.000 A 
ATOM     18  C   LIG    1       24.499 -19.400   3.709  0.00  0.00    +0.000 A 
ATOM     19  C   LIG    1       24.983 -20.403   4.552  0.00  0.00    +0.007 A 
ENDBRANCH  13  14
BRANCH  13  20
ATOM     20  O   LIG    1       25.493 -22.872   5.749  0.00  0.00    -0.376 OA
ATOM     21  H   LIG    1       25.145 -22.772   4.842  0.00  0.00    +0.211 HD
ENDBRANCH  13  20
ENDBRANCH   1  13
TORSDOF 5
ENDMDL
MODEL 3
REMARK VINA RESULT:      -8.4      4.457      8.453
REMARK  Name = *****
REMARK                            x       y       z     vdW  Elec       q    Type
REMARK                         _______ _______ _______ _____ _____    ______ ____
ROOT
ATOM      1  C   LIG    1       25.102 -25.143   5.817  0.00  0.00    +0.341 C 
ATOM      2  O   LIG    1       25.144 -24.767   4.648  0.00  0.00    -0.247 OA
ENDROOT
BRANCH   1   3
ATOM      3  O   LIG    1       24.222 -24.698   6.756  0.00  0.00    -0.459 OA
BRANCH   3  11
ATOM      4  C   LIG    1       22.792 -20.116   5.531  0.00  0.00    +0.007 C 
ATOM      5  C   LIG    1       23.657 -20.945   6.480  0.00  0.00    -0.010 C 
ATOM      6  C   LIG    1       25.142 -20.590   6.298  0.00  0.00    +0.010 C 
ATOM      7  C   LIG    1       26.081 -21.418   7.202  0.00  0.00    -0.031 C 
ATOM      8  C   LIG    1       27.542 -21.125   6.812  0.00  0.00    +0.011 C 
ATOM      9  C   LIG    1       25.902 -21.026   8.681  0.00  0.00    +0.011 C 
ATOM     10  C   LIG    1       25.801 -22.923   6.996  0.00  0.00    +0.051 C 
ATOM     11  C   LIG    1       24.325 -23.311   7.149  0.00  0.00    +0.177 C 
ATOM     12  C   LIG    1       23.426 -22.446   6.258  0.00  0.00    +0.048 C 
ENDBRANCH   3  11
ENDBRANCH   1   3
BRANCH   1  13
ATOM     13  C   LIG    1       26.079 -26.172   6.407  0.00  0.00    +0.253 C 
BRANCH  13  14
ATOM     14  C   LIG    1       25.436 -27.511   6.704  0.00  0.00    -0.008 A 
ATOM     15  C   LIG    1       24.545 -28.112   5.798  0.00  0.00    +0.007 A 
ATOM     16  C   LIG    1       23.983 -29.361   6.076  0.00  0.00    +0.000 A 
ATOM     17  C   LIG    1       24.296 -30.019   7.262  0.00  0.00    +0.000 A 
ATOM     18  C   LIG    1       25.176 -29.435   8.172  0.00  0.00    +0.000 A 
ATOM     19  C   LIG    1       25.737 -28.187   7.893  0.00  0.00    +0.007 A 
ENDBRANCH  13  14
BRANCH  13  20
ATOM     20  O   LIG    1       27.202 -26.408   5.553  0.00  0.00    -0.376 OA
ATOM     21  H   LIG    1       27.625 -27.225   5.881  0.00  0.00    +0.211 HD
ENDBRANCH  13  20
ENDBRANCH   1  13
TORSDOF 5
ENDMDL
MODEL 4
REMARK VINA RESULT:      -8.4      4.574      8.337
REMARK  Name = *****
REMARK                            x       y       z     vdW  Elec       q    Type
REMARK                         _______ _______ _______ _____ _____    ______ ____
ROOT
ATOM      1  C   LIG    1       25.386 -25.505   5.565  0.00  0.00    +0.341 C 
ATOM      2  O   LIG    1       25.141 -25.556   4.363  0.00  0.00    -0.247 OA
ENDROOT
BRANCH   1   3
ATOM      3  O   LIG    1       24.817 -24.640   6.449  0.00  0.00    -0.459 OA
BRANCH   3  11
ATOM      4  C   LIG    1       26.074 -20.530   8.912  0.00  0.00    +0.007 C 
ATOM      5  C   LIG    1       25.686 -21.102   7.549  0.00  0.00    -0.010 C 
ATOM      6  C   LIG    1       24.373 -20.473   7.058  0.00  0.00    +0.010 C 
ATOM      7  C   LIG    1       23.900 -21.033   5.699  0.00  0.00    -0.031 C 
ATOM      8  C   LIG    1       22.494 -20.484   5.389  0.00  0.00    +0.011 C 
ATOM      9  C   LIG    1       24.841 -20.583   4.565  0.00  0.00    +0.011 C 
ATOM     10  C   LIG    1       23.829 -22.574   5.772  0.00  0.00    +0.051 C 
ATOM     11  C   LIG    1       25.116 -23.236   6.279  0.00  0.00    +0.177 C 
ATOM     12  C   LIG    1       25.566 -22.631   7.614  0.00  0.00    +0.048 C 
ENDBRANCH   3  11
ENDBRANCH   1   3
BRANCH   1  13
ATOM     13  C   LIG    1       26.415 -26.415   6.255  0.00  0.00    +0.253 C 
BRANCH  13  14
ATOM     14  C   LIG    1       25.791 -27.594   6.973  0.00  0.00    -0.008 A 
ATOM     15  C   LIG    1       24.712 -28.302   6.416  0.00  0.00    +0.007 A 
ATOM     16  C   LIG    1       24.167 -29.405   7.080  0.00  0.00    +0.000 A 
ATOM     17  C   LIG    1       24.686 -29.807   8.307  0.00  0.00    +0.000 A 
ATOM     18  C   LIG    1       25.755 -29.114   8.873  0.00  0.00    +0.000 A 
ATOM     19  C   LIG    1       26.299 -28.012   8.209  0.00  0.00    +0.007 A 
ENDBRANCH  13  14
BRANCH  13  20
ATOM     20  O   LIG    1       27.388 -26.928   5.340  0.00  0.00    -0.376 OA
ATOM     21  H   LIG    1       28.082 -27.344   5.887  0.00  0.00    +0.211 HD
ENDBRANCH  13  20
ENDBRANCH   1  13
TORSDOF 5
ENDMDL
MODEL 5
REMARK VINA RESULT:      -8.3      0.905      2.305
REMARK  Name = *****
REMARK                            x       y       z     vdW  Elec       q    Type
REMARK                         _______ _______ _______ _____ _____    ______ ____
ROOT
ATOM      1  C   LIG    1       29.212 -20.292   7.615  0.00  0.00    +0.341 C 
ATOM      2  O   LIG    1       29.236 -21.026   8.599  0.00  0.00    -0.247 OA
ENDROOT
BRANCH   1   3
ATOM      3  O   LIG    1       28.222 -20.260   6.681  0.00  0.00    -0.459 OA
BRANCH   3  11
ATOM      4  C   LIG    1       25.828 -24.584   7.009  0.00  0.00    +0.007 C 
ATOM      5  C   LIG    1       25.694 -23.066   7.141  0.00  0.00    -0.010 C 
ATOM      6  C   LIG    1       24.690 -22.525   6.111  0.00  0.00    +0.010 C 
ATOM      7  C   LIG    1       24.533 -20.990   6.163  0.00  0.00    -0.031 C 
ATOM      8  C   LIG    1       23.659 -20.534   4.979  0.00  0.00    +0.011 C 
ATOM      9  C   LIG    1       23.828 -20.557   7.463  0.00  0.00    +0.011 C 
ATOM     10  C   LIG    1       25.921 -20.324   6.045  0.00  0.00    +0.051 C 
ATOM     11  C   LIG    1       26.957 -20.856   7.044  0.00  0.00    +0.177 C 
ATOM     12  C   LIG    1       27.060 -22.384   6.980  0.00  0.00    +0.048 C 
ENDBRANCH   3  11
ENDBRANCH   1   3
BRANCH   1  13
ATOM     13  C   LIG    1       30.337 -19.300   7.275  0.00  0.00    +0.253 C 
BRANCH  13  14
ATOM     14  C   LIG    1       30.731 -18.416   8.440  0.00  0.00    -0.008 A 
ATOM     15  C   LIG    1       32.029 -17.889   8.553  0.00  0.00    +0.007 A 
ATOM     16  C   LIG    1       32.367 -17.052   9.619  0.00  0.00    +0.000 A 
ATOM     17  C   LIG    1       31.418 -16.737  10.587  0.00  0.00    +0.000 A 
ATOM     18  C   LIG    1       30.127 -17.253  10.491  0.00  0.00    +0.000 A 
ATOM     19  C   LIG    1       29.790 -18.090   9.424  0.00  0.00    +0.007 A 
ENDBRANCH  13  14
BRANCH  13  20
ATOM     20  O   LIG    1       31.518 -19.957   6.807  0.00  0.00    -0.376 OA
ATOM     21  H   LIG    1       31.238 -20.848   6.524  0.00  0.00    +0.211 HD
ENDBRANCH  13  20
ENDBRANCH   1  13
TORSDOF 5
ENDMDL
MODEL 6
REMARK VINA RESULT:      -8.2      1.191      2.400
REMARK  Name = *****
REMARK                            x       y       z     vdW  Elec       q    Type
REMARK                         _______ _______ _______ _____ _____    ______ ____
ROOT
ATOM      1  C   LIG    1       28.382 -20.168   7.244  0.00  0.00    +0.341 C 
ATOM      2  O   LIG    1       28.195 -19.915   6.057  0.00  0.00    -0.247 OA
ENDROOT
BRANCH   1   3
ATOM      3  O   LIG    1       27.410 -20.258   8.193  0.00  0.00    -0.459 OA
BRANCH   3  11
ATOM      4  C   LIG    1       25.876 -24.746   6.763  0.00  0.00    +0.007 C 
ATOM      5  C   LIG    1       25.443 -23.307   7.045  0.00  0.00    -0.010 C 
ATOM      6  C   LIG    1       24.897 -22.653   5.767  0.00  0.00    +0.010 C 
ATOM      7  C   LIG    1       24.474 -21.181   5.970  0.00  0.00    -0.031 C 
ATOM      8  C   LIG    1       24.124 -20.565   4.602  0.00  0.00    +0.011 C 
ATOM      9  C   LIG    1       23.221 -21.090   6.861  0.00  0.00    +0.011 C 
ATOM     10  C   LIG    1       25.646 -20.388   6.589  0.00  0.00    +0.051 C 
ATOM     11  C   LIG    1       26.232 -21.024   7.855  0.00  0.00    +0.177 C 
ATOM     12  C   LIG    1       26.610 -22.490   7.619  0.00  0.00    +0.048 C 
ENDBRANCH   3  11
ENDBRANCH   1   3
BRANCH   1  13
ATOM     13  C   LIG    1       29.778 -20.398   7.847  0.00  0.00    +0.253 C 
BRANCH  13  14
ATOM     14  C   LIG    1       30.392 -19.145   8.436  0.00  0.00    -0.008 A 
ATOM     15  C   LIG    1       29.693 -18.354   9.364  0.00  0.00    +0.007 A 
ATOM     16  C   LIG    1       30.286 -17.217   9.919  0.00  0.00    +0.000 A 
ATOM     17  C   LIG    1       31.577 -16.852   9.550  0.00  0.00    +0.000 A 
ATOM     18  C   LIG    1       32.283 -17.625   8.629  0.00  0.00    +0.000 A 
ATOM     19  C   LIG    1       31.689 -18.762   8.075  0.00  0.00    +0.007 A 
ENDBRANCH  13  14
BRANCH  13  20
ATOM     20  O   LIG    1       29.772 -21.402   8.866  0.00  0.00    -0.376 OA
ATOM     21  H   LIG    1       30.682 -21.753   8.904  0.00  0.00    +0.211 HD
ENDBRANCH  13  20
ENDBRANCH   1  13
TORSDOF 5
ENDMDL
MODEL 7
REMARK VINA RESULT:      -8.0      2.688      4.085
REMARK  Name = *****
REMARK                            x       y       z     vdW  Elec       q    Type
REMARK                         _______ _______ _______ _____ _____    ______ ____
ROOT
ATOM      1  C   LIG    1       26.567 -21.319   8.068  0.00  0.00    +0.341 C 
ATOM      2  O   LIG    1       26.046 -21.001   9.134  0.00  0.00    -0.247 OA
ENDROOT
BRANCH   1   3
ATOM      3  O   LIG    1       26.818 -22.595   7.664  0.00  0.00    -0.459 OA
BRANCH   3  11
ATOM      4  C   LIG    1       21.973 -23.092   6.763  0.00  0.00    +0.007 C 
ATOM      5  C   LIG    1       23.375 -23.521   6.333  0.00  0.00    -0.010 C 
ATOM      6  C   LIG    1       23.553 -25.036   6.519  0.00  0.00    +0.010 C 
ATOM      7  C   LIG    1       24.964 -25.535   6.138  0.00  0.00    -0.031 C 
ATOM      8  C   LIG    1       25.098 -27.018   6.536  0.00  0.00    +0.011 C 
ATOM      9  C   LIG    1       25.186 -25.434   4.617  0.00  0.00    +0.011 C 
ATOM     10  C   LIG    1       26.026 -24.715   6.902  0.00  0.00    +0.051 C 
ATOM     11  C   LIG    1       25.866 -23.197   6.758  0.00  0.00    +0.177 C 
ATOM     12  C   LIG    1       24.446 -22.748   7.117  0.00  0.00    +0.048 C 
ENDBRANCH   3  11
ENDBRANCH   1   3
BRANCH   1  13
ATOM     13  C   LIG    1       27.046 -20.296   7.026  0.00  0.00    +0.253 C 
BRANCH  13  14
ATOM     14  C   LIG    1       28.527 -19.990   7.121  0.00  0.00    -0.008 A 
ATOM     15  C   LIG    1       29.348 -20.631   8.064  0.00  0.00    +0.007 A 
ATOM     16  C   LIG    1       30.718 -20.357   8.118  0.00  0.00    +0.000 A 
ATOM     17  C   LIG    1       31.281 -19.436   7.239  0.00  0.00    +0.000 A 
ATOM     18  C   LIG    1       30.479 -18.790   6.299  0.00  0.00    +0.000 A 
ATOM     19  C   LIG    1       29.110 -19.065   6.246  0.00  0.00    +0.007 A 
ENDBRANCH  13  14
BRANCH  13  20
ATOM     20  O   LIG    1       26.773 -20.715   5.686  0.00  0.00    -0.376 OA
ATOM     21  H   LIG    1       26.753 -21.691   5.706  0.00  0.00    +0.211 HD
ENDBRANCH  13  20
ENDBRANCH   1  13
TORSDOF 5
ENDMDL
MODEL 8
REMARK VINA RESULT:      -7.9      1.861      7.349
REMARK  Name = *****
REMARK                            x       y       z     vdW  Elec       q    Type
REMARK                         _______ _______ _______ _____ _____    ______ ____
ROOT
ATOM      1  C   LIG    1       26.373 -20.476   6.671  0.00  0.00    +0.341 C 
ATOM      2  O   LIG    1       26.746 -20.258   5.521  0.00  0.00    -0.247 OA
ENDROOT
BRANCH   1   3
ATOM      3  O   LIG    1       27.133 -20.311   7.789  0.00  0.00    -0.459 OA
BRANCH   3  11
ATOM      4  C   LIG    1       31.321 -22.467   9.321  0.00  0.00    +0.007 C 
ATOM      5  C   LIG    1       30.731 -21.355   8.454  0.00  0.00    -0.010 C 
ATOM      6  C   LIG    1       31.188 -19.979   8.964  0.00  0.00    +0.010 C 
ATOM      7  C   LIG    1       30.598 -18.803   8.155  0.00  0.00    -0.031 C 
ATOM      8  C   LIG    1       30.959 -17.479   8.856  0.00  0.00    +0.011 C 
ATOM      9  C   LIG    1       31.195 -18.763   6.736  0.00  0.00    +0.011 C 
ATOM     10  C   LIG    1       29.060 -18.935   8.099  0.00  0.00    +0.051 C 
ATOM     11  C   LIG    1       28.567 -20.304   7.614  0.00  0.00    +0.177 C 
ATOM     12  C   LIG    1       29.199 -21.443   8.423  0.00  0.00    +0.048 C 
ENDBRANCH   3  11
ENDBRANCH   1   3
BRANCH   1  13
ATOM     13  C   LIG    1       24.973 -21.006   7.017  0.00  0.00    +0.253 C 
BRANCH  13  14
ATOM     14  C   LIG    1       24.831 -22.502   6.826  0.00  0.00    -0.008 A 
ATOM     15  C   LIG    1       25.955 -23.346   6.798  0.00  0.00    +0.007 A 
ATOM     16  C   LIG    1       25.803 -24.727   6.649  0.00  0.00    +0.000 A 
ATOM     17  C   LIG    1       24.533 -25.280   6.519  0.00  0.00    +0.000 A 
ATOM     18  C   LIG    1       23.408 -24.456   6.543  0.00  0.00    +0.000 A 
ATOM     19  C   LIG    1       23.561 -23.076   6.692  0.00  0.00    +0.007 A 
ENDBRANCH  13  14
BRANCH  13  20
ATOM     20  O   LIG    1       24.592 -20.700   8.362  0.00  0.00    -0.376 OA
ATOM     21  H   LIG    1       24.730 -21.519   8.875  0.00  0.00    +0.211 HD
ENDBRANCH  13  20
ENDBRANCH   1  13
TORSDOF 5
ENDMDL
MODEL 9
REMARK VINA RESULT:      -7.8      2.200      7.199
REMARK  Name = *****
REMARK                            x       y       z     vdW  Elec       q    Type
REMARK                         _______ _______ _______ _____ _____    ______ ____
ROOT
ATOM      1  C   LIG    1       25.977 -21.550   8.294  0.00  0.00    +0.341 C 
ATOM      2  O   LIG    1       25.823 -21.220   9.467  0.00  0.00    -0.247 OA
ENDROOT
BRANCH   1   3
ATOM      3  O   LIG    1       27.173 -21.622   7.648  0.00  0.00    -0.459 OA
BRANCH   3  11
ATOM      4  C   LIG    1       29.389 -18.119   4.935  0.00  0.00    +0.007 C 
ATOM      5  C   LIG    1       29.242 -18.709   6.337  0.00  0.00    -0.010 C 
ATOM      6  C   LIG    1       30.590 -19.257   6.832  0.00  0.00    +0.010 C 
ATOM      7  C   LIG    1       30.508 -19.903   8.232  0.00  0.00    -0.031 C 
ATOM      8  C   LIG    1       31.853 -20.584   8.551  0.00  0.00    +0.011 C 
ATOM      9  C   LIG    1       30.252 -18.836   9.312  0.00  0.00    +0.011 C 
ATOM     10  C   LIG    1       29.393 -20.972   8.243  0.00  0.00    +0.051 C 
ATOM     11  C   LIG    1       28.037 -20.466   7.734  0.00  0.00    +0.177 C 
ATOM     12  C   LIG    1       28.168 -19.807   6.357  0.00  0.00    +0.048 C 
ENDBRANCH   3  11
ENDBRANCH   1   3
BRANCH   1  13
ATOM     13  C   LIG    1       24.811 -21.910   7.360  0.00  0.00    +0.253 C 
BRANCH  13  14
ATOM     14  C   LIG    1       24.771 -23.378   6.986  0.00  0.00    -0.008 A 
ATOM     15  C   LIG    1       23.576 -23.997   6.579  0.00  0.00    +0.007 A 
ATOM     16  C   LIG    1       23.564 -25.345   6.211  0.00  0.00    +0.000 A 
ATOM     17  C   LIG    1       24.738 -26.091   6.251  0.00  0.00    +0.000 A 
ATOM     18  C   LIG    1       25.930 -25.492   6.655  0.00  0.00    +0.000 A 
ATOM     19  C   LIG    1       25.942 -24.144   7.023  0.00  0.00    +0.007 A 
ENDBRANCH  13  14
BRANCH  13  20
ATOM     20  O   LIG    1       23.540 -21.567   7.918  0.00  0.00    -0.376 OA
ATOM     21  H   LIG    1       23.495 -22.015   8.785  0.00  0.00    +0.211 HD
ENDBRANCH  13  20
ENDBRANCH   1  13
TORSDOF 5
ENDMDL
