MODEL 1
REMARK VINA RESULT:      -8.0      0.000      0.000
REMARK  Name = *****
REMARK                            x       y       z     vdW  Elec       q    Type
REMARK                         _______ _______ _______ _____ _____    ______ ____
ROOT
ATOM      1  CG  TRP A  1       28.192 -20.014   7.019  0.00  0.00    -0.020 C 
ATOM      2  CD2 TRP A  1       26.804 -20.370   7.109  0.00  0.00    +0.003 C 
ATOM      3  CE2 TRP A  1       26.287 -20.384   5.812  0.00  0.00    +0.047 C 
ATOM      4  CZ2 TRP A  1       24.950 -20.685   5.527  0.00  0.00    +0.026 C 
ATOM      5  CH2 TRP A  1       24.106 -20.974   6.603  0.00  0.00    +0.002 C 
ATOM      6  CZ3 TRP A  1       24.587 -20.966   7.909  0.00  0.00    +0.001 C 
ATOM      7  NE1 TRP A  1       27.315 -20.045   4.964  0.00  0.00    -0.360 NA
ATOM      8  HE1 TRP A  1       27.222 -19.964   3.961  0.00  0.00    +0.165 HD
ATOM      9  CE3 TRP A  1       25.930 -20.667   8.176  0.00  0.00    +0.010 C 
ATOM     10  CD1 TRP A  1       28.457 -19.800   5.679  0.00  0.00    +0.087 C 
ENDROOT
BRANCH   1  11
ATOM     11  CB  TRP A  1       29.164 -19.845   8.154  0.00  0.00    +0.067 C 
BRANCH  11  12
ATOM     12  CA  TRP A  1       30.636 -20.059   7.760  0.00  0.00    +0.165 C 
BRANCH  12  13
ATOM     13  N   TRP A  1       31.214 -21.361   8.237  0.00  0.00    -0.318 NA
ATOM     14  H1  TRP A  1       31.628 -21.832   7.425  0.00  0.00    +0.119 HD
ATOM     15  H2  TRP A  1       32.034 -21.128   8.808  0.00  0.00    +0.119 HD
ENDBRANCH  12  13
BRANCH  12  16
ATOM     16  C   TRP A  1       31.510 -18.927   8.335  0.00  0.00    +0.322 C 
ATOM     17  O   TRP A  1       31.639 -17.813   7.865  0.00  0.00    -0.249 OA
BRANCH  16  18
ATOM     18  OXT TRP A  1       32.174 -19.348   9.449  0.00  0.00    -0.479 OA
ATOM     19  HXT TRP A  1       31.874 -20.282   9.596  0.00  0.00    +0.295 HD
ENDBRANCH  16  18
ENDBRANCH  12  16
ENDBRANCH  11  12
ENDBRANCH   1  11
TORSDOF 5
ENDMDL
MODEL 2
REMARK VINA RESULT:      -7.9      1.841      2.703
REMARK  Name = *****
REMARK                            x       y       z     vdW  Elec       q    Type
REMARK                         _______ _______ _______ _____ _____    ______ ____
ROOT
ATOM      1  CG  TRP A  1       26.924 -20.467   6.984  0.00  0.00    -0.020 C 
ATOM      2  CD2 TRP A  1       25.658 -20.534   6.310  0.00  0.00    +0.003 C 
ATOM      3  CE2 TRP A  1       24.670 -20.691   7.283  0.00  0.00    +0.047 C 
ATOM      4  CZ2 TRP A  1       23.308 -20.800   6.976  0.00  0.00    +0.026 C 
ATOM      5  CH2 TRP A  1       22.941 -20.756   5.628  0.00  0.00    +0.002 C 
ATOM      6  CZ3 TRP A  1       23.900 -20.602   4.632  0.00  0.00    +0.001 C 
ATOM      7  NE1 TRP A  1       25.304 -20.725   8.501  0.00  0.00    -0.360 NA
ATOM      8  HE1 TRP A  1       24.832 -20.845   9.387  0.00  0.00    +0.165 HD
ATOM      9  CE3 TRP A  1       25.258 -20.490   4.957  0.00  0.00    +0.010 C 
ATOM     10  CD1 TRP A  1       26.659 -20.614   8.333  0.00  0.00    +0.087 C 
ENDROOT
BRANCH   1  11
ATOM     11  CB  TRP A  1       28.284 -20.327   6.357  0.00  0.00    +0.067 C 
BRANCH  11  12
ATOM     12  CA  TRP A  1       29.257 -19.442   7.155  0.00  0.00    +0.165 C 
BRANCH  12  13
ATOM     13  N   TRP A  1       29.972 -18.415   6.324  0.00  0.00    -0.318 NA
ATOM     14  H1  TRP A  1       29.671 -18.539   5.351  0.00  0.00    +0.119 HD
ATOM     15  H2  TRP A  1       29.572 -17.503   6.573  0.00  0.00    +0.119 HD
ENDBRANCH  12  13
BRANCH  12  16
ATOM     16  C   TRP A  1       30.331 -20.314   7.836  0.00  0.00    +0.322 C 
ATOM     17  O   TRP A  1       30.145 -21.096   8.749  0.00  0.00    -0.249 OA
BRANCH  16  18
ATOM     18  OXT TRP A  1       31.561 -20.071   7.301  0.00  0.00    -0.479 OA
ATOM     19  HXT TRP A  1       31.648 -20.704   6.542  0.00  0.00    +0.295 HD
ENDBRANCH  16  18
ENDBRANCH  12  16
ENDBRANCH  11  12
ENDBRANCH   1  11
TORSDOF 5
ENDMDL
MODEL 3
REMARK VINA RESULT:      -7.4      2.544      3.355
REMARK  Name = *****
REMARK                            x       y       z     vdW  Elec       q    Type
REMARK                         _______ _______ _______ _____ _____    ______ ____
ROOT
ATOM      1  CG  TRP A  1       26.244 -21.544   7.528  0.00  0.00    -0.020 C 
ATOM      2  CD2 TRP A  1       25.538 -22.729   7.130  0.00  0.00    +0.003 C 
ATOM      3  CE2 TRP A  1       24.172 -22.450   7.197  0.00  0.00    +0.047 C 
ATOM      4  CZ2 TRP A  1       23.184 -23.391   6.882  0.00  0.00    +0.026 C 
ATOM      5  CH2 TRP A  1       23.604 -24.666   6.493  0.00  0.00    +0.002 C 
ATOM      6  CZ3 TRP A  1       24.958 -24.980   6.416  0.00  0.00    +0.001 C 
ATOM      7  NE1 TRP A  1       24.047 -21.150   7.625  0.00  0.00    -0.360 NA
ATOM      8  HE1 TRP A  1       23.163 -20.683   7.778  0.00  0.00    +0.165 HD
ATOM      9  CE3 TRP A  1       25.933 -24.024   6.731  0.00  0.00    +0.010 C 
ATOM     10  CD1 TRP A  1       25.282 -20.603   7.847  0.00  0.00    +0.087 C 
ENDROOT
BRANCH   1  11
ATOM     11  CB  TRP A  1       27.733 -21.365   7.639  0.00  0.00    +0.067 C 
BRANCH  11  12
ATOM     12  CA  TRP A  1       28.282 -20.161   6.854  0.00  0.00    +0.165 C 
BRANCH  12  13
ATOM     13  N   TRP A  1       27.953 -20.183   5.389  0.00  0.00    -0.318 NA
ATOM     14  H1  TRP A  1       27.502 -21.082   5.187  0.00  0.00    +0.119 HD
ATOM     15  H2  TRP A  1       27.193 -19.509   5.247  0.00  0.00    +0.119 HD
ENDBRANCH  12  13
BRANCH  12  16
ATOM     16  C   TRP A  1       29.818 -20.100   6.982  0.00  0.00    +0.322 C 
ATOM     17  O   TRP A  1       30.548 -19.279   6.459  0.00  0.00    -0.249 OA
BRANCH  16  18
ATOM     18  OXT TRP A  1       30.280 -21.131   7.745  0.00  0.00    -0.479 OA
ATOM     19  HXT TRP A  1       31.011 -21.543   7.215  0.00  0.00    +0.295 HD
ENDBRANCH  16  18
ENDBRANCH  12  16
ENDBRANCH  11  12
ENDBRANCH   1  11
TORSDOF 5
ENDMDL
MODEL 4
REMARK VINA RESULT:      -7.3      3.939      5.088
REMARK  Name = *****
REMARK                            x       y       z     vdW  Elec       q    Type
REMARK                         _______ _______ _______ _____ _____    ______ ____
ROOT
ATOM      1  CG  TRP A  1       24.202 -22.370   6.887  0.00  0.00    -0.020 C 
ATOM      2  CD2 TRP A  1       24.767 -23.667   6.641  0.00  0.00    +0.003 C 
ATOM      3  CE2 TRP A  1       23.709 -24.563   6.472  0.00  0.00    +0.047 C 
ATOM      4  CZ2 TRP A  1       23.898 -25.927   6.222  0.00  0.00    +0.026 C 
ATOM      5  CH2 TRP A  1       25.212 -26.398   6.150  0.00  0.00    +0.002 C 
ATOM      6  CZ3 TRP A  1       26.290 -25.533   6.315  0.00  0.00    +0.001 C 
ATOM      7  NE1 TRP A  1       22.546 -23.845   6.615  0.00  0.00    -0.360 NA
ATOM      8  HE1 TRP A  1       21.619 -24.245   6.555  0.00  0.00    +0.165 HD
ATOM      9  CE3 TRP A  1       26.083 -24.170   6.561  0.00  0.00    +0.010 C 
ATOM     10  CD1 TRP A  1       22.829 -22.533   6.886  0.00  0.00    +0.087 C 
ENDROOT
BRANCH   1  11
ATOM     11  CB  TRP A  1       24.943 -21.089   7.156  0.00  0.00    +0.067 C 
BRANCH  11  12
ATOM     12  CA  TRP A  1       26.111 -21.235   8.148  0.00  0.00    +0.165 C 
BRANCH  12  13
ATOM     13  N   TRP A  1       25.892 -20.535   9.459  0.00  0.00    -0.318 NA
ATOM     14  H1  TRP A  1       25.022 -20.899   9.862  0.00  0.00    +0.119 HD
ATOM     15  H2  TRP A  1       26.608 -20.886  10.104  0.00  0.00    +0.119 HD
ENDBRANCH  12  13
BRANCH  12  16
ATOM     16  C   TRP A  1       27.404 -20.666   7.531  0.00  0.00    +0.322 C 
ATOM     17  O   TRP A  1       28.291 -20.090   8.132  0.00  0.00    -0.249 OA
BRANCH  16  18
ATOM     18  OXT TRP A  1       27.420 -20.857   6.181  0.00  0.00    -0.479 OA
ATOM     19  HXT TRP A  1       28.007 -20.143   5.821  0.00  0.00    +0.295 HD
ENDBRANCH  16  18
ENDBRANCH  12  16
ENDBRANCH  11  12
ENDBRANCH   1  11
TORSDOF 5
ENDMDL
MODEL 5
REMARK VINA RESULT:      -7.2      4.001      5.870
REMARK  Name = *****
REMARK                            x       y       z     vdW  Elec       q    Type
REMARK                         _______ _______ _______ _____ _____    ______ ____
ROOT
ATOM      1  CG  TRP A  1       25.302 -21.060   6.078  0.00  0.00    -0.020 C 
ATOM      2  CD2 TRP A  1       26.578 -20.613   6.560  0.00  0.00    +0.003 C 
ATOM      3  CE2 TRP A  1       27.203 -19.922   5.520  0.00  0.00    +0.047 C 
ATOM      4  CZ2 TRP A  1       28.477 -19.352   5.640  0.00  0.00    +0.026 C 
ATOM      5  CH2 TRP A  1       29.141 -19.500   6.861  0.00  0.00    +0.002 C 
ATOM      6  CZ3 TRP A  1       28.548 -20.185   7.918  0.00  0.00    +0.001 C 
ATOM      7  NE1 TRP A  1       26.348 -19.950   4.445  0.00  0.00    -0.360 NA
ATOM      8  HE1 TRP A  1       26.549 -19.536   3.545  0.00  0.00    +0.165 HD
ATOM      9  CE3 TRP A  1       27.272 -20.744   7.782  0.00  0.00    +0.010 C 
ATOM     10  CD1 TRP A  1       25.213 -20.648   4.761  0.00  0.00    +0.087 C 
ENDROOT
BRANCH   1  11
ATOM     11  CB  TRP A  1       24.278 -21.869   6.826  0.00  0.00    +0.067 C 
BRANCH  11  12
ATOM     12  CA  TRP A  1       23.776 -23.108   6.064  0.00  0.00    +0.165 C 
BRANCH  12  13
ATOM     13  N   TRP A  1       22.615 -23.801   6.718  0.00  0.00    -0.318 NA
ATOM     14  H1  TRP A  1       22.402 -23.296   7.586  0.00  0.00    +0.119 HD
ATOM     15  H2  TRP A  1       21.792 -23.611   6.136  0.00  0.00    +0.119 HD
ENDBRANCH  12  13
BRANCH  12  16
ATOM     16  C   TRP A  1       24.912 -24.142   5.925  0.00  0.00    +0.322 C 
ATOM     17  O   TRP A  1       25.729 -24.427   6.780  0.00  0.00    -0.249 OA
BRANCH  16  18
ATOM     18  OXT TRP A  1       24.915 -24.690   4.677  0.00  0.00    -0.479 OA
ATOM     19  HXT TRP A  1       25.730 -25.255   4.641  0.00  0.00    +0.295 HD
ENDBRANCH  16  18
ENDBRANCH  12  16
ENDBRANCH  11  12
ENDBRANCH   1  11
TORSDOF 5
ENDMDL
MODEL 6
REMARK VINA RESULT:      -7.2      5.989      7.069
REMARK  Name = *****
REMARK                            x       y       z     vdW  Elec       q    Type
REMARK                         _______ _______ _______ _____ _____    ______ ____
ROOT
ATOM      1  CG  TRP A  1       24.949 -24.687   6.742  0.00  0.00    -0.020 C 
ATOM      2  CD2 TRP A  1       25.041 -23.304   7.114  0.00  0.00    +0.003 C 
ATOM      3  CE2 TRP A  1       23.773 -22.741   6.963  0.00  0.00    +0.047 C 
ATOM      4  CZ2 TRP A  1       23.499 -21.394   7.232  0.00  0.00    +0.026 C 
ATOM      5  CH2 TRP A  1       24.558 -20.590   7.662  0.00  0.00    +0.002 C 
ATOM      6  CZ3 TRP A  1       25.836 -21.118   7.821  0.00  0.00    +0.001 C 
ATOM      7  NE1 TRP A  1       22.940 -23.737   6.512  0.00  0.00    -0.360 NA
ATOM      8  HE1 TRP A  1       21.960 -23.608   6.302  0.00  0.00    +0.165 HD
ATOM      9  CE3 TRP A  1       26.091 -22.469   7.552  0.00  0.00    +0.010 C 
ATOM     10  CD1 TRP A  1       23.640 -24.903   6.355  0.00  0.00    +0.087 C 
ENDROOT
BRANCH   1  11
ATOM     11  CB  TRP A  1       26.061 -25.700   6.715  0.00  0.00    +0.067 C 
BRANCH  11  12
ATOM     12  CA  TRP A  1       25.583 -27.161   6.765  0.00  0.00    +0.165 C 
BRANCH  12  13
ATOM     13  N   TRP A  1       26.269 -27.994   7.810  0.00  0.00    -0.318 NA
ATOM     14  H1  TRP A  1       26.539 -28.881   7.370  0.00  0.00    +0.119 HD
ATOM     15  H2  TRP A  1       27.173 -27.547   7.998  0.00  0.00    +0.119 HD
ENDBRANCH  12  13
BRANCH  12  16
ATOM     16  C   TRP A  1       25.819 -27.844   5.402  0.00  0.00    +0.322 C 
ATOM     17  O   TRP A  1       25.137 -28.725   4.916  0.00  0.00    -0.249 OA
BRANCH  16  18
ATOM     18  OXT TRP A  1       26.942 -27.353   4.805  0.00  0.00    -0.479 OA
ATOM     19  HXT TRP A  1       26.993 -27.811   3.926  0.00  0.00    +0.295 HD
ENDBRANCH  16  18
ENDBRANCH  12  16
ENDBRANCH  11  12
ENDBRANCH   1  11
TORSDOF 5
ENDMDL
MODEL 7
REMARK VINA RESULT:      -7.1      3.952      6.147
REMARK  Name = *****
REMARK                            x       y       z     vdW  Elec       q    Type
REMARK                         _______ _______ _______ _____ _____    ______ ____
ROOT
ATOM      1  CG  TRP A  1       26.812 -20.935   6.923  0.00  0.00    -0.020 C 
ATOM      2  CD2 TRP A  1       28.010 -20.195   6.640  0.00  0.00    +0.003 C 
ATOM      3  CE2 TRP A  1       28.944 -20.512   7.628  0.00  0.00    +0.047 C 
ATOM      4  CZ2 TRP A  1       30.230 -19.959   7.666  0.00  0.00    +0.026 C 
ATOM      5  CH2 TRP A  1       30.573 -19.044   6.667  0.00  0.00    +0.002 C 
ATOM      6  CZ3 TRP A  1       29.665 -18.704   5.668  0.00  0.00    +0.001 C 
ATOM      7  NE1 TRP A  1       28.342 -21.404   8.483  0.00  0.00    -0.360 NA
ATOM      8  HE1 TRP A  1       28.785 -21.795   9.303  0.00  0.00    +0.165 HD
ATOM      9  CE3 TRP A  1       28.384 -19.270   5.643  0.00  0.00    +0.010 C 
ATOM     10  CD1 TRP A  1       27.056 -21.649   8.082  0.00  0.00    +0.087 C 
ENDROOT
BRANCH   1  11
ATOM     11  CB  TRP A  1       25.520 -20.905   6.155  0.00  0.00    +0.067 C 
BRANCH  11  12
ATOM     12  CA  TRP A  1       24.840 -22.278   6.013  0.00  0.00    +0.165 C 
BRANCH  12  13
ATOM     13  N   TRP A  1       24.500 -22.650   4.597  0.00  0.00    -0.318 NA
ATOM     14  H1  TRP A  1       24.280 -21.783   4.094  0.00  0.00    +0.119 HD
ATOM     15  H2  TRP A  1       25.374 -22.956   4.155  0.00  0.00    +0.119 HD
ENDBRANCH  12  13
BRANCH  12  16
ATOM     16  C   TRP A  1       23.529 -22.307   6.825  0.00  0.00    +0.322 C 
ATOM     17  O   TRP A  1       23.249 -21.579   7.759  0.00  0.00    -0.249 OA
BRANCH  16  18
ATOM     18  OXT TRP A  1       22.709 -23.302   6.382  0.00  0.00    -0.479 OA
ATOM     19  HXT TRP A  1       23.289 -24.103   6.302  0.00  0.00    +0.295 HD
ENDBRANCH  16  18
ENDBRANCH  12  16
ENDBRANCH  11  12
ENDBRANCH   1  11
TORSDOF 5
ENDMDL
MODEL 8
REMARK VINA RESULT:      -7.1      4.680      5.664
REMARK  Name = *****
REMARK                            x       y       z     vdW  Elec       q    Type
REMARK                         _______ _______ _______ _____ _____    ______ ____
ROOT
ATOM      1  CG  TRP A  1       25.310 -23.790   6.817  0.00  0.00    -0.020 C 
ATOM      2  CD2 TRP A  1       25.480 -25.119   6.301  0.00  0.00    +0.003 C 
ATOM      3  CE2 TRP A  1       24.209 -25.635   6.039  0.00  0.00    +0.047 C 
ATOM      4  CZ2 TRP A  1       23.999 -26.923   5.530  0.00  0.00    +0.026 C 
ATOM      5  CH2 TRP A  1       25.124 -27.716   5.287  0.00  0.00    +0.002 C 
ATOM      6  CZ3 TRP A  1       26.405 -27.233   5.539  0.00  0.00    +0.001 C 
ATOM      7  NE1 TRP A  1       23.300 -24.665   6.386  0.00  0.00    -0.360 NA
ATOM      8  HE1 TRP A  1       22.297 -24.772   6.314  0.00  0.00    +0.165 HD
ATOM      9  CE3 TRP A  1       26.597 -25.941   6.044  0.00  0.00    +0.010 C 
ATOM     10  CD1 TRP A  1       23.947 -23.562   6.875  0.00  0.00    +0.087 C 
ENDROOT
BRANCH   1  11
ATOM     11  CB  TRP A  1       26.388 -22.843   7.269  0.00  0.00    +0.067 C 
BRANCH  11  12
ATOM     12  CA  TRP A  1       26.015 -21.356   7.138  0.00  0.00    +0.165 C 
BRANCH  12  13
ATOM     13  N   TRP A  1       26.439 -20.730   5.840  0.00  0.00    -0.318 NA
ATOM     14  H1  TRP A  1       27.113 -21.364   5.396  0.00  0.00    +0.119 HD
ATOM     15  H2  TRP A  1       25.630 -20.779   5.210  0.00  0.00    +0.119 HD
ENDBRANCH  12  13
BRANCH  12  16
ATOM     16  C   TRP A  1       26.665 -20.544   8.276  0.00  0.00    +0.322 C 
ATOM     17  O   TRP A  1       27.755 -20.005   8.240  0.00  0.00    -0.249 OA
BRANCH  16  18
ATOM     18  OXT TRP A  1       25.863 -20.533   9.380  0.00  0.00    -0.479 OA
ATOM     19  HXT TRP A  1       25.569 -21.473   9.500  0.00  0.00    +0.295 HD
ENDBRANCH  16  18
ENDBRANCH  12  16
ENDBRANCH  11  12
ENDBRANCH   1  11
TORSDOF 5
ENDMDL
MODEL 9
REMARK VINA RESULT:      -7.1      4.967      5.972
REMARK  Name = *****
REMARK                            x       y       z     vdW  Elec       q    Type
REMARK                         _______ _______ _______ _____ _____    ______ ____
ROOT
ATOM      1  CG  TRP A  1       25.270 -21.450   6.317  0.00  0.00    -0.020 C 
ATOM      2  CD2 TRP A  1       24.320 -20.653   5.593  0.00  0.00    +0.003 C 
ATOM      3  CE2 TRP A  1       25.033 -19.864   4.689  0.00  0.00    +0.047 C 
ATOM      4  CZ2 TRP A  1       24.419 -18.953   3.821  0.00  0.00    +0.026 C 
ATOM      5  CH2 TRP A  1       23.027 -18.836   3.882  0.00  0.00    +0.002 C 
ATOM      6  CZ3 TRP A  1       22.285 -19.606   4.774  0.00  0.00    +0.001 C 
ATOM      7  NE1 TRP A  1       26.365 -20.161   4.857  0.00  0.00    -0.360 NA
ATOM      8  HE1 TRP A  1       27.115 -19.726   4.338  0.00  0.00    +0.165 HD
ATOM      9  CE3 TRP A  1       22.916 -20.515   5.632  0.00  0.00    +0.010 C 
ATOM     10  CD1 TRP A  1       26.520 -21.096   5.845  0.00  0.00    +0.087 C 
ENDROOT
BRANCH   1  11
ATOM     11  CB  TRP A  1       24.982 -22.435   7.417  0.00  0.00    +0.067 C 
BRANCH  11  12
ATOM     12  CA  TRP A  1       24.982 -23.905   6.960  0.00  0.00    +0.165 C 
BRANCH  12  13
ATOM     13  N   TRP A  1       25.893 -24.186   5.800  0.00  0.00    -0.318 NA
ATOM     14  H1  TRP A  1       25.538 -23.660   4.993  0.00  0.00    +0.119 HD
ATOM     15  H2  TRP A  1       26.784 -23.719   6.004  0.00  0.00    +0.119 HD
ENDBRANCH  12  13
BRANCH  12  16
ATOM     16  C   TRP A  1       23.559 -24.331   6.545  0.00  0.00    +0.322 C 
ATOM     17  O   TRP A  1       22.524 -23.783   6.871  0.00  0.00    -0.249 OA
BRANCH  16  18
ATOM     18  OXT TRP A  1       23.598 -25.454   5.773  0.00  0.00    -0.479 OA
ATOM     19  HXT TRP A  1       22.716 -25.890   5.900  0.00  0.00    +0.295 HD
ENDBRANCH  16  18
ENDBRANCH  12  16
ENDBRANCH  11  12
ENDBRANCH   1  11
TORSDOF 5
ENDMDL
