MODEL 1
REMARK VINA RESULT:       1.2      0.000      0.000
REMARK  Name = *****
REMARK                            x       y       z     vdW  Elec       q    Type
REMARK                         _______ _______ _______ _____ _____    ______ ____
ROOT
ATOM      1  C   LIG    1       25.074 -17.097   3.606  0.00  0.00    +0.046 A 
ATOM      2  C   LIG    1       24.591 -15.749   3.870  0.00  0.00    +0.025 A 
ATOM      3  C   LIG    1       23.291 -15.655   4.388  0.00  0.00    +0.074 A 
ATOM      4  C   LIG    1       22.720 -14.417   4.639  0.00  0.00    +0.032 A 
ATOM      5  C   LIG    1       23.410 -13.225   4.438  0.00  0.00    +0.048 A 
ATOM      6  C   LIG    1       24.699 -13.242   3.952  0.00  0.00    +0.121 A 
ATOM      7  N   LIG    1       22.522 -16.697   4.695  0.00  0.00    -0.246 NA
ATOM      8  C   LIG    1       22.955 -17.933   4.433  0.00  0.00    +0.075 A 
ATOM      9  C   LIG    1       22.130 -18.978   4.844  0.00  0.00    +0.048 A 
ATOM     10  C   LIG    1       22.418 -20.320   4.611  0.00  0.00    +0.043 A 
ATOM     11 CL   LIG    1       21.417 -21.571   5.180  0.00  0.00    -0.084 Cl
ATOM     12  C   LIG    1       23.572 -20.635   3.907  0.00  0.00    +0.021 A 
ATOM     13  C   LIG    1       24.408 -19.599   3.520  0.00  0.00    +0.013 A 
ATOM     14  C   LIG    1       25.293 -14.493   3.672  0.00  0.00    +0.057 A 
ATOM     15  C   LIG    1       24.185 -18.211   3.828  0.00  0.00    +0.022 A 
ENDROOT
BRANCH   1  16
ATOM     16  N   LIG    1       26.377 -17.225   3.067  0.00  0.00    -0.340 N 
ATOM     17  H   LIG    1       26.404 -17.111   2.059  0.00  0.00    +0.146 HD
BRANCH  16  18
ATOM     18  C   LIG    1       27.654 -16.837   3.701  0.00  0.00    +0.067 C 
ATOM     19  C   LIG    1       27.775 -15.313   3.674  0.00  0.00    +0.027 C 
BRANCH  18  20
ATOM     20  C   LIG    1       27.858 -17.523   5.087  0.00  0.00    +0.023 C 
BRANCH  20  21
ATOM     21  C   LIG    1       28.271 -19.012   5.100  0.00  0.00    +0.017 C 
BRANCH  21  22
ATOM     22  C   LIG    1       27.193 -20.095   5.248  0.00  0.00    +0.084 C 
BRANCH  22  23
ATOM     23  N   LIG    1       27.448 -21.307   6.064  0.00  0.00    -0.303 NA
BRANCH  23  25
ATOM     24  C   LIG    1       25.165 -20.395   6.948  0.00  0.00    +0.020 C 
ATOM     25  C   LIG    1       26.327 -21.386   7.062  0.00  0.00    +0.081 C 
ENDBRANCH  23  25
BRANCH  23  26
ATOM     26  C   LIG    1       28.744 -21.302   6.780  0.00  0.00    +0.081 C 
ATOM     27  C   LIG    1       29.474 -19.983   7.062  0.00  0.00    +0.020 C 
ENDBRANCH  23  26
ENDBRANCH  22  23
ENDBRANCH  21  22
ENDBRANCH  20  21
ENDBRANCH  18  20
ENDBRANCH  16  18
ENDBRANCH   1  16
BRANCH   6  28
ATOM     28  O   LIG    1       25.476 -12.120   3.813  0.00  0.00    -0.495 OA
ATOM     29  C   LIG    1       26.309 -12.074   2.653  0.00  0.00    +0.277 C 
ENDBRANCH   6  28
TORSDOF 9
ENDMDL
MODEL 2
REMARK VINA RESULT:       1.7      3.356      7.393
REMARK  Name = *****
REMARK                            x       y       z     vdW  Elec       q    Type
REMARK                         _______ _______ _______ _____ _____    ______ ____
ROOT
ATOM      1  C   LIG    1       26.016 -17.300   3.610  0.00  0.00    +0.046 A 
ATOM      2  C   LIG    1       26.754 -18.215   4.469  0.00  0.00    +0.025 A 
ATOM      3  C   LIG    1       27.974 -17.736   4.969  0.00  0.00    +0.074 A 
ATOM      4  C   LIG    1       28.774 -18.541   5.766  0.00  0.00    +0.032 A 
ATOM      5  C   LIG    1       28.395 -19.826   6.144  0.00  0.00    +0.048 A 
ATOM      6  C   LIG    1       27.198 -20.353   5.708  0.00  0.00    +0.121 A 
ATOM      7  N   LIG    1       28.450 -16.512   4.755  0.00  0.00    -0.246 NA
ATOM      8  C   LIG    1       27.786 -15.680   3.949  0.00  0.00    +0.075 A 
ATOM      9  C   LIG    1       28.305 -14.393   3.825  0.00  0.00    +0.048 A 
ATOM     10  C   LIG    1       27.754 -13.420   2.996  0.00  0.00    +0.043 A 
ATOM     11 CL   LIG    1       28.378 -11.840   2.916  0.00  0.00    -0.084 Cl
ATOM     12  C   LIG    1       26.647 -13.756   2.229  0.00  0.00    +0.021 A 
ATOM     13  C   LIG    1       26.113 -15.028   2.369  0.00  0.00    +0.013 A 
ATOM     14  C   LIG    1       26.377 -19.556   4.880  0.00  0.00    +0.057 A 
ATOM     15  C   LIG    1       26.603 -16.023   3.287  0.00  0.00    +0.022 A 
ENDROOT
BRANCH   1  16
ATOM     16  N   LIG    1       24.788 -17.760   3.076  0.00  0.00    -0.340 N 
ATOM     17  H   LIG    1       24.891 -18.586   2.496  0.00  0.00    +0.146 HD
BRANCH  16  18
ATOM     18  C   LIG    1       23.452 -17.688   3.703  0.00  0.00    +0.067 C 
ATOM     19  C   LIG    1       23.073 -19.078   4.217  0.00  0.00    +0.027 C 
BRANCH  18  20
ATOM     20  C   LIG    1       23.343 -16.519   4.730  0.00  0.00    +0.023 C 
BRANCH  20  21
ATOM     21  C   LIG    1       23.352 -15.074   4.179  0.00  0.00    +0.017 C 
BRANCH  21  22
ATOM     22  C   LIG    1       23.497 -13.895   5.152  0.00  0.00    +0.084 C 
BRANCH  22  23
ATOM     23  N   LIG    1       23.831 -12.540   4.650  0.00  0.00    -0.303 NA
BRANCH  23  25
ATOM     24  C   LIG    1       24.429 -11.654   2.266  0.00  0.00    +0.020 C 
ATOM     25  C   LIG    1       23.597 -12.572   3.166  0.00  0.00    +0.081 C 
ENDBRANCH  23  25
BRANCH  23  26
ATOM     26  C   LIG    1       25.222 -12.112   4.921  0.00  0.00    +0.081 C 
ATOM     27  C   LIG    1       26.132 -12.947   5.829  0.00  0.00    +0.020 C 
ENDBRANCH  23  26
ENDBRANCH  22  23
ENDBRANCH  21  22
ENDBRANCH  20  21
ENDBRANCH  18  20
ENDBRANCH  16  18
ENDBRANCH   1  16
BRANCH   6  28
ATOM     28  O   LIG    1       26.712 -21.572   6.108  0.00  0.00    -0.495 OA
ATOM     29  C   LIG    1       25.569 -21.540   6.965  0.00  0.00    +0.277 C 
ENDBRANCH   6  28
TORSDOF 9
ENDMDL
MODEL 3
REMARK VINA RESULT:       2.0      2.211      5.402
REMARK  Name = *****
REMARK                            x       y       z     vdW  Elec       q    Type
REMARK                         _______ _______ _______ _____ _____    ______ ____
ROOT
ATOM      1  C   LIG    1       25.863 -17.888   3.899  0.00  0.00    +0.046 A 
ATOM      2  C   LIG    1       26.376 -16.553   3.624  0.00  0.00    +0.025 A 
ATOM      3  C   LIG    1       27.622 -16.247   4.191  0.00  0.00    +0.074 A 
ATOM      4  C   LIG    1       28.183 -14.990   4.022  0.00  0.00    +0.032 A 
ATOM      5  C   LIG    1       27.573 -13.999   3.257  0.00  0.00    +0.048 A 
ATOM      6  C   LIG    1       26.357 -14.238   2.653  0.00  0.00    +0.121 A 
ATOM      7  N   LIG    1       28.363 -17.099   4.894  0.00  0.00    -0.246 NA
ATOM      8  C   LIG    1       27.885 -18.316   5.166  0.00  0.00    +0.075 A 
ATOM      9  C   LIG    1       28.741 -19.179   5.846  0.00  0.00    +0.048 A 
ATOM     10  C   LIG    1       28.381 -20.465   6.239  0.00  0.00    +0.043 A 
ATOM     11 CL   LIG    1       29.473 -21.513   7.014  0.00  0.00    -0.084 Cl
ATOM     12  C   LIG    1       27.092 -20.903   5.965  0.00  0.00    +0.021 A 
ATOM     13  C   LIG    1       26.247 -20.056   5.266  0.00  0.00    +0.013 A 
ATOM     14  C   LIG    1       25.760 -15.506   2.827  0.00  0.00    +0.057 A 
ATOM     15  C   LIG    1       26.620 -18.758   4.766  0.00  0.00    +0.022 A 
ENDROOT
BRANCH   1  16
ATOM     16  N   LIG    1       24.601 -18.223   3.355  0.00  0.00    -0.340 N 
ATOM     17  H   LIG    1       24.115 -17.425   2.955  0.00  0.00    +0.146 HD
BRANCH  16  18
ATOM     18  C   LIG    1       24.208 -19.490   2.705  0.00  0.00    +0.067 C 
ATOM     19  C   LIG    1       25.472 -20.237   2.276  0.00  0.00    +0.027 C 
BRANCH  18  20
ATOM     20  C   LIG    1       23.183 -20.299   3.559  0.00  0.00    +0.023 C 
BRANCH  20  21
ATOM     21  C   LIG    1       22.892 -19.804   4.994  0.00  0.00    +0.017 C 
BRANCH  21  22
ATOM     22  C   LIG    1       22.025 -18.554   5.200  0.00  0.00    +0.084 C 
BRANCH  22  23
ATOM     23  N   LIG    1       21.781 -17.611   4.081  0.00  0.00    -0.303 NA
BRANCH  23  25
ATOM     24  C   LIG    1       23.107 -15.369   4.282  0.00  0.00    +0.020 C 
ATOM     25  C   LIG    1       21.899 -16.230   4.662  0.00  0.00    +0.081 C 
ENDBRANCH  23  25
BRANCH  23  26
ATOM     26  C   LIG    1       20.460 -17.760   3.430  0.00  0.00    +0.081 C 
ATOM     27  C   LIG    1       19.706 -19.094   3.494  0.00  0.00    +0.020 C 
ENDBRANCH  23  26
ENDBRANCH  22  23
ENDBRANCH  21  22
ENDBRANCH  20  21
ENDBRANCH  18  20
ENDBRANCH  16  18
ENDBRANCH   1  16
BRANCH   6  28
ATOM     28  O   LIG    1       25.737 -13.349   1.812  0.00  0.00    -0.495 OA
ATOM     29  C   LIG    1       24.666 -12.592   2.379  0.00  0.00    +0.277 C 
ENDBRANCH   6  28
TORSDOF 9
ENDMDL
MODEL 4
REMARK VINA RESULT:       2.0      3.337      6.419
REMARK  Name = *****
REMARK                            x       y       z     vdW  Elec       q    Type
REMARK                         _______ _______ _______ _____ _____    ______ ____
ROOT
ATOM      1  C   LIG    1       25.806 -17.073   3.931  0.00  0.00    +0.046 A 
ATOM      2  C   LIG    1       26.784 -17.970   4.530  0.00  0.00    +0.025 A 
ATOM      3  C   LIG    1       28.081 -17.456   4.671  0.00  0.00    +0.074 A 
ATOM      4  C   LIG    1       29.097 -18.241   5.195  0.00  0.00    +0.032 A 
ATOM      5  C   LIG    1       28.878 -19.540   5.644  0.00  0.00    +0.048 A 
ATOM      6  C   LIG    1       27.623 -20.102   5.557  0.00  0.00    +0.121 A 
ATOM      7  N   LIG    1       28.442 -16.216   4.351  0.00  0.00    -0.246 NA
ATOM      8  C   LIG    1       27.552 -15.399   3.780  0.00  0.00    +0.075 A 
ATOM      9  C   LIG    1       27.978 -14.095   3.535  0.00  0.00    +0.048 A 
ATOM     10  C   LIG    1       27.186 -13.134   2.912  0.00  0.00    +0.043 A 
ATOM     11 CL   LIG    1       27.717 -11.535   2.683  0.00  0.00    -0.084 Cl
ATOM     12  C   LIG    1       25.917 -13.500   2.485  0.00  0.00    +0.021 A 
ATOM     13  C   LIG    1       25.482 -14.789   2.751  0.00  0.00    +0.013 A 
ATOM     14  C   LIG    1       26.577 -19.326   5.009  0.00  0.00    +0.057 A 
ATOM     15  C   LIG    1       26.240 -15.775   3.475  0.00  0.00    +0.022 A 
ENDROOT
BRANCH   1  16
ATOM     16  N   LIG    1       24.491 -17.568   3.761  0.00  0.00    -0.340 N 
ATOM     17  H   LIG    1       24.465 -18.553   3.516  0.00  0.00    +0.146 HD
BRANCH  16  18
ATOM     18  C   LIG    1       23.270 -17.145   4.478  0.00  0.00    +0.067 C 
ATOM     19  C   LIG    1       23.173 -15.620   4.429  0.00  0.00    +0.027 C 
BRANCH  18  20
ATOM     20  C   LIG    1       22.008 -17.934   4.011  0.00  0.00    +0.023 C 
BRANCH  20  21
ATOM     21  C   LIG    1       22.189 -19.420   3.626  0.00  0.00    +0.017 C 
BRANCH  21  22
ATOM     22  C   LIG    1       21.723 -20.514   4.597  0.00  0.00    +0.084 C 
BRANCH  22  23
ATOM     23  N   LIG    1       22.661 -21.571   5.050  0.00  0.00    -0.303 NA
BRANCH  23  25
ATOM     24  C   LIG    1       23.543 -20.154   7.060  0.00  0.00    +0.020 C 
ATOM     25  C   LIG    1       22.810 -21.392   6.534  0.00  0.00    +0.081 C 
ENDBRANCH  23  25
BRANCH  23  26
ATOM     26  C   LIG    1       23.995 -21.519   4.411  0.00  0.00    +0.081 C 
ATOM     27  C   LIG    1       24.149 -21.040   2.963  0.00  0.00    +0.020 C 
ENDBRANCH  23  26
ENDBRANCH  22  23
ENDBRANCH  21  22
ENDBRANCH  20  21
ENDBRANCH  18  20
ENDBRANCH  16  18
ENDBRANCH   1  16
BRANCH   6  28
ATOM     28  O   LIG    1       27.306 -21.338   6.059  0.00  0.00    -0.495 OA
ATOM     29  C   LIG    1       26.279 -21.367   7.052  0.00  0.00    +0.277 C 
ENDBRANCH   6  28
TORSDOF 9
ENDMDL
MODEL 5
REMARK VINA RESULT:       2.2      3.321      6.764
REMARK  Name = *****
REMARK                            x       y       z     vdW  Elec       q    Type
REMARK                         _______ _______ _______ _____ _____    ______ ____
ROOT
ATOM      1  C   LIG    1       25.996 -17.519   3.892  0.00  0.00    +0.046 A 
ATOM      2  C   LIG    1       27.109 -18.179   4.560  0.00  0.00    +0.025 A 
ATOM      3  C   LIG    1       28.272 -17.411   4.717  0.00  0.00    +0.074 A 
ATOM      4  C   LIG    1       29.403 -17.956   5.305  0.00  0.00    +0.032 A 
ATOM      5  C   LIG    1       29.429 -19.255   5.804  0.00  0.00    +0.048 A 
ATOM      6  C   LIG    1       28.315 -20.061   5.703  0.00  0.00    +0.121 A 
ATOM      7  N   LIG    1       28.391 -16.136   4.354  0.00  0.00    -0.246 NA
ATOM      8  C   LIG    1       27.379 -15.536   3.721  0.00  0.00    +0.075 A 
ATOM      9  C   LIG    1       27.545 -14.183   3.432  0.00  0.00    +0.048 A 
ATOM     10  C   LIG    1       26.603 -13.424   2.745  0.00  0.00    +0.043 A 
ATOM     11 CL   LIG    1       26.813 -11.760   2.462  0.00  0.00    -0.084 Cl
ATOM     12  C   LIG    1       25.448 -14.052   2.296  0.00  0.00    +0.021 A 
ATOM     13  C   LIG    1       25.269 -15.392   2.604  0.00  0.00    +0.013 A 
ATOM     14  C   LIG    1       27.158 -19.530   5.091  0.00  0.00    +0.057 A 
ATOM     15  C   LIG    1       26.180 -16.178   3.394  0.00  0.00    +0.022 A 
ENDROOT
BRANCH   1  16
ATOM     16  N   LIG    1       24.813 -18.273   3.704  0.00  0.00    -0.340 N 
ATOM     17  H   LIG    1       23.994 -17.696   3.542  0.00  0.00    +0.146 HD
BRANCH  16  18
ATOM     18  C   LIG    1       24.684 -19.603   3.072  0.00  0.00    +0.067 C 
ATOM     19  C   LIG    1       25.805 -19.771   2.046  0.00  0.00    +0.027 C 
BRANCH  18  20
ATOM     20  C   LIG    1       24.534 -20.745   4.125  0.00  0.00    +0.023 C 
BRANCH  20  21
ATOM     21  C   LIG    1       23.734 -20.437   5.411  0.00  0.00    +0.017 C 
BRANCH  21  22
ATOM     22  C   LIG    1       22.332 -19.820   5.300  0.00  0.00    +0.084 C 
BRANCH  22  23
ATOM     23  N   LIG    1       22.049 -18.768   4.293  0.00  0.00    -0.303 NA
BRANCH  23  25
ATOM     24  C   LIG    1       22.608 -16.312   4.989  0.00  0.00    +0.020 C 
ATOM     25  C   LIG    1       21.686 -17.532   5.067  0.00  0.00    +0.081 C 
ENDBRANCH  23  25
BRANCH  23  26
ATOM     26  C   LIG    1       20.955 -19.098   3.352  0.00  0.00    +0.081 C 
ATOM     27  C   LIG    1       19.822 -18.099   3.092  0.00  0.00    +0.020 C 
ENDBRANCH  23  26
ENDBRANCH  22  23
ENDBRANCH  21  22
ENDBRANCH  20  21
ENDBRANCH  18  20
ENDBRANCH  16  18
ENDBRANCH   1  16
BRANCH   6  28
ATOM     28  O   LIG    1       28.231 -21.316   6.249  0.00  0.00    -0.495 OA
ATOM     29  C   LIG    1       27.084 -21.571   7.062  0.00  0.00    +0.277 C 
ENDBRANCH   6  28
TORSDOF 9
ENDMDL
MODEL 6
REMARK VINA RESULT:       2.3      3.141      5.041
REMARK  Name = *****
REMARK                            x       y       z     vdW  Elec       q    Type
REMARK                         _______ _______ _______ _____ _____    ______ ____
ROOT
ATOM      1  C   LIG    1       25.387 -16.285   3.458  0.00  0.00    +0.046 A 
ATOM      2  C   LIG    1       24.052 -16.237   4.036  0.00  0.00    +0.025 A 
ATOM      3  C   LIG    1       23.753 -15.097   4.796  0.00  0.00    +0.074 A 
ATOM      4  C   LIG    1       22.522 -14.970   5.422  0.00  0.00    +0.032 A 
ATOM      5  C   LIG    1       21.520 -15.926   5.294  0.00  0.00    +0.048 A 
ATOM      6  C   LIG    1       21.735 -17.063   4.545  0.00  0.00    +0.121 A 
ATOM      7  N   LIG    1       24.575 -14.064   4.964  0.00  0.00    -0.246 NA
ATOM      8  C   LIG    1       25.808 -14.116   4.453  0.00  0.00    +0.075 A 
ATOM      9  C   LIG    1       26.590 -12.973   4.608  0.00  0.00    +0.048 A 
ATOM     10  C   LIG    1       27.907 -12.879   4.168  0.00  0.00    +0.043 A 
ATOM     11 CL   LIG    1       28.812 -11.447   4.320  0.00  0.00    -0.084 Cl
ATOM     12  C   LIG    1       28.484 -13.991   3.570  0.00  0.00    +0.021 A 
ATOM     13  C   LIG    1       27.701 -15.121   3.392  0.00  0.00    +0.013 A 
ATOM     14  C   LIG    1       22.989 -17.221   3.913  0.00  0.00    +0.057 A 
ATOM     15  C   LIG    1       26.310 -15.216   3.751  0.00  0.00    +0.022 A 
ENDROOT
BRANCH   1  16
ATOM     16  N   LIG    1       25.724 -17.430   2.698  0.00  0.00    -0.340 N 
ATOM     17  H   LIG    1       26.128 -17.204   1.794  0.00  0.00    +0.146 HD
BRANCH  16  18
ATOM     18  C   LIG    1       26.197 -18.737   3.202  0.00  0.00    +0.067 C 
ATOM     19  C   LIG    1       26.784 -18.543   4.600  0.00  0.00    +0.027 C 
BRANCH  18  20
ATOM     20  C   LIG    1       25.116 -19.852   3.055  0.00  0.00    +0.023 C 
BRANCH  20  21
ATOM     21  C   LIG    1       24.633 -20.561   4.341  0.00  0.00    +0.017 C 
BRANCH  21  22
ATOM     22  C   LIG    1       25.576 -21.527   5.071  0.00  0.00    +0.084 C 
BRANCH  22  23
ATOM     23  N   LIG    1       25.687 -21.500   6.550  0.00  0.00    -0.303 NA
BRANCH  23  25
ATOM     24  C   LIG    1       23.124 -21.516   7.060  0.00  0.00    +0.020 C 
ATOM     25  C   LIG    1       24.466 -20.778   7.049  0.00  0.00    +0.081 C 
ENDBRANCH  23  25
BRANCH  23  26
ATOM     26  C   LIG    1       26.901 -20.825   7.062  0.00  0.00    +0.081 C 
ATOM     27  C   LIG    1       28.295 -21.372   6.732  0.00  0.00    +0.020 C 
ENDBRANCH  23  26
ENDBRANCH  22  23
ENDBRANCH  21  22
ENDBRANCH  20  21
ENDBRANCH  18  20
ENDBRANCH  16  18
ENDBRANCH   1  16
BRANCH   6  28
ATOM     28  O   LIG    1       20.771 -18.005   4.296  0.00  0.00    -0.495 OA
ATOM     29  C   LIG    1       21.239 -19.335   4.061  0.00  0.00    +0.277 C 
ENDBRANCH   6  28
TORSDOF 9
ENDMDL
MODEL 7
REMARK VINA RESULT:       3.8      2.929      6.447
REMARK  Name = *****
REMARK                            x       y       z     vdW  Elec       q    Type
REMARK                         _______ _______ _______ _____ _____    ______ ____
ROOT
ATOM      1  C   LIG    1       24.680 -18.869   4.131  0.00  0.00    +0.046 A 
ATOM      2  C   LIG    1       23.406 -19.550   4.312  0.00  0.00    +0.025 A 
ATOM      3  C   LIG    1       23.440 -20.718   5.087  0.00  0.00    +0.074 A 
ATOM      4  C   LIG    1       22.288 -21.464   5.290  0.00  0.00    +0.032 A 
ATOM      5  C   LIG    1       21.051 -21.075   4.783  0.00  0.00    +0.048 A 
ATOM      6  C   LIG    1       20.939 -19.927   4.030  0.00  0.00    +0.121 A 
ATOM      7  N   LIG    1       24.525 -21.191   5.694  0.00  0.00    -0.246 NA
ATOM      8  C   LIG    1       25.699 -20.580   5.511  0.00  0.00    +0.075 A 
ATOM      9  C   LIG    1       26.779 -21.087   6.231  0.00  0.00    +0.048 A 
ATOM     10  C   LIG    1       28.075 -20.590   6.123  0.00  0.00    +0.043 A 
ATOM     11 CL   LIG    1       29.357 -21.194   7.062  0.00  0.00    -0.084 Cl
ATOM     12  C   LIG    1       28.312 -19.553   5.230  0.00  0.00    +0.021 A 
ATOM     13  C   LIG    1       27.234 -19.030   4.532  0.00  0.00    +0.013 A 
ATOM     14  C   LIG    1       22.104 -19.162   3.797  0.00  0.00    +0.057 A 
ATOM     15  C   LIG    1       25.870 -19.460   4.691  0.00  0.00    +0.022 A 
ENDROOT
BRANCH   1  16
ATOM     16  N   LIG    1       24.681 -17.695   3.340  0.00  0.00    -0.340 N 
ATOM     17  H   LIG    1       23.901 -17.652   2.691  0.00  0.00    +0.146 HD
BRANCH  16  18
ATOM     18  C   LIG    1       25.153 -16.350   3.727  0.00  0.00    +0.067 C 
ATOM     19  C   LIG    1       26.500 -16.087   3.052  0.00  0.00    +0.027 C 
BRANCH  18  20
ATOM     20  C   LIG    1       24.056 -15.259   3.526  0.00  0.00    +0.023 C 
BRANCH  20  21
ATOM     21  C   LIG    1       23.674 -14.389   4.746  0.00  0.00    +0.017 C 
BRANCH  21  22
ATOM     22  C   LIG    1       24.027 -12.894   4.747  0.00  0.00    +0.084 C 
BRANCH  22  23
ATOM     23  N   LIG    1       25.392 -12.442   4.385  0.00  0.00    -0.303 NA
BRANCH  23  25
ATOM     24  C   LIG    1       24.525 -12.404   1.920  0.00  0.00    +0.020 C 
ATOM     25  C   LIG    1       25.589 -12.814   2.942  0.00  0.00    +0.081 C 
ENDBRANCH  23  25
BRANCH  23  26
ATOM     26  C   LIG    1       26.473 -13.041   5.200  0.00  0.00    +0.081 C 
ATOM     27  C   LIG    1       27.850 -13.321   4.585  0.00  0.00    +0.020 C 
ENDBRANCH  23  26
ENDBRANCH  22  23
ENDBRANCH  21  22
ENDBRANCH  20  21
ENDBRANCH  18  20
ENDBRANCH  16  18
ENDBRANCH   1  16
BRANCH   6  28
ATOM     28  O   LIG    1       19.745 -19.429   3.574  0.00  0.00    -0.495 OA
ATOM     29  C   LIG    1       19.788 -18.118   3.007  0.00  0.00    +0.277 C 
ENDBRANCH   6  28
TORSDOF 9
ENDMDL
