MODEL 1
REMARK VINA RESULT:      -4.3      0.000      0.000
REMARK  Name = *****
REMARK                            x       y       z     vdW  Elec       q    Type
REMARK                         _______ _______ _______ _____ _____    ______ ____
ROOT
ATOM      1  C   LIG    1       25.824 -20.492   5.834  0.00  0.00    +0.226 C 
ATOM      2  N   LIG    1       27.016 -20.371   5.145  0.00  0.00    -0.304 N 
ATOM      3  H   LIG    1       27.012 -20.475   4.135  0.00  0.00    +0.149 HD
ATOM      4  O   LIG    1       25.796 -20.490   7.062  0.00  0.00    -0.275 OA
ENDROOT
BRANCH   1   6
ATOM      5  C   LIG    1       23.308 -20.480   5.814  0.00  0.00    +0.028 C 
ATOM      6  C   LIG    1       24.567 -20.601   4.963  0.00  0.00    +0.126 C 
BRANCH   6   7
ATOM      7  S   LIG    1       24.588 -19.303   3.673  0.00  0.00    -0.166 S 
ATOM      8  H   LIG    1       25.905 -19.343   3.417  0.00  0.00    +0.102 HD
ENDBRANCH   6   7
ENDBRANCH   1   6
BRANCH   2   9
ATOM      9  C   LIG    1       28.307 -20.357   5.840  0.00  0.00    +0.224 C 
BRANCH   9  10
ATOM     10  C   LIG    1       28.929 -18.961   5.932  0.00  0.00    +0.322 C 
ATOM     11  O   LIG    1       29.475 -18.524   6.930  0.00  0.00    -0.249 OA
BRANCH  10  12
ATOM     12  O   LIG    1       28.849 -18.249   4.780  0.00  0.00    -0.479 OA
ATOM     13  H   LIG    1       29.503 -18.578   4.134  0.00  0.00    +0.295 HD
ENDBRANCH  10  12
ENDBRANCH   9  10
ENDBRANCH   2   9
TORSDOF 5
ENDMDL
MODEL 2
REMARK VINA RESULT:      -4.2      6.488      6.727
REMARK  Name = *****
REMARK                            x       y       z     vdW  Elec       q    Type
REMARK                         _______ _______ _______ _____ _____    ______ ____
ROOT
ATOM      1  C   LIG    1       25.798 -14.012   2.977  0.00  0.00    +0.226 C 
ATOM      2  N   LIG    1       26.422 -14.214   4.193  0.00  0.00    -0.304 N 
ATOM      3  H   LIG    1       25.897 -14.052   5.047  0.00  0.00    +0.149 HD
ATOM      4  O   LIG    1       26.423 -14.081   1.922  0.00  0.00    -0.275 OA
ENDROOT
BRANCH   1   6
ATOM      5  C   LIG    1       23.655 -14.470   4.212  0.00  0.00    +0.028 C 
ATOM      6  C   LIG    1       24.293 -13.724   3.047  0.00  0.00    +0.126 C 
BRANCH   6   7
ATOM      7  S   LIG    1       24.011 -11.924   3.215  0.00  0.00    -0.166 S 
ATOM      8  H   LIG    1       25.154 -11.634   3.856  0.00  0.00    +0.102 HD
ENDBRANCH   6   7
ENDBRANCH   1   6
BRANCH   2   9
ATOM      9  C   LIG    1       27.873 -14.400   4.291  0.00  0.00    +0.224 C 
BRANCH   9  10
ATOM     10  C   LIG    1       28.660 -13.092   4.184  0.00  0.00    +0.322 C 
ATOM     11  O   LIG    1       28.663 -12.228   5.045  0.00  0.00    -0.249 OA
BRANCH  10  12
ATOM     12  O   LIG    1       29.391 -12.983   3.047  0.00  0.00    -0.479 OA
ATOM     13  H   LIG    1       29.257 -12.105   2.642  0.00  0.00    +0.295 HD
ENDBRANCH  10  12
ENDBRANCH   9  10
ENDBRANCH   2   9
TORSDOF 5
ENDMDL
MODEL 3
REMARK VINA RESULT:      -4.2      2.594      4.052
REMARK  Name = *****
REMARK                            x       y       z     vdW  Elec       q    Type
REMARK                         _______ _______ _______ _____ _____    ______ ____
ROOT
ATOM      1  C   LIG    1       26.725 -20.279   6.302  0.00  0.00    +0.226 C 
ATOM      2  N   LIG    1       26.649 -20.262   4.922  0.00  0.00    -0.304 N 
ATOM      3  H   LIG    1       27.473 -20.000   4.389  0.00  0.00    +0.149 HD
ATOM      4  O   LIG    1       25.728 -20.476   6.991  0.00  0.00    -0.275 OA
ENDROOT
BRANCH   1   6
ATOM      5  C   LIG    1       28.850 -21.391   7.062  0.00  0.00    +0.028 C 
ATOM      6  C   LIG    1       28.125 -20.062   6.889  0.00  0.00    +0.126 C 
BRANCH   6   7
ATOM      7  S   LIG    1       29.090 -18.950   5.801  0.00  0.00    -0.166 S 
ATOM      8  H   LIG    1       30.298 -19.211   6.324  0.00  0.00    +0.102 HD
ENDBRANCH   6   7
ENDBRANCH   1   6
BRANCH   2   9
ATOM      9  C   LIG    1       25.364 -20.357   4.222  0.00  0.00    +0.224 C 
BRANCH   9  10
ATOM     10  C   LIG    1       24.881 -19.018   3.660  0.00  0.00    +0.322 C 
ATOM     11  O   LIG    1       23.711 -18.675   3.630  0.00  0.00    -0.249 OA
BRANCH  10  12
ATOM     12  O   LIG    1       25.882 -18.216   3.218  0.00  0.00    -0.479 OA
ATOM     13  H   LIG    1       26.124 -18.453   2.302  0.00  0.00    +0.295 HD
ENDBRANCH  10  12
ENDBRANCH   9  10
ENDBRANCH   2   9
TORSDOF 5
ENDMDL
MODEL 4
REMARK VINA RESULT:      -4.1      1.782      1.935
REMARK  Name = *****
REMARK                            x       y       z     vdW  Elec       q    Type
REMARK                         _______ _______ _______ _____ _____    ______ ____
ROOT
ATOM      1  C   LIG    1       25.309 -20.226   4.998  0.00  0.00    +0.226 C 
ATOM      2  N   LIG    1       26.469 -20.486   5.703  0.00  0.00    -0.304 N 
ATOM      3  H   LIG    1       26.407 -20.995   6.579  0.00  0.00    +0.149 HD
ATOM      4  O   LIG    1       25.320 -19.515   3.996  0.00  0.00    -0.275 OA
ENDROOT
BRANCH   1   6
ATOM      5  C   LIG    1       24.073 -20.960   7.062  0.00  0.00    +0.028 C 
ATOM      6  C   LIG    1       24.042 -20.899   5.540  0.00  0.00    +0.126 C 
BRANCH   6   7
ATOM      7  S   LIG    1       22.561 -19.988   4.971  0.00  0.00    -0.166 S 
ATOM      8  H   LIG    1       23.054 -18.750   5.129  0.00  0.00    +0.102 HD
ENDBRANCH   6   7
ENDBRANCH   1   6
BRANCH   2   9
ATOM      9  C   LIG    1       27.738 -19.834   5.363  0.00  0.00    +0.224 C 
BRANCH   9  10
ATOM     10  C   LIG    1       28.844 -20.092   6.389  0.00  0.00    +0.322 C 
ATOM     11  O   LIG    1       29.364 -19.218   7.062  0.00  0.00    -0.249 OA
BRANCH  10  12
ATOM     12  O   LIG    1       29.184 -21.399   6.511  0.00  0.00    -0.479 OA
ATOM     13  H   LIG    1       28.948 -21.887   5.699  0.00  0.00    +0.295 HD
ENDBRANCH  10  12
ENDBRANCH   9  10
ENDBRANCH   2   9
TORSDOF 5
ENDMDL
MODEL 5
REMARK VINA RESULT:      -3.8      5.972      6.543
REMARK  Name = *****
REMARK                            x       y       z     vdW  Elec       q    Type
REMARK                         _______ _______ _______ _____ _____    ______ ____
ROOT
ATOM      1  C   LIG    1       25.635 -13.773   2.824  0.00  0.00    +0.226 C 
ATOM      2  N   LIG    1       25.979 -14.568   3.901  0.00  0.00    -0.304 N 
ATOM      3  H   LIG    1       25.436 -14.499   4.756  0.00  0.00    +0.149 HD
ATOM      4  O   LIG    1       26.330 -13.736   1.812  0.00  0.00    -0.275 OA
ENDROOT
BRANCH   1   6
ATOM      5  C   LIG    1       24.147 -12.526   4.424  0.00  0.00    +0.028 C 
ATOM      6  C   LIG    1       24.333 -12.978   2.981  0.00  0.00    +0.126 C 
BRANCH   6   7
ATOM      7  S   LIG    1       24.347 -11.531   1.860  0.00  0.00    -0.166 S 
ATOM      8  H   LIG    1       25.619 -11.652   1.447  0.00  0.00    +0.102 HD
ENDBRANCH   6   7
ENDBRANCH   1   6
BRANCH   2   9
ATOM      9  C   LIG    1       27.245 -15.308   3.936  0.00  0.00    +0.224 C 
BRANCH   9  10
ATOM     10  C   LIG    1       27.076 -16.808   3.682  0.00  0.00    +0.322 C 
ATOM     11  O   LIG    1       26.145 -17.292   3.062  0.00  0.00    -0.249 OA
BRANCH  10  12
ATOM     12  O   LIG    1       28.082 -17.565   4.186  0.00  0.00    -0.479 OA
ATOM     13  H   LIG    1       28.704 -17.817   3.476  0.00  0.00    +0.295 HD
ENDBRANCH  10  12
ENDBRANCH   9  10
ENDBRANCH   2   9
TORSDOF 5
ENDMDL
MODEL 6
REMARK VINA RESULT:      -3.8      2.760      4.375
REMARK  Name = *****
REMARK                            x       y       z     vdW  Elec       q    Type
REMARK                         _______ _______ _______ _____ _____    ______ ____
ROOT
ATOM      1  C   LIG    1       26.536 -20.648   6.012  0.00  0.00    +0.226 C 
ATOM      2  N   LIG    1       26.290 -20.181   4.735  0.00  0.00    -0.304 N 
ATOM      3  H   LIG    1       26.886 -19.452   4.355  0.00  0.00    +0.149 HD
ATOM      4  O   LIG    1       25.775 -21.443   6.556  0.00  0.00    -0.275 OA
ENDROOT
BRANCH   1   6
ATOM      5  C   LIG    1       28.734 -21.278   7.062  0.00  0.00    +0.028 C 
ATOM      6  C   LIG    1       27.819 -20.125   6.670  0.00  0.00    +0.126 C 
BRANCH   6   7
ATOM      7  S   LIG    1       28.684 -18.987   5.528  0.00  0.00    -0.166 S 
ATOM      8  H   LIG    1       28.813 -19.844   4.503  0.00  0.00    +0.102 HD
ENDBRANCH   6   7
ENDBRANCH   1   6
BRANCH   2   9
ATOM      9  C   LIG    1       25.055 -20.516   4.019  0.00  0.00    +0.224 C 
BRANCH   9  10
ATOM     10  C   LIG    1       23.870 -19.629   4.409  0.00  0.00    +0.322 C 
ATOM     11  O   LIG    1       23.532 -18.635   3.789  0.00  0.00    -0.249 OA
BRANCH  10  12
ATOM     12  O   LIG    1       23.196 -20.064   5.503  0.00  0.00    -0.479 OA
ATOM     13  H   LIG    1       23.103 -21.036   5.477  0.00  0.00    +0.295 HD
ENDBRANCH  10  12
ENDBRANCH   9  10
ENDBRANCH   2   9
TORSDOF 5
ENDMDL
MODEL 7
REMARK VINA RESULT:      -3.7      2.074      2.302
REMARK  Name = *****
REMARK                            x       y       z     vdW  Elec       q    Type
REMARK                         _______ _______ _______ _____ _____    ______ ____
ROOT
ATOM      1  C   LIG    1       24.471 -20.699   5.292  0.00  0.00    +0.226 C 
ATOM      2  N   LIG    1       25.127 -20.616   6.506  0.00  0.00    -0.304 N 
ATOM      3  H   LIG    1       24.762 -19.994   7.220  0.00  0.00    +0.149 HD
ATOM      4  O   LIG    1       24.938 -21.347   4.360  0.00  0.00    -0.275 OA
ENDROOT
BRANCH   1   6
ATOM      5  C   LIG    1       23.164 -18.904   4.111  0.00  0.00    +0.028 C 
ATOM      6  C   LIG    1       23.133 -19.955   5.214  0.00  0.00    +0.126 C 
BRANCH   6   7
ATOM      7  S   LIG    1       21.775 -21.145   4.918  0.00  0.00    -0.166 S 
ATOM      8  H   LIG    1       20.761 -20.323   5.232  0.00  0.00    +0.102 HD
ENDBRANCH   6   7
ENDBRANCH   1   6
BRANCH   2   9
ATOM      9  C   LIG    1       26.462 -21.194   6.699  0.00  0.00    +0.224 C 
BRANCH   9  10
ATOM     10  C   LIG    1       27.594 -20.252   6.281  0.00  0.00    +0.322 C 
ATOM     11  O   LIG    1       28.390 -19.758   7.062  0.00  0.00    -0.249 OA
BRANCH  10  12
ATOM     12  O   LIG    1       27.661 -20.035   4.944  0.00  0.00    -0.479 OA
ATOM     13  H   LIG    1       28.480 -19.552   4.721  0.00  0.00    +0.295 HD
ENDBRANCH  10  12
ENDBRANCH   9  10
ENDBRANCH   2   9
TORSDOF 5
ENDMDL
MODEL 8
REMARK VINA RESULT:      -3.6      2.759      3.374
REMARK  Name = *****
REMARK                            x       y       z     vdW  Elec       q    Type
REMARK                         _______ _______ _______ _____ _____    ______ ____
ROOT
ATOM      1  C   LIG    1       24.802 -20.056   4.693  0.00  0.00    +0.226 C 
ATOM      2  N   LIG    1       25.841 -19.334   4.135  0.00  0.00    -0.304 N 
ATOM      3  H   LIG    1       26.779 -19.458   4.504  0.00  0.00    +0.149 HD
ATOM      4  O   LIG    1       23.638 -19.856   4.361  0.00  0.00    -0.275 OA
ENDROOT
BRANCH   1   6
ATOM      5  C   LIG    1       26.416 -20.649   6.530  0.00  0.00    +0.028 C 
ATOM      6  C   LIG    1       25.215 -21.119   5.718  0.00  0.00    +0.126 C 
BRANCH   6   7
ATOM      7  S   LIG    1       23.808 -21.495   6.826  0.00  0.00    -0.166 S 
ATOM      8  H   LIG    1       23.282 -22.491   6.097  0.00  0.00    +0.102 HD
ENDBRANCH   6   7
ENDBRANCH   1   6
BRANCH   2   9
ATOM      9  C   LIG    1       25.593 -18.219   3.215  0.00  0.00    +0.224 C 
BRANCH   9  10
ATOM     10  C   LIG    1       26.558 -17.047   3.412  0.00  0.00    +0.322 C 
ATOM     11  O   LIG    1       26.298 -15.894   3.111  0.00  0.00    -0.249 OA
BRANCH  10  12
ATOM     12  O   LIG    1       27.735 -17.397   3.987  0.00  0.00    -0.479 OA
ATOM     13  H   LIG    1       28.453 -16.816   3.669  0.00  0.00    +0.295 HD
ENDBRANCH  10  12
ENDBRANCH   9  10
ENDBRANCH   2   9
TORSDOF 5
ENDMDL
MODEL 9
REMARK VINA RESULT:      -3.4      4.804      5.721
REMARK  Name = *****
REMARK                            x       y       z     vdW  Elec       q    Type
REMARK                         _______ _______ _______ _____ _____    ______ ____
ROOT
ATOM      1  C   LIG    1       26.336 -15.277   3.561  0.00  0.00    +0.226 C 
ATOM      2  N   LIG    1       25.605 -16.423   3.314  0.00  0.00    -0.304 N 
ATOM      3  H   LIG    1       24.591 -16.364   3.293  0.00  0.00    +0.149 HD
ATOM      4  O   LIG    1       27.554 -15.319   3.711  0.00  0.00    -0.275 OA
ENDROOT
BRANCH   1   6
ATOM      5  C   LIG    1       25.531 -13.289   2.247  0.00  0.00    +0.028 C 
ATOM      6  C   LIG    1       25.526 -13.975   3.607  0.00  0.00    +0.126 C 
BRANCH   6   7
ATOM      7  S   LIG    1       23.810 -14.329   4.134  0.00  0.00    -0.166 S 
ATOM      8  H   LIG    1       23.804 -15.634   3.821  0.00  0.00    +0.102 HD
ENDBRANCH   6   7
ENDBRANCH   1   6
BRANCH   2   9
ATOM      9  C   LIG    1       26.226 -17.751   3.339  0.00  0.00    +0.224 C 
BRANCH   9  10
ATOM     10  C   LIG    1       25.227 -18.882   3.598  0.00  0.00    +0.322 C 
ATOM     11  O   LIG    1       24.017 -18.733   3.600  0.00  0.00    -0.249 OA
BRANCH  10  12
ATOM     12  O   LIG    1       25.808 -20.091   3.797  0.00  0.00    -0.479 OA
ATOM     13  H   LIG    1       26.319 -20.087   4.630  0.00  0.00    +0.295 HD
ENDBRANCH  10  12
ENDBRANCH   9  10
ENDBRANCH   2   9
TORSDOF 5
ENDMDL
