MODEL 1
REMARK VINA RESULT:      -5.0      0.000      0.000
REMARK  Name = *****
REMARK                            x       y       z     vdW  Elec       q    Type
REMARK                         _______ _______ _______ _____ _____    ______ ____
ROOT
ATOM      1  C   LIG    1       22.728 -19.411   4.437  0.00  0.00    +0.148 A 
ATOM      2  O   LIG    1       23.759 -18.579   4.108  0.00  0.00    -0.454 OA
ATOM      3  C   LIG    1       23.297 -17.297   4.114  0.00  0.00    +0.136 A 
ATOM      4  C   LIG    1       21.938 -17.309   4.352  0.00  0.00    +0.050 A 
ATOM      5  C   LIG    1       21.573 -18.667   4.568  0.00  0.00    +0.051 A 
ENDROOT
BRANCH   3   6
ATOM      6  C   LIG    1       24.312 -16.267   3.910  0.00  0.00    +0.018 A 
ATOM      7  C   LIG    1       24.024 -14.912   4.125  0.00  0.00    +0.018 A 
ATOM      8  C   LIG    1       25.010 -13.935   3.937  0.00  0.00    +0.085 A 
ATOM      9  C   LIG    1       26.291 -14.327   3.540  0.00  0.00    +0.273 A 
ATOM     10  C   LIG    1       26.614 -15.664   3.332  0.00  0.00    +0.085 A 
ATOM     11  C   LIG    1       25.617 -16.623   3.512  0.00  0.00    +0.018 A 
BRANCH   9  12
ATOM     12  N   LIG    1       27.312 -13.319   3.324  0.00  0.00    +0.080 N 
ATOM     13  O   LIG    1       28.430 -13.539   3.808  0.00  0.00    -0.576 OA
ATOM     14  O   LIG    1       26.984 -12.314   2.681  0.00  0.00    +0.041 OA
ENDBRANCH   9  12
ENDBRANCH   3   6
BRANCH   1  16
ATOM     15  N   LIG    1       24.088 -21.420   4.945  0.00  0.00    -0.180 NA
ATOM     16  C   LIG    1       22.979 -20.823   4.594  0.00  0.00    +0.176 C 
BRANCH  15  21
ATOM     17  O   LIG    1       28.042 -19.831   7.059  0.00  0.00    -0.272 OA
ATOM     18  C   LIG    1       27.202 -20.116   6.225  0.00  0.00    +0.260 C 
ATOM     19  N   LIG    1       27.265 -19.820   4.871  0.00  0.00    -0.129 NA
ATOM     20  C   LIG    1       26.108 -20.166   4.418  0.00  0.00    +0.295 C 
ATOM     21  N   LIG    1       25.167 -20.648   5.288  0.00  0.00    -0.170 N 
ATOM     22  C   LIG    1       25.883 -20.839   6.551  0.00  0.00    +0.234 C 
BRANCH  20  23
ATOM     23  O   LIG    1       25.753 -20.097   3.133  0.00  0.00    -0.482 OA
ATOM     24  H   LIG    1       26.235 -20.799   2.667  0.00  0.00    +0.295 HD
ENDBRANCH  20  23
ENDBRANCH  15  21
ENDBRANCH   1  16
TORSDOF 5
ENDMDL
MODEL 2
REMARK VINA RESULT:      -4.5      1.181      1.703
REMARK  Name = *****
REMARK                            x       y       z     vdW  Elec       q    Type
REMARK                         _______ _______ _______ _____ _____    ______ ____
ROOT
ATOM      1  C   LIG    1       23.102 -19.222   3.750  0.00  0.00    +0.148 A 
ATOM      2  O   LIG    1       24.019 -18.283   3.374  0.00  0.00    -0.454 OA
ATOM      3  C   LIG    1       23.769 -17.136   4.064  0.00  0.00    +0.136 A 
ATOM      4  C   LIG    1       22.625 -17.303   4.817  0.00  0.00    +0.050 A 
ATOM      5  C   LIG    1       22.200 -18.646   4.622  0.00  0.00    +0.051 A 
ENDROOT
BRANCH   3   6
ATOM      6  C   LIG    1       24.746 -16.067   3.874  0.00  0.00    +0.018 A 
ATOM      7  C   LIG    1       24.400 -14.723   4.077  0.00  0.00    +0.018 A 
ATOM      8  C   LIG    1       25.350 -13.708   3.903  0.00  0.00    +0.085 A 
ATOM      9  C   LIG    1       26.653 -14.051   3.532  0.00  0.00    +0.273 A 
ATOM     10  C   LIG    1       27.032 -15.376   3.337  0.00  0.00    +0.085 A 
ATOM     11  C   LIG    1       26.071 -16.372   3.503  0.00  0.00    +0.018 A 
BRANCH   9  12
ATOM     12  N   LIG    1       27.638 -13.005   3.331  0.00  0.00    +0.080 N 
ATOM     13  O   LIG    1       27.272 -12.001   2.706  0.00  0.00    -0.576 OA
ATOM     14  O   LIG    1       28.769 -13.200   3.793  0.00  0.00    +0.041 OA
ENDBRANCH   9  12
ENDBRANCH   3   6
BRANCH   1  16
ATOM     15  N   LIG    1       23.891 -21.570   3.710  0.00  0.00    -0.180 NA
ATOM     16  C   LIG    1       23.208 -20.564   3.231  0.00  0.00    +0.176 C 
BRANCH  15  21
ATOM     17  O   LIG    1       26.883 -19.989   7.053  0.00  0.00    -0.272 OA
ATOM     18  C   LIG    1       25.888 -20.390   6.476  0.00  0.00    +0.260 C 
ATOM     19  N   LIG    1       24.659 -20.658   7.062  0.00  0.00    -0.129 NA
ATOM     20  C   LIG    1       23.970 -21.199   6.115  0.00  0.00    +0.295 C 
ATOM     21  N   LIG    1       24.557 -21.406   4.896  0.00  0.00    -0.170 N 
ATOM     22  C   LIG    1       25.841 -20.705   4.971  0.00  0.00    +0.234 C 
BRANCH  20  23
ATOM     23  O   LIG    1       22.694 -21.571   6.233  0.00  0.00    -0.482 OA
ATOM     24  H   LIG    1       22.678 -22.542   6.217  0.00  0.00    +0.295 HD
ENDBRANCH  20  23
ENDBRANCH  15  21
ENDBRANCH   1  16
TORSDOF 5
ENDMDL
MODEL 3
REMARK VINA RESULT:      -2.6      2.259      7.018
REMARK  Name = *****
REMARK                            x       y       z     vdW  Elec       q    Type
REMARK                         _______ _______ _______ _____ _____    ______ ____
ROOT
ATOM      1  C   LIG    1       26.683 -13.672   2.819  0.00  0.00    +0.148 A 
ATOM      2  O   LIG    1       26.153 -14.929   2.802  0.00  0.00    -0.454 OA
ATOM      3  C   LIG    1       26.953 -15.744   3.545  0.00  0.00    +0.136 A 
ATOM      4  C   LIG    1       28.058 -15.032   3.963  0.00  0.00    +0.050 A 
ATOM      5  C   LIG    1       27.882 -13.697   3.504  0.00  0.00    +0.051 A 
ENDROOT
BRANCH   3   6
ATOM      6  C   LIG    1       26.453 -17.103   3.738  0.00  0.00    +0.018 A 
ATOM      7  C   LIG    1       27.255 -18.096   4.318  0.00  0.00    +0.018 A 
ATOM      8  C   LIG    1       26.758 -19.392   4.508  0.00  0.00    +0.085 A 
ATOM      9  C   LIG    1       25.448 -19.684   4.121  0.00  0.00    +0.273 A 
ATOM     10  C   LIG    1       24.621 -18.718   3.555  0.00  0.00    +0.085 A 
ATOM     11  C   LIG    1       25.136 -17.436   3.363  0.00  0.00    +0.018 A 
BRANCH   9  12
ATOM     12  N   LIG    1       24.934 -21.029   4.297  0.00  0.00    +0.080 N 
ATOM     13  O   LIG    1       24.323 -21.527   3.342  0.00  0.00    -0.576 OA
ATOM     14  O   LIG    1       25.138 -21.571   5.390  0.00  0.00    +0.041 OA
ENDBRANCH   9  12
ENDBRANCH   3   6
BRANCH   1  16
ATOM     15  N   LIG    1       24.727 -12.225   2.350  0.00  0.00    -0.180 NA
ATOM     16  C   LIG    1       25.970 -12.592   2.181  0.00  0.00    +0.176 C 
BRANCH  15  21
ATOM     17  O   LIG    1       22.518 -15.614   4.854  0.00  0.00    -0.272 OA
ATOM     18  C   LIG    1       23.159 -14.625   4.545  0.00  0.00    +0.260 C 
ATOM     19  N   LIG    1       23.674 -13.681   5.421  0.00  0.00    -0.129 NA
ATOM     20  C   LIG    1       24.129 -12.751   4.651  0.00  0.00    +0.295 C 
ATOM     21  N   LIG    1       23.975 -12.871   3.296  0.00  0.00    -0.170 N 
ATOM     22  C   LIG    1       23.480 -14.235   3.091  0.00  0.00    +0.234 C 
BRANCH  20  23
ATOM     23  O   LIG    1       24.763 -11.659   5.084  0.00  0.00    -0.482 OA
ATOM     24  H   LIG    1       25.709 -11.878   5.127  0.00  0.00    +0.295 HD
ENDBRANCH  20  23
ENDBRANCH  15  21
ENDBRANCH   1  16
TORSDOF 5
ENDMDL
MODEL 4
REMARK VINA RESULT:      -2.1      2.388      6.652
REMARK  Name = *****
REMARK                            x       y       z     vdW  Elec       q    Type
REMARK                         _______ _______ _______ _____ _____    ______ ____
ROOT
ATOM      1  C   LIG    1       24.103 -13.360   3.334  0.00  0.00    +0.148 A 
ATOM      2  O   LIG    1       24.263 -14.711   3.226  0.00  0.00    -0.454 OA
ATOM      3  C   LIG    1       23.601 -15.307   4.257  0.00  0.00    +0.136 A 
ATOM      4  C   LIG    1       23.093 -14.332   5.090  0.00  0.00    +0.050 A 
ATOM      5  C   LIG    1       23.409 -13.080   4.494  0.00  0.00    +0.051 A 
ENDROOT
BRANCH   3   6
ATOM      6  C   LIG    1       23.562 -16.767   4.213  0.00  0.00    +0.018 A 
ATOM      7  C   LIG    1       24.622 -17.504   3.668  0.00  0.00    +0.018 A 
ATOM      8  C   LIG    1       24.578 -18.904   3.644  0.00  0.00    +0.085 A 
ATOM      9  C   LIG    1       23.466 -19.560   4.178  0.00  0.00    +0.273 A 
ATOM     10  C   LIG    1       22.404 -18.859   4.739  0.00  0.00    +0.085 A 
ATOM     11  C   LIG    1       22.459 -17.465   4.744  0.00  0.00    +0.018 A 
BRANCH   9  12
ATOM     12  N   LIG    1       23.405 -21.009   4.139  0.00  0.00    +0.080 N 
ATOM     13  O   LIG    1       22.797 -21.572   5.059  0.00  0.00    -0.576 OA
ATOM     14  O   LIG    1       23.972 -21.572   3.193  0.00  0.00    +0.041 OA
ENDBRANCH   9  12
ENDBRANCH   3   6
BRANCH   1  16
ATOM     15  N   LIG    1       25.862 -12.090   2.136  0.00  0.00    -0.180 NA
ATOM     16  C   LIG    1       24.632 -12.498   2.304  0.00  0.00    +0.176 C 
BRANCH  15  21
ATOM     17  O   LIG    1       28.308 -13.252   6.046  0.00  0.00    -0.272 OA
ATOM     18  C   LIG    1       27.794 -13.282   4.943  0.00  0.00    +0.260 C 
ATOM     19  N   LIG    1       27.932 -14.297   4.007  0.00  0.00    -0.129 NA
ATOM     20  C   LIG    1       27.353 -13.833   2.951  0.00  0.00    +0.295 C 
ATOM     21  N   LIG    1       26.832 -12.567   2.977  0.00  0.00    -0.170 N 
ATOM     22  C   LIG    1       26.911 -12.154   4.380  0.00  0.00    +0.234 C 
BRANCH  20  23
ATOM     23  O   LIG    1       27.210 -14.514   1.812  0.00  0.00    -0.482 OA
ATOM     24  H   LIG    1       26.258 -14.659   1.686  0.00  0.00    +0.295 HD
ENDBRANCH  20  23
ENDBRANCH  15  21
ENDBRANCH   1  16
TORSDOF 5
ENDMDL
