MODEL 1
REMARK VINA RESULT:      -9.5      0.000      0.000
REMARK  Name = *****
REMARK                            x       y       z     vdW  Elec       q    Type
REMARK                         _______ _______ _______ _____ _____    ______ ____
ROOT
ATOM      1  C   LIG    1       24.047 -24.187   6.873  0.00  0.00    +0.019 C 
ENDROOT
BRANCH   1   2
ATOM      2  C   LIG    1       23.368 -22.853   6.545  0.00  0.00    +0.042 C 
BRANCH   2   3
ATOM      3  C   LIG    1       24.351 -21.698   6.593  0.00  0.00    +0.229 C 
BRANCH   3   4
ATOM      4  O   LIG    1       25.484 -22.021   7.404  0.00  0.00    -0.492 OA
BRANCH   4  13
ATOM      5  O   LIG    1       32.120 -20.342   9.115  0.00  0.00    -0.268 OA
ATOM      6  C   LIG    1       31.162 -20.215   8.344  0.00  0.00    +0.249 C 
ATOM      7  N   LIG    1       30.004 -20.920   8.501  0.00  0.00    -0.322 N 
ATOM      8  H   LIG    1       29.965 -21.551   9.288  0.00  0.00    +0.169 HD
ATOM      9  C   LIG    1       28.899 -20.780   7.649  0.00  0.00    +0.053 A 
ATOM     10  C   LIG    1       28.981 -19.884   6.575  0.00  0.00    -0.001 A 
ATOM     11  C   LIG    1       27.883 -19.732   5.730  0.00  0.00    +0.013 A 
ATOM     12  C   LIG    1       26.717 -20.451   5.979  0.00  0.00    +0.046 A 
ATOM     13  C   LIG    1       26.624 -21.327   7.068  0.00  0.00    +0.122 A 
ATOM     14  C   LIG    1       30.203 -19.119   6.363  0.00  0.00    +0.015 C 
ATOM     15  C   LIG    1       27.735 -21.514   7.892  0.00  0.00    +0.072 A 
ATOM     16  C   LIG    1       31.239 -19.275   7.201  0.00  0.00    +0.071 C 
ENDBRANCH   4  13
ENDBRANCH   3   4
ENDBRANCH   2   3
ENDBRANCH   1   2
BRANCH   1  17
ATOM     17  C   LIG    1       24.050 -25.173   5.687  0.00  0.00    +0.085 C 
BRANCH  17  18
ATOM     18  N   LIG    1       25.380 -25.716   5.367  0.00  0.00    -0.299 NA
ATOM     19  C   LIG    1       26.117 -26.180   6.566  0.00  0.00    +0.103 C 
ATOM     20  C   LIG    1       25.561 -27.457   7.253  0.00  0.00    +0.120 C 
ATOM     21  N   LIG    1       25.415 -28.563   6.276  0.00  0.00    -0.327 N 
ATOM     22  C   LIG    1       24.673 -28.151   5.059  0.00  0.00    +0.120 C 
ATOM     23  C   LIG    1       25.284 -26.874   4.435  0.00  0.00    +0.103 C 
BRANCH  21  24
ATOM     24  C   LIG    1       24.984 -29.772   6.886  0.00  0.00    +0.038 A 
ATOM     25  C   LIG    1       25.187 -31.059   6.279  0.00  0.00    +0.010 A 
ATOM     26  C   LIG    1       24.691 -32.204   6.920  0.00  0.00    +0.021 A 
ATOM     27  S   LIG    1       25.011 -33.647   6.030  0.00  0.00    -0.097 S 
ATOM     28  C   LIG    1       25.800 -32.793   4.792  0.00  0.00    +0.046 A 
ATOM     29  C   LIG    1       24.010 -32.144   8.146  0.00  0.00    +0.016 A 
ATOM     30  C   LIG    1       23.827 -30.908   8.744  0.00  0.00    +0.003 A 
ATOM     31  C   LIG    1       25.822 -31.438   5.036  0.00  0.00    +0.018 A 
ATOM     32  C   LIG    1       24.305 -29.758   8.130  0.00  0.00    +0.024 A 
ENDBRANCH  21  24
ENDBRANCH  17  18
ENDBRANCH   1  17
TORSDOF 7
ENDMDL
MODEL 2
REMARK VINA RESULT:      -9.3      2.034      2.750
REMARK  Name = *****
REMARK                            x       y       z     vdW  Elec       q    Type
REMARK                         _______ _______ _______ _____ _____    ______ ____
ROOT
ATOM      1  C   LIG    1       24.847 -24.703   5.213  0.00  0.00    +0.019 C 
ENDROOT
BRANCH   1   2
ATOM      2  C   LIG    1       24.441 -24.007   6.517  0.00  0.00    +0.042 C 
BRANCH   2   3
ATOM      3  C   LIG    1       25.640 -23.403   7.225  0.00  0.00    +0.229 C 
BRANCH   3   4
ATOM      4  O   LIG    1       25.509 -21.983   7.336  0.00  0.00    -0.492 OA
BRANCH   4  13
ATOM      5  O   LIG    1       32.136 -20.381   9.154  0.00  0.00    -0.268 OA
ATOM      6  C   LIG    1       31.188 -20.236   8.373  0.00  0.00    +0.249 C 
ATOM      7  N   LIG    1       30.024 -20.934   8.505  0.00  0.00    -0.322 N 
ATOM      8  H   LIG    1       29.969 -21.575   9.283  0.00  0.00    +0.169 HD
ATOM      9  C   LIG    1       28.930 -20.772   7.642  0.00  0.00    +0.053 A 
ATOM     10  C   LIG    1       29.032 -19.862   6.582  0.00  0.00    -0.001 A 
ATOM     11  C   LIG    1       27.947 -19.689   5.725  0.00  0.00    +0.013 A 
ATOM     12  C   LIG    1       26.772 -20.402   5.949  0.00  0.00    +0.046 A 
ATOM     13  C   LIG    1       26.658 -21.293   7.025  0.00  0.00    +0.122 A 
ATOM     14  C   LIG    1       30.263 -19.104   6.397  0.00  0.00    +0.015 C 
ATOM     15  C   LIG    1       27.758 -21.500   7.859  0.00  0.00    +0.072 A 
ATOM     16  C   LIG    1       31.287 -19.279   7.244  0.00  0.00    +0.071 C 
ENDBRANCH   4  13
ENDBRANCH   3   4
ENDBRANCH   2   3
ENDBRANCH   1   2
BRANCH   1  17
ATOM     17  C   LIG    1       24.399 -26.177   5.149  0.00  0.00    +0.085 C 
BRANCH  17  18
ATOM     18  N   LIG    1       25.512 -27.134   5.044  0.00  0.00    -0.299 NA
ATOM     19  C   LIG    1       26.462 -27.038   6.178  0.00  0.00    +0.103 C 
ATOM     20  C   LIG    1       25.930 -27.527   7.553  0.00  0.00    +0.120 C 
ATOM     21  N   LIG    1       25.385 -28.902   7.452  0.00  0.00    -0.327 N 
ATOM     22  C   LIG    1       24.419 -29.048   6.335  0.00  0.00    +0.120 C 
ATOM     23  C   LIG    1       25.019 -28.539   5.003  0.00  0.00    +0.103 C 
BRANCH  21  24
ATOM     24  C   LIG    1       24.962 -29.412   8.709  0.00  0.00    +0.038 A 
ATOM     25  C   LIG    1       25.781 -29.337   9.888  0.00  0.00    +0.010 A 
ATOM     26  C   LIG    1       25.315 -29.906  11.082  0.00  0.00    +0.021 A 
ATOM     27  S   LIG    1       26.443 -29.736  12.377  0.00  0.00    -0.097 S 
ATOM     28  C   LIG    1       27.559 -28.918  11.391  0.00  0.00    +0.046 A 
ATOM     29  C   LIG    1       24.066 -30.540  11.177  0.00  0.00    +0.016 A 
ATOM     30  C   LIG    1       23.266 -30.599  10.047  0.00  0.00    +0.003 A 
ATOM     31  C   LIG    1       27.097 -28.776  10.102  0.00  0.00    +0.018 A 
ATOM     32  C   LIG    1       23.704 -30.047   8.851  0.00  0.00    +0.024 A 
ENDBRANCH  21  24
ENDBRANCH  17  18
ENDBRANCH   1  17
TORSDOF 7
ENDMDL
MODEL 3
REMARK VINA RESULT:      -9.2      3.248      5.471
REMARK  Name = *****
REMARK                            x       y       z     vdW  Elec       q    Type
REMARK                         _______ _______ _______ _____ _____    ______ ____
ROOT
ATOM      1  C   LIG    1       24.545 -29.195   5.355  0.00  0.00    +0.019 C 
ENDROOT
BRANCH   1   2
ATOM      2  C   LIG    1       25.095 -27.782   5.125  0.00  0.00    +0.042 C 
BRANCH   2   3
ATOM      3  C   LIG    1       24.829 -26.878   6.314  0.00  0.00    +0.229 C 
BRANCH   3   4
ATOM      4  O   LIG    1       23.736 -25.993   6.054  0.00  0.00    -0.492 OA
BRANCH   4  13
ATOM      5  O   LIG    1       28.437 -21.183   8.184  0.00  0.00    -0.268 OA
ATOM      6  C   LIG    1       27.261 -21.477   7.938  0.00  0.00    +0.249 C 
ATOM      7  N   LIG    1       26.907 -22.694   7.434  0.00  0.00    -0.322 N 
ATOM      8  H   LIG    1       27.657 -23.352   7.277  0.00  0.00    +0.169 HD
ATOM      9  C   LIG    1       25.579 -23.056   7.163  0.00  0.00    +0.053 A 
ATOM     10  C   LIG    1       24.560 -22.125   7.407  0.00  0.00    -0.001 A 
ATOM     11  C   LIG    1       23.238 -22.479   7.150  0.00  0.00    +0.013 A 
ATOM     12  C   LIG    1       22.946 -23.757   6.679  0.00  0.00    +0.046 A 
ATOM     13  C   LIG    1       23.960 -24.698   6.460  0.00  0.00    +0.122 A 
ATOM     14  C   LIG    1       24.896 -20.809   7.935  0.00  0.00    +0.015 C 
ATOM     15  C   LIG    1       25.290 -24.333   6.677  0.00  0.00    +0.072 A 
ATOM     16  C   LIG    1       26.176 -20.498   8.187  0.00  0.00    +0.071 C 
ENDBRANCH   4  13
ENDBRANCH   3   4
ENDBRANCH   2   3
ENDBRANCH   1   2
BRANCH   1  17
ATOM     17  C   LIG    1       25.630 -30.205   5.779  0.00  0.00    +0.085 C 
BRANCH  17  18
ATOM     18  N   LIG    1       25.135 -31.277   6.658  0.00  0.00    -0.299 NA
ATOM     19  C   LIG    1       26.146 -31.727   7.644  0.00  0.00    +0.103 C 
ATOM     20  C   LIG    1       26.493 -30.714   8.770  0.00  0.00    +0.120 C 
ATOM     21  N   LIG    1       25.266 -30.250   9.462  0.00  0.00    -0.327 N 
ATOM     22  C   LIG    1       24.224 -29.780   8.516  0.00  0.00    +0.120 C 
ATOM     23  C   LIG    1       23.936 -30.839   7.426  0.00  0.00    +0.103 C 
BRANCH  21  24
ATOM     24  C   LIG    1       25.553 -29.384  10.551  0.00  0.00    +0.038 A 
ATOM     25  C   LIG    1       24.698 -29.281  11.702  0.00  0.00    +0.010 A 
ATOM     26  C   LIG    1       25.022 -28.368  12.716  0.00  0.00    +0.021 A 
ATOM     27  S   LIG    1       23.870 -28.373  14.000  0.00  0.00    -0.097 S 
ATOM     28  C   LIG    1       22.928 -29.568  13.244  0.00  0.00    +0.046 A 
ATOM     29  C   LIG    1       26.164 -27.553  12.658  0.00  0.00    +0.016 A 
ATOM     30  C   LIG    1       27.000 -27.661  11.559  0.00  0.00    +0.003 A 
ATOM     31  C   LIG    1       23.465 -29.959  12.039  0.00  0.00    +0.018 A 
ATOM     32  C   LIG    1       26.701 -28.554  10.539  0.00  0.00    +0.024 A 
ENDBRANCH  21  24
ENDBRANCH  17  18
ENDBRANCH   1  17
TORSDOF 7
ENDMDL
MODEL 4
REMARK VINA RESULT:      -9.0      1.458      2.093
REMARK  Name = *****
REMARK                            x       y       z     vdW  Elec       q    Type
REMARK                         _______ _______ _______ _____ _____    ______ ____
ROOT
ATOM      1  C   LIG    1       23.284 -22.852   6.342  0.00  0.00    +0.019 C 
ENDROOT
BRANCH   1   2
ATOM      2  C   LIG    1       23.625 -21.927   7.516  0.00  0.00    +0.042 C 
BRANCH   2   3
ATOM      3  C   LIG    1       24.759 -20.980   7.170  0.00  0.00    +0.229 C 
BRANCH   3   4
ATOM      4  O   LIG    1       25.774 -21.646   6.414  0.00  0.00    -0.492 OA
BRANCH   4  13
ATOM      5  O   LIG    1       32.138 -21.081   9.407  0.00  0.00    -0.268 OA
ATOM      6  C   LIG    1       31.324 -20.679   8.568  0.00  0.00    +0.249 C 
ATOM      7  N   LIG    1       30.117 -21.286   8.376  0.00  0.00    -0.322 N 
ATOM      8  H   LIG    1       29.916 -22.083   8.963  0.00  0.00    +0.169 HD
ATOM      9  C   LIG    1       29.171 -20.837   7.443  0.00  0.00    +0.053 A 
ATOM     10  C   LIG    1       29.475 -19.718   6.655  0.00  0.00    -0.001 A 
ATOM     11  C   LIG    1       28.537 -19.260   5.732  0.00  0.00    +0.013 A 
ATOM     12  C   LIG    1       27.307 -19.902   5.624  0.00  0.00    +0.046 A 
ATOM     13  C   LIG    1       26.990 -21.004   6.429  0.00  0.00    +0.122 A 
ATOM     14  C   LIG    1       30.758 -19.046   6.819  0.00  0.00    +0.015 C 
ATOM     15  C   LIG    1       27.943 -21.492   7.325  0.00  0.00    +0.072 A 
ATOM     16  C   LIG    1       31.637 -19.500   7.725  0.00  0.00    +0.071 C 
ENDBRANCH   4  13
ENDBRANCH   3   4
ENDBRANCH   2   3
ENDBRANCH   1   2
BRANCH   1  17
ATOM     17  C   LIG    1       23.698 -24.318   6.587  0.00  0.00    +0.085 C 
BRANCH  17  18
ATOM     18  N   LIG    1       24.929 -24.714   5.884  0.00  0.00    -0.299 NA
ATOM     19  C   LIG    1       25.967 -25.249   6.797  0.00  0.00    +0.103 C 
ATOM     20  C   LIG    1       25.665 -26.634   7.432  0.00  0.00    +0.120 C 
ATOM     21  N   LIG    1       25.331 -27.633   6.389  0.00  0.00    -0.327 N 
ATOM     22  C   LIG    1       24.287 -27.149   5.452  0.00  0.00    +0.120 C 
ATOM     23  C   LIG    1       24.657 -25.766   4.865  0.00  0.00    +0.103 C 
BRANCH  21  24
ATOM     24  C   LIG    1       25.128 -28.932   6.928  0.00  0.00    +0.038 A 
ATOM     25  C   LIG    1       25.697 -29.347   8.181  0.00  0.00    +0.010 A 
ATOM     26  C   LIG    1       25.491 -30.661   8.625  0.00  0.00    +0.021 A 
ATOM     27  S   LIG    1       26.267 -30.976  10.133  0.00  0.00    -0.097 S 
ATOM     28  C   LIG    1       26.886 -29.397  10.225  0.00  0.00    +0.046 A 
ATOM     29  C   LIG    1       24.736 -31.593   7.894  0.00  0.00    +0.016 A 
ATOM     30  C   LIG    1       24.172 -31.193   6.694  0.00  0.00    +0.003 A 
ATOM     31  C   LIG    1       26.522 -28.638   9.136  0.00  0.00    +0.018 A 
ATOM     32  C   LIG    1       24.362 -29.898   6.230  0.00  0.00    +0.024 A 
ENDBRANCH  21  24
ENDBRANCH  17  18
ENDBRANCH   1  17
TORSDOF 7
ENDMDL
MODEL 5
REMARK VINA RESULT:      -8.9      1.505      1.898
REMARK  Name = *****
REMARK                            x       y       z     vdW  Elec       q    Type
REMARK                         _______ _______ _______ _____ _____    ______ ____
ROOT
ATOM      1  C   LIG    1       24.577 -24.456   6.402  0.00  0.00    +0.019 C 
ENDROOT
BRANCH   1   2
ATOM      2  C   LIG    1       24.746 -23.607   5.137  0.00  0.00    +0.042 C 
BRANCH   2   3
ATOM      3  C   LIG    1       24.862 -22.131   5.467  0.00  0.00    +0.229 C 
BRANCH   3   4
ATOM      4  O   LIG    1       25.532 -21.933   6.715  0.00  0.00    -0.492 OA
BRANCH   4  13
ATOM      5  O   LIG    1       32.069 -20.977   9.190  0.00  0.00    -0.268 OA
ATOM      6  C   LIG    1       31.181 -20.649   8.394  0.00  0.00    +0.249 C 
ATOM      7  N   LIG    1       29.989 -21.310   8.325  0.00  0.00    -0.322 N 
ATOM      8  H   LIG    1       29.864 -22.081   8.964  0.00  0.00    +0.169 HD
ATOM      9  C   LIG    1       28.960 -20.946   7.443  0.00  0.00    +0.053 A 
ATOM     10  C   LIG    1       29.160 -19.861   6.580  0.00  0.00    -0.001 A 
ATOM     11  C   LIG    1       28.140 -19.487   5.708  0.00  0.00    +0.013 A 
ATOM     12  C   LIG    1       26.931 -20.179   5.725  0.00  0.00    +0.046 A 
ATOM     13  C   LIG    1       26.719 -21.247   6.606  0.00  0.00    +0.122 A 
ATOM     14  C   LIG    1       30.423 -19.134   6.613  0.00  0.00    +0.015 C 
ATOM     15  C   LIG    1       27.754 -21.651   7.451  0.00  0.00    +0.072 A 
ATOM     16  C   LIG    1       31.384 -19.507   7.472  0.00  0.00    +0.071 C 
ENDBRANCH   4  13
ENDBRANCH   3   4
ENDBRANCH   2   3
ENDBRANCH   1   2
BRANCH   1  17
ATOM     17  C   LIG    1       24.028 -25.869   6.115  0.00  0.00    +0.085 C 
BRANCH  17  18
ATOM     18  N   LIG    1       25.009 -26.773   5.492  0.00  0.00    -0.299 NA
ATOM     19  C   LIG    1       26.291 -26.832   6.234  0.00  0.00    +0.103 C 
ATOM     20  C   LIG    1       26.243 -27.539   7.616  0.00  0.00    +0.120 C 
ATOM     21  N   LIG    1       25.652 -28.894   7.497  0.00  0.00    -0.327 N 
ATOM     22  C   LIG    1       24.359 -28.888   6.769  0.00  0.00    +0.120 C 
ATOM     23  C   LIG    1       24.486 -28.165   5.407  0.00  0.00    +0.103 C 
BRANCH  21  24
ATOM     24  C   LIG    1       25.667 -29.602   8.729  0.00  0.00    +0.038 A 
ATOM     25  C   LIG    1       25.398 -31.012   8.814  0.00  0.00    +0.010 A 
ATOM     26  C   LIG    1       25.384 -31.631  10.072  0.00  0.00    +0.021 A 
ATOM     27  S   LIG    1       25.023 -33.315   9.973  0.00  0.00    -0.097 S 
ATOM     28  C   LIG    1       24.876 -33.256   8.282  0.00  0.00    +0.046 A 
ATOM     29  C   LIG    1       25.636 -30.928  11.261  0.00  0.00    +0.016 A 
ATOM     30  C   LIG    1       25.912 -29.572  11.183  0.00  0.00    +0.003 A 
ATOM     31  C   LIG    1       25.090 -31.988   7.791  0.00  0.00    +0.018 A 
ATOM     32  C   LIG    1       25.929 -28.933   9.950  0.00  0.00    +0.024 A 
ENDBRANCH  21  24
ENDBRANCH  17  18
ENDBRANCH   1  17
TORSDOF 7
ENDMDL
MODEL 6
REMARK VINA RESULT:      -8.9      0.858      1.809
REMARK  Name = *****
REMARK                            x       y       z     vdW  Elec       q    Type
REMARK                         _______ _______ _______ _____ _____    ______ ____
ROOT
ATOM      1  C   LIG    1       23.768 -23.875   6.881  0.00  0.00    +0.019 C 
ENDROOT
BRANCH   1   2
ATOM      2  C   LIG    1       23.531 -22.726   5.894  0.00  0.00    +0.042 C 
BRANCH   2   3
ATOM      3  C   LIG    1       24.616 -21.670   5.994  0.00  0.00    +0.229 C 
BRANCH   3   4
ATOM      4  O   LIG    1       25.686 -22.110   6.835  0.00  0.00    -0.492 OA
BRANCH   4  13
ATOM      5  O   LIG    1       32.178 -20.767   9.249  0.00  0.00    -0.268 OA
ATOM      6  C   LIG    1       31.272 -20.506   8.449  0.00  0.00    +0.249 C 
ATOM      7  N   LIG    1       30.113 -21.225   8.405  0.00  0.00    -0.322 N 
ATOM      8  H   LIG    1       30.028 -21.982   9.067  0.00  0.00    +0.169 HD
ATOM      9  C   LIG    1       29.065 -20.937   7.518  0.00  0.00    +0.053 A 
ATOM     10  C   LIG    1       29.209 -19.869   6.623  0.00  0.00    -0.001 A 
ATOM     11  C   LIG    1       28.169 -19.571   5.745  0.00  0.00    +0.013 A 
ATOM     12  C   LIG    1       26.995 -20.320   5.788  0.00  0.00    +0.046 A 
ATOM     13  C   LIG    1       26.839 -21.371   6.701  0.00  0.00    +0.122 A 
ATOM     14  C   LIG    1       30.435 -19.082   6.628  0.00  0.00    +0.015 C 
ATOM     15  C   LIG    1       27.895 -21.700   7.552  0.00  0.00    +0.072 A 
ATOM     16  C   LIG    1       31.416 -19.382   7.493  0.00  0.00    +0.071 C 
ENDBRANCH   4  13
ENDBRANCH   3   4
ENDBRANCH   2   3
ENDBRANCH   1   2
BRANCH   1  17
ATOM     17  C   LIG    1       23.947 -25.241   6.188  0.00  0.00    +0.085 C 
BRANCH  17  18
ATOM     18  N   LIG    1       25.348 -25.575   5.884  0.00  0.00    -0.299 NA
ATOM     19  C   LIG    1       26.012 -26.325   6.976  0.00  0.00    +0.103 C 
ATOM     20  C   LIG    1       25.520 -27.782   7.197  0.00  0.00    +0.120 C 
ATOM     21  N   LIG    1       25.573 -28.556   5.933  0.00  0.00    -0.327 N 
ATOM     22  C   LIG    1       24.912 -27.851   4.807  0.00  0.00    +0.120 C 
ATOM     23  C   LIG    1       25.451 -26.409   4.653  0.00  0.00    +0.103 C 
BRANCH  21  24
ATOM     24  C   LIG    1       25.207 -29.917   6.114  0.00  0.00    +0.038 A 
ATOM     25  C   LIG    1       24.532 -30.385   7.294  0.00  0.00    +0.010 A 
ATOM     26  C   LIG    1       24.245 -31.752   7.421  0.00  0.00    +0.021 A 
ATOM     27  S   LIG    1       23.455 -32.123   8.909  0.00  0.00    -0.097 S 
ATOM     28  C   LIG    1       23.480 -30.500   9.409  0.00  0.00    +0.046 A 
ATOM     29  C   LIG    1       24.583 -32.687   6.430  0.00  0.00    +0.016 A 
ATOM     30  C   LIG    1       25.218 -32.238   5.284  0.00  0.00    +0.003 A 
ATOM     31  C   LIG    1       24.078 -29.684   8.475  0.00  0.00    +0.018 A 
ATOM     32  C   LIG    1       25.517 -30.891   5.133  0.00  0.00    +0.024 A 
ENDBRANCH  21  24
ENDBRANCH  17  18
ENDBRANCH   1  17
TORSDOF 7
ENDMDL
MODEL 7
REMARK VINA RESULT:      -8.8      4.189      6.185
REMARK  Name = *****
REMARK                            x       y       z     vdW  Elec       q    Type
REMARK                         _______ _______ _______ _____ _____    ______ ____
ROOT
ATOM      1  C   LIG    1       25.184 -29.004   7.061  0.00  0.00    +0.019 C 
ENDROOT
BRANCH   1   2
ATOM      2  C   LIG    1       24.403 -28.170   6.040  0.00  0.00    +0.042 C 
BRANCH   2   3
ATOM      3  C   LIG    1       24.814 -26.710   6.080  0.00  0.00    +0.229 C 
BRANCH   3   4
ATOM      4  O   LIG    1       23.669 -25.852   6.073  0.00  0.00    -0.492 OA
BRANCH   4  13
ATOM      5  O   LIG    1       28.532 -21.188   8.165  0.00  0.00    -0.268 OA
ATOM      6  C   LIG    1       27.345 -21.448   7.935  0.00  0.00    +0.249 C 
ATOM      7  N   LIG    1       26.950 -22.651   7.428  0.00  0.00    -0.322 N 
ATOM      8  H   LIG    1       27.679 -23.327   7.253  0.00  0.00    +0.169 HD
ATOM      9  C   LIG    1       25.608 -22.974   7.176  0.00  0.00    +0.053 A 
ATOM     10  C   LIG    1       24.619 -22.019   7.444  0.00  0.00    -0.001 A 
ATOM     11  C   LIG    1       23.283 -22.336   7.206  0.00  0.00    +0.013 A 
ATOM     12  C   LIG    1       22.950 -23.601   6.730  0.00  0.00    +0.046 A 
ATOM     13  C   LIG    1       23.935 -24.567   6.486  0.00  0.00    +0.122 A 
ATOM     14  C   LIG    1       24.998 -20.716   7.976  0.00  0.00    +0.015 C 
ATOM     15  C   LIG    1       25.277 -24.239   6.684  0.00  0.00    +0.072 A 
ATOM     16  C   LIG    1       26.291 -20.442   8.210  0.00  0.00    +0.071 C 
ENDBRANCH   4  13
ENDBRANCH   3   4
ENDBRANCH   2   3
ENDBRANCH   1   2
BRANCH   1  17
ATOM     17  C   LIG    1       24.321 -30.082   7.749  0.00  0.00    +0.085 C 
BRANCH  17  18
ATOM     18  N   LIG    1       25.055 -30.894   8.732  0.00  0.00    -0.299 NA
ATOM     19  C   LIG    1       26.153 -30.148   9.392  0.00  0.00    +0.103 C 
ATOM     20  C   LIG    1       25.718 -29.024  10.371  0.00  0.00    +0.120 C 
ATOM     21  N   LIG    1       24.767 -29.543  11.383  0.00  0.00    -0.327 N 
ATOM     22  C   LIG    1       23.641 -30.293  10.773  0.00  0.00    +0.120 C 
ATOM     23  C   LIG    1       24.153 -31.390   9.809  0.00  0.00    +0.103 C 
BRANCH  21  24
ATOM     24  C   LIG    1       24.409 -28.561  12.346  0.00  0.00    +0.038 A 
ATOM     25  C   LIG    1       25.381 -27.902  13.175  0.00  0.00    +0.010 A 
ATOM     26  C   LIG    1       24.947 -26.977  14.136  0.00  0.00    +0.021 A 
ATOM     27  S   LIG    1       26.252 -26.309  15.044  0.00  0.00    -0.097 S 
ATOM     28  C   LIG    1       27.404 -27.223  14.194  0.00  0.00    +0.046 A 
ATOM     29  C   LIG    1       23.591 -26.659  14.315  0.00  0.00    +0.016 A 
ATOM     30  C   LIG    1       22.652 -27.279  13.507  0.00  0.00    +0.003 A 
ATOM     31  C   LIG    1       26.821 -28.027  13.241  0.00  0.00    +0.018 A 
ATOM     32  C   LIG    1       23.054 -28.201  12.550  0.00  0.00    +0.024 A 
ENDBRANCH  21  24
ENDBRANCH  17  18
ENDBRANCH   1  17
TORSDOF 7
ENDMDL
MODEL 8
REMARK VINA RESULT:      -8.5      4.229      6.615
REMARK  Name = *****
REMARK                            x       y       z     vdW  Elec       q    Type
REMARK                         _______ _______ _______ _____ _____    ______ ____
ROOT
ATOM      1  C   LIG    1       25.220 -29.617   7.277  0.00  0.00    +0.019 C 
ENDROOT
BRANCH   1   2
ATOM      2  C   LIG    1       24.067 -28.800   6.683  0.00  0.00    +0.042 C 
BRANCH   2   3
ATOM      3  C   LIG    1       24.565 -27.786   5.670  0.00  0.00    +0.229 C 
BRANCH   3   4
ATOM      4  O   LIG    1       25.542 -26.916   6.249  0.00  0.00    -0.492 OA
BRANCH   4  13
ATOM      5  O   LIG    1       27.095 -20.351   8.314  0.00  0.00    -0.268 OA
ATOM      6  C   LIG    1       26.252 -21.164   7.919  0.00  0.00    +0.249 C 
ATOM      7  N   LIG    1       26.580 -22.444   7.577  0.00  0.00    -0.322 N 
ATOM      8  H   LIG    1       27.552 -22.699   7.671  0.00  0.00    +0.169 HD
ATOM      9  C   LIG    1       25.638 -23.388   7.143  0.00  0.00    +0.053 A 
ATOM     10  C   LIG    1       24.294 -23.006   7.040  0.00  0.00    -0.001 A 
ATOM     11  C   LIG    1       23.350 -23.941   6.619  0.00  0.00    +0.013 A 
ATOM     12  C   LIG    1       23.751 -25.243   6.331  0.00  0.00    +0.046 A 
ATOM     13  C   LIG    1       25.090 -25.634   6.460  0.00  0.00    +0.122 A 
ATOM     14  C   LIG    1       23.901 -21.645   7.384  0.00  0.00    +0.015 C 
ATOM     15  C   LIG    1       26.045 -24.690   6.841  0.00  0.00    +0.072 A 
ATOM     16  C   LIG    1       24.828 -20.769   7.800  0.00  0.00    +0.071 C 
ENDBRANCH   4  13
ENDBRANCH   3   4
ENDBRANCH   2   3
ENDBRANCH   1   2
BRANCH   1  17
ATOM     17  C   LIG    1       25.446 -29.343   8.778  0.00  0.00    +0.085 C 
BRANCH  17  18
ATOM     18  N   LIG    1       25.248 -30.523   9.635  0.00  0.00    -0.299 NA
ATOM     19  C   LIG    1       25.626 -30.279  11.048  0.00  0.00    +0.103 C 
ATOM     20  C   LIG    1       24.700 -29.319  11.842  0.00  0.00    +0.120 C 
ATOM     21  N   LIG    1       23.285 -29.755  11.755  0.00  0.00    -0.327 N 
ATOM     22  C   LIG    1       22.853 -30.003  10.357  0.00  0.00    +0.120 C 
ATOM     23  C   LIG    1       23.825 -30.964   9.632  0.00  0.00    +0.103 C 
BRANCH  21  24
ATOM     24  C   LIG    1       22.419 -28.945  12.537  0.00  0.00    +0.038 A 
ATOM     25  C   LIG    1       21.158 -29.421  13.038  0.00  0.00    +0.010 A 
ATOM     26  C   LIG    1       20.335 -28.548  13.763  0.00  0.00    +0.021 A 
ATOM     27  S   LIG    1       18.860 -29.292  14.260  0.00  0.00    -0.097 S 
ATOM     28  C   LIG    1       19.276 -30.767  13.528  0.00  0.00    +0.046 A 
ATOM     29  C   LIG    1       20.701 -27.219  14.033  0.00  0.00    +0.016 A 
ATOM     30  C   LIG    1       21.923 -26.760  13.568  0.00  0.00    +0.003 A 
ATOM     31  C   LIG    1       20.506 -30.707  12.912  0.00  0.00    +0.018 A 
ATOM     32  C   LIG    1       22.755 -27.603  12.844  0.00  0.00    +0.024 A 
ENDBRANCH  21  24
ENDBRANCH  17  18
ENDBRANCH   1  17
TORSDOF 7
ENDMDL
MODEL 9
REMARK VINA RESULT:      -8.4      3.745      5.739
REMARK  Name = *****
REMARK                            x       y       z     vdW  Elec       q    Type
REMARK                         _______ _______ _______ _____ _____    ______ ____
ROOT
ATOM      1  C   LIG    1       25.265 -29.102   5.867  0.00  0.00    +0.019 C 
ENDROOT
BRANCH   1   2
ATOM      2  C   LIG    1       24.368 -27.951   5.396  0.00  0.00    +0.042 C 
BRANCH   2   3
ATOM      3  C   LIG    1       24.645 -26.675   6.169  0.00  0.00    +0.229 C 
BRANCH   3   4
ATOM      4  O   LIG    1       23.575 -25.738   6.017  0.00  0.00    -0.492 OA
BRANCH   4  13
ATOM      5  O   LIG    1       28.579 -21.241   8.143  0.00  0.00    -0.268 OA
ATOM      6  C   LIG    1       27.382 -21.470   7.932  0.00  0.00    +0.249 C 
ATOM      7  N   LIG    1       26.951 -22.648   7.396  0.00  0.00    -0.322 N 
ATOM      8  H   LIG    1       27.662 -23.333   7.184  0.00  0.00    +0.169 HD
ATOM      9  C   LIG    1       25.598 -22.936   7.164  0.00  0.00    +0.053 A 
ATOM     10  C   LIG    1       24.635 -21.970   7.484  0.00  0.00    -0.001 A 
ATOM     11  C   LIG    1       23.288 -22.252   7.266  0.00  0.00    +0.013 A 
ATOM     12  C   LIG    1       22.918 -23.495   6.758  0.00  0.00    +0.046 A 
ATOM     13  C   LIG    1       23.877 -24.473   6.463  0.00  0.00    +0.122 A 
ATOM     14  C   LIG    1       25.053 -20.693   8.048  0.00  0.00    +0.015 C 
ATOM     15  C   LIG    1       25.230 -24.178   6.641  0.00  0.00    +0.072 A 
ATOM     16  C   LIG    1       26.355 -20.453   8.261  0.00  0.00    +0.071 C 
ENDBRANCH   4  13
ENDBRANCH   3   4
ENDBRANCH   2   3
ENDBRANCH   1   2
BRANCH   1  17
ATOM     17  C   LIG    1       25.163 -29.367   7.383  0.00  0.00    +0.085 C 
BRANCH  17  18
ATOM     18  N   LIG    1       25.013 -30.790   7.729  0.00  0.00    -0.299 NA
ATOM     19  C   LIG    1       26.236 -31.368   8.334  0.00  0.00    +0.103 C 
ATOM     20  C   LIG    1       26.589 -30.869   9.762  0.00  0.00    +0.120 C 
ATOM     21  N   LIG    1       25.435 -31.028  10.679  0.00  0.00    -0.327 N 
ATOM     22  C   LIG    1       24.184 -30.456  10.123  0.00  0.00    +0.120 C 
ATOM     23  C   LIG    1       23.903 -30.997   8.701  0.00  0.00    +0.103 C 
BRANCH  21  24
ATOM     24  C   LIG    1       25.748 -30.656  12.014  0.00  0.00    +0.038 A 
ATOM     25  C   LIG    1       26.173 -29.329  12.367  0.00  0.00    +0.010 A 
ATOM     26  C   LIG    1       26.511 -29.050  13.700  0.00  0.00    +0.021 A 
ATOM     27  S   LIG    1       27.016 -27.416  13.923  0.00  0.00    -0.097 S 
ATOM     28  C   LIG    1       26.804 -27.051  12.278  0.00  0.00    +0.046 A 
ATOM     29  C   LIG    1       26.438 -30.020  14.713  0.00  0.00    +0.016 A 
ATOM     30  C   LIG    1       26.012 -31.296  14.381  0.00  0.00    +0.003 A 
ATOM     31  C   LIG    1       26.363 -28.142  11.562  0.00  0.00    +0.018 A 
ATOM     32  C   LIG    1       25.675 -31.599  13.069  0.00  0.00    +0.024 A 
ENDBRANCH  21  24
ENDBRANCH  17  18
ENDBRANCH   1  17
TORSDOF 7
ENDMDL
