MODEL 1
REMARK VINA RESULT:     -10.6      0.000      0.000
REMARK  Name = *****
REMARK                            x       y       z     vdW  Elec       q    Type
REMARK                         _______ _______ _______ _____ _____    ______ ____
ROOT
ATOM      1  C   LIG    1       22.284 -20.789   4.923  0.00  0.00    +0.015 C 
ATOM      2  C   LIG    1       23.699 -21.267   5.366  0.00  0.00    +0.008 C 
ATOM      3  C   LIG    1       23.649 -22.829   5.420  0.00  0.00    +0.183 C 
ATOM      4  C   LIG    1       23.521 -23.204   6.903  0.00  0.00    +0.045 C 
ATOM      5  C   LIG    1       23.223 -21.903   7.641  0.00  0.00    +0.008 C 
ATOM      6  C   LIG    1       23.951 -20.818   6.833  0.00  0.00    +0.002 C 
ATOM      7  C   LIG    1       25.426 -20.543   7.274  0.00  0.00    +0.001 C 
ATOM      8  C   LIG    1       26.288 -19.885   6.161  0.00  0.00    +0.023 C 
ATOM      9  C   LIG    1       27.774 -19.782   6.496  0.00  0.00    -0.041 A 
ATOM     10  C   LIG    1       28.341 -20.479   7.577  0.00  0.00    -0.041 A 
ATOM     11  C   LIG    1       27.483 -21.241   8.544  0.00  0.00    +0.036 C 
ATOM     12  C   LIG    1       29.727 -20.439   7.788  0.00  0.00    +0.049 A 
ATOM     13  C   LIG    1       30.547 -19.734   6.918  0.00  0.00    +0.117 A 
ATOM     14  C   LIG    1       30.007 -19.017   5.861  0.00  0.00    +0.045 A 
ATOM     15  C   LIG    1       28.624 -19.030   5.660  0.00  0.00    +0.008 A 
ATOM     16  C   LIG    1       26.134 -20.642   4.832  0.00  0.00    +0.009 C 
ATOM     17  C   LIG    1       26.185 -21.723   7.905  0.00  0.00    +0.009 C 
ATOM     18  C   LIG    1       24.690 -20.664   4.365  0.00  0.00    +0.011 C 
ENDROOT
BRANCH  13  19
ATOM     19  O   LIG    1       31.892 -19.781   7.135  0.00  0.00    -0.507 OA
ATOM     20  H   LIG    1       32.074 -20.477   7.787  0.00  0.00    +0.292 HD
ENDBRANCH  13  19
BRANCH   3  21
ATOM     21  O   LIG    1       24.816 -23.433   4.842  0.00  0.00    -0.461 OA
BRANCH  21  22
ATOM     22  C   LIG    1       25.318 -24.511   5.513  0.00  0.00    +0.307 C 
ATOM     23  O   LIG    1       26.041 -24.452   6.499  0.00  0.00    -0.251 OA
BRANCH  22  24
ATOM     24  C   LIG    1       24.814 -25.784   4.873  0.00  0.00    +0.121 C 
BRANCH  24  25
ATOM     25  C   LIG    1       24.172 -26.729   5.897  0.00  0.00    +0.015 C 
BRANCH  25  26
ATOM     26  C   LIG    1       25.041 -27.954   6.221  0.00  0.00    -0.010 C 
ATOM     27  C   LIG    1       25.763 -27.794   7.572  0.00  0.00    +0.003 C 
ATOM     28  C   LIG    1       25.679 -29.159   8.239  0.00  0.00    +0.000 C 
ATOM     29  C   LIG    1       24.320 -29.669   7.801  0.00  0.00    +0.000 C 
ATOM     30  C   LIG    1       24.251 -29.271   6.335  0.00  0.00    +0.003 C 
ENDBRANCH  25  26
ENDBRANCH  24  25
ENDBRANCH  22  24
ENDBRANCH  21  22
ENDBRANCH   3  21
TORSDOF 6
ENDMDL
MODEL 2
REMARK VINA RESULT:      -8.9      4.234      9.040
REMARK  Name = *****
REMARK                            x       y       z     vdW  Elec       q    Type
REMARK                         _______ _______ _______ _____ _____    ______ ____
ROOT
ATOM      1  C   LIG    1       23.961 -33.253   8.861  0.00  0.00    +0.015 C 
ATOM      2  C   LIG    1       24.582 -31.839   9.057  0.00  0.00    +0.008 C 
ATOM      3  C   LIG    1       25.153 -31.402   7.668  0.00  0.00    +0.183 C 
ATOM      4  C   LIG    1       26.670 -31.616   7.740  0.00  0.00    +0.045 C 
ATOM      5  C   LIG    1       26.923 -32.410   9.018  0.00  0.00    +0.008 C 
ATOM      6  C   LIG    1       25.823 -31.952   9.987  0.00  0.00    +0.002 C 
ATOM      7  C   LIG    1       26.193 -30.717  10.872  0.00  0.00    +0.001 C 
ATOM      8  C   LIG    1       24.952 -29.956  11.416  0.00  0.00    +0.023 C 
ATOM      9  C   LIG    1       25.280 -28.641  12.120  0.00  0.00    -0.041 A 
ATOM     10  C   LIG    1       26.549 -28.044  12.022  0.00  0.00    -0.041 A 
ATOM     11  C   LIG    1       27.688 -28.748  11.343  0.00  0.00    +0.036 C 
ATOM     12  C   LIG    1       26.778 -26.786  12.599  0.00  0.00    +0.049 A 
ATOM     13  C   LIG    1       25.749 -26.114  13.243  0.00  0.00    +0.117 A 
ATOM     14  C   LIG    1       24.497 -26.696  13.374  0.00  0.00    +0.045 A 
ATOM     15  C   LIG    1       24.269 -27.960  12.827  0.00  0.00    +0.008 A 
ATOM     16  C   LIG    1       23.948 -29.673  10.287  0.00  0.00    +0.009 C 
ATOM     17  C   LIG    1       27.204 -29.724  10.276  0.00  0.00    +0.009 C 
ATOM     18  C   LIG    1       23.469 -30.955   9.630  0.00  0.00    +0.011 C 
ENDROOT
BRANCH  13  19
ATOM     19  O   LIG    1       26.011 -24.867  13.729  0.00  0.00    -0.507 OA
ATOM     20  H   LIG    1       26.791 -24.921  14.305  0.00  0.00    +0.292 HD
ENDBRANCH  13  19
BRANCH   3  21
ATOM     21  O   LIG    1       24.846 -30.035   7.357  0.00  0.00    -0.461 OA
BRANCH  21  22
ATOM     22  C   LIG    1       24.168 -29.832   6.190  0.00  0.00    +0.307 C 
ATOM     23  O   LIG    1       23.321 -30.585   5.726  0.00  0.00    -0.251 OA
BRANCH  22  24
ATOM     24  C   LIG    1       24.596 -28.517   5.579  0.00  0.00    +0.121 C 
BRANCH  24  25
ATOM     25  C   LIG    1       24.378 -27.338   6.537  0.00  0.00    +0.015 C 
BRANCH  25  26
ATOM     26  C   LIG    1       24.611 -25.969   5.879  0.00  0.00    -0.010 C 
ATOM     27  C   LIG    1       23.653 -24.901   6.441  0.00  0.00    +0.003 C 
ATOM     28  C   LIG    1       24.496 -23.644   6.597  0.00  0.00    +0.000 C 
ATOM     29  C   LIG    1       25.852 -24.190   7.000  0.00  0.00    +0.000 C 
ATOM     30  C   LIG    1       26.026 -25.402   6.097  0.00  0.00    +0.003 C 
ENDBRANCH  25  26
ENDBRANCH  24  25
ENDBRANCH  22  24
ENDBRANCH  21  22
ENDBRANCH   3  21
TORSDOF 6
ENDMDL
MODEL 3
REMARK VINA RESULT:      -8.6      4.386      9.822
REMARK  Name = *****
REMARK                            x       y       z     vdW  Elec       q    Type
REMARK                         _______ _______ _______ _____ _____    ______ ____
ROOT
ATOM      1  C   LIG    1       26.229 -32.269   9.701  0.00  0.00    +0.015 C 
ATOM      2  C   LIG    1       25.541 -30.910  10.022  0.00  0.00    +0.008 C 
ATOM      3  C   LIG    1       26.160 -29.852   9.052  0.00  0.00    +0.183 C 
ATOM      4  C   LIG    1       27.176 -29.052   9.878  0.00  0.00    +0.045 C 
ATOM      5  C   LIG    1       27.336 -29.808  11.194  0.00  0.00    +0.008 C 
ATOM      6  C   LIG    1       25.964 -30.449  11.446  0.00  0.00    +0.002 C 
ATOM      7  C   LIG    1       24.961 -29.568  12.261  0.00  0.00    +0.001 C 
ATOM      8  C   LIG    1       23.474 -29.966  12.044  0.00  0.00    +0.023 C 
ATOM      9  C   LIG    1       22.468 -29.005  12.673  0.00  0.00    -0.041 A 
ATOM     10  C   LIG    1       22.849 -27.736  13.143  0.00  0.00    -0.041 A 
ATOM     11  C   LIG    1       24.292 -27.326  13.188  0.00  0.00    +0.036 C 
ATOM     12  C   LIG    1       21.877 -26.844  13.620  0.00  0.00    +0.049 A 
ATOM     13  C   LIG    1       20.535 -27.198  13.603  0.00  0.00    +0.117 A 
ATOM     14  C   LIG    1       20.139 -28.454  13.167  0.00  0.00    +0.045 A 
ATOM     15  C   LIG    1       21.105 -29.358  12.718  0.00  0.00    +0.008 A 
ATOM     16  C   LIG    1       23.158 -30.099  10.545  0.00  0.00    +0.009 C 
ATOM     17  C   LIG    1       25.125 -28.044  12.132  0.00  0.00    +0.009 C 
ATOM     18  C   LIG    1       24.033 -31.146   9.880  0.00  0.00    +0.011 C 
ENDROOT
BRANCH  13  19
ATOM     19  O   LIG    1       19.628 -26.268  14.018  0.00  0.00    -0.507 OA
ATOM     20  H   LIG    1       19.670 -25.509  13.415  0.00  0.00    +0.292 HD
ENDBRANCH  13  19
BRANCH   3  21
ATOM     21  O   LIG    1       25.168 -28.983   8.485  0.00  0.00    -0.461 OA
BRANCH  21  22
ATOM     22  C   LIG    1       25.216 -28.835   7.129  0.00  0.00    +0.307 C 
ATOM     23  O   LIG    1       25.049 -29.735   6.316  0.00  0.00    -0.251 OA
BRANCH  22  24
ATOM     24  C   LIG    1       25.468 -27.384   6.789  0.00  0.00    +0.121 C 
BRANCH  24  25
ATOM     25  C   LIG    1       24.221 -26.702   6.211  0.00  0.00    +0.015 C 
BRANCH  25  26
ATOM     26  C   LIG    1       24.452 -25.230   5.837  0.00  0.00    -0.010 C 
ATOM     27  C   LIG    1       23.494 -24.295   6.601  0.00  0.00    +0.003 C 
ATOM     28  C   LIG    1       24.335 -23.093   7.001  0.00  0.00    +0.000 C 
ATOM     29  C   LIG    1       25.692 -23.706   7.286  0.00  0.00    +0.000 C 
ATOM     30  C   LIG    1       25.866 -24.714   6.160  0.00  0.00    +0.003 C 
ENDBRANCH  25  26
ENDBRANCH  24  25
ENDBRANCH  22  24
ENDBRANCH  21  22
ENDBRANCH   3  21
TORSDOF 6
ENDMDL
MODEL 4
REMARK VINA RESULT:      -8.3      3.225      6.461
REMARK  Name = *****
REMARK                            x       y       z     vdW  Elec       q    Type
REMARK                         _______ _______ _______ _____ _____    ______ ____
ROOT
ATOM      1  C   LIG    1       24.870 -23.375   5.086  0.00  0.00    +0.015 C 
ATOM      2  C   LIG    1       24.600 -21.884   5.447  0.00  0.00    +0.008 C 
ATOM      3  C   LIG    1       24.159 -21.857   6.947  0.00  0.00    +0.183 C 
ATOM      4  C   LIG    1       22.633 -21.695   6.944  0.00  0.00    +0.045 C 
ATOM      5  C   LIG    1       22.190 -21.906   5.500  0.00  0.00    +0.008 C 
ATOM      6  C   LIG    1       23.360 -21.386   4.651  0.00  0.00    +0.002 C 
ATOM      7  C   LIG    1       23.286 -19.867   4.282  0.00  0.00    +0.001 C 
ATOM      8  C   LIG    1       24.667 -19.253   3.923  0.00  0.00    +0.023 C 
ATOM      9  C   LIG    1       24.654 -17.737   3.747  0.00  0.00    -0.041 A 
ATOM     10  C   LIG    1       23.563 -16.952   4.160  0.00  0.00    -0.041 A 
ATOM     11  C   LIG    1       22.295 -17.584   4.656  0.00  0.00    +0.036 C 
ATOM     12  C   LIG    1       23.633 -15.553   4.074  0.00  0.00    +0.049 A 
ATOM     13  C   LIG    1       24.787 -14.938   3.610  0.00  0.00    +0.117 A 
ATOM     14  C   LIG    1       25.865 -15.693   3.173  0.00  0.00    +0.045 A 
ATOM     15  C   LIG    1       25.792 -17.087   3.229  0.00  0.00    +0.008 A 
ATOM     16  C   LIG    1       25.719 -19.617   4.984  0.00  0.00    +0.009 C 
ATOM     17  C   LIG    1       22.542 -18.956   5.274  0.00  0.00    +0.009 C 
ATOM     18  C   LIG    1       25.886 -21.120   5.114  0.00  0.00    +0.011 C 
ENDROOT
BRANCH  13  19
ATOM     19  O   LIG    1       24.823 -13.575   3.608  0.00  0.00    -0.507 OA
ATOM     20  H   LIG    1       24.025 -13.248   3.162  0.00  0.00    +0.292 HD
ENDBRANCH  13  19
BRANCH   3  21
ATOM     21  O   LIG    1       24.782 -20.792   7.680  0.00  0.00    -0.461 OA
BRANCH  21  22
ATOM     22  C   LIG    1       25.723 -21.174   8.593  0.00  0.00    +0.307 C 
ATOM     23  O   LIG    1       25.539 -21.972   9.503  0.00  0.00    -0.251 OA
BRANCH  22  24
ATOM     24  C   LIG    1       27.035 -20.489   8.283  0.00  0.00    +0.121 C 
BRANCH  24  25
ATOM     25  C   LIG    1       28.090 -21.472   7.762  0.00  0.00    +0.015 C 
BRANCH  25  26
ATOM     26  C   LIG    1       29.365 -20.783   7.252  0.00  0.00    -0.010 C 
ATOM     27  C   LIG    1       29.035 -19.593   6.331  0.00  0.00    +0.003 C 
ATOM     28  C   LIG    1       30.020 -18.500   6.715  0.00  0.00    +0.000 C 
ATOM     29  C   LIG    1       30.175 -18.689   8.211  0.00  0.00    +0.000 C 
ATOM     30  C   LIG    1       30.251 -20.201   8.368  0.00  0.00    +0.003 C 
ENDBRANCH  25  26
ENDBRANCH  24  25
ENDBRANCH  22  24
ENDBRANCH  21  22
ENDBRANCH   3  21
TORSDOF 6
ENDMDL
MODEL 5
REMARK VINA RESULT:      -8.3      4.627      9.096
REMARK  Name = *****
REMARK                            x       y       z     vdW  Elec       q    Type
REMARK                         _______ _______ _______ _____ _____    ______ ____
ROOT
ATOM      1  C   LIG    1       25.608 -32.556  10.298  0.00  0.00    +0.015 C 
ATOM      2  C   LIG    1       24.875 -31.515   9.402  0.00  0.00    +0.008 C 
ATOM      3  C   LIG    1       23.361 -31.903   9.408  0.00  0.00    +0.183 C 
ATOM      4  C   LIG    1       23.093 -32.612   8.074  0.00  0.00    +0.045 C 
ATOM      5  C   LIG    1       24.462 -32.870   7.452  0.00  0.00    +0.008 C 
ATOM      6  C   LIG    1       25.335 -31.700   7.928  0.00  0.00    +0.002 C 
ATOM      7  C   LIG    1       25.326 -30.446   6.993  0.00  0.00    +0.001 C 
ATOM      8  C   LIG    1       25.740 -29.135   7.718  0.00  0.00    +0.023 C 
ATOM      9  C   LIG    1       25.556 -27.870   6.882  0.00  0.00    -0.041 A 
ATOM     10  C   LIG    1       24.811 -27.871   5.690  0.00  0.00    -0.041 A 
ATOM     11  C   LIG    1       24.288 -29.150   5.102  0.00  0.00    +0.036 C 
ATOM     12  C   LIG    1       24.580 -26.668   5.007  0.00  0.00    +0.049 A 
ATOM     13  C   LIG    1       25.059 -25.470   5.517  0.00  0.00    +0.117 A 
ATOM     14  C   LIG    1       25.819 -25.449   6.678  0.00  0.00    +0.045 A 
ATOM     15  C   LIG    1       26.077 -26.647   7.349  0.00  0.00    +0.008 A 
ATOM     16  C   LIG    1       24.965 -28.972   9.035  0.00  0.00    +0.009 C 
ATOM     17  C   LIG    1       24.050 -30.215   6.167  0.00  0.00    +0.009 C 
ATOM     18  C   LIG    1       25.214 -30.136   9.978  0.00  0.00    +0.011 C 
ENDROOT
BRANCH  13  19
ATOM     19  O   LIG    1       24.751 -24.324   4.846  0.00  0.00    -0.507 OA
ATOM     20  H   LIG    1       23.876 -24.024   5.139  0.00  0.00    +0.292 HD
ENDBRANCH  13  19
BRANCH   3  21
ATOM     21  O   LIG    1       22.505 -30.761   9.557  0.00  0.00    -0.461 OA
BRANCH  21  22
ATOM     22  C   LIG    1       21.500 -30.890  10.472  0.00  0.00    +0.307 C 
ATOM     23  O   LIG    1       20.304 -30.826  10.219  0.00  0.00    -0.251 OA
BRANCH  22  24
ATOM     24  C   LIG    1       22.091 -31.162  11.837  0.00  0.00    +0.121 C 
BRANCH  24  25
ATOM     25  C   LIG    1       21.783 -30.037  12.833  0.00  0.00    +0.015 C 
BRANCH  25  26
ATOM     26  C   LIG    1       22.270 -28.657  12.363  0.00  0.00    -0.010 C 
ATOM     27  C   LIG    1       21.364 -27.528  12.889  0.00  0.00    +0.003 C 
ATOM     28  C   LIG    1       22.309 -26.407  13.295  0.00  0.00    +0.000 C 
ATOM     29  C   LIG    1       23.515 -27.155  13.830  0.00  0.00    +0.000 C 
ATOM     30  C   LIG    1       23.688 -28.297  12.839  0.00  0.00    +0.003 C 
ENDBRANCH  25  26
ENDBRANCH  24  25
ENDBRANCH  22  24
ENDBRANCH  21  22
ENDBRANCH   3  21
TORSDOF 6
ENDMDL
MODEL 6
REMARK VINA RESULT:      -8.1      2.163      7.862
REMARK  Name = *****
REMARK                            x       y       z     vdW  Elec       q    Type
REMARK                         _______ _______ _______ _____ _____    ______ ____
ROOT
ATOM      1  C   LIG    1       24.775 -20.138   8.564  0.00  0.00    +0.015 C 
ATOM      2  C   LIG    1       25.353 -21.220   7.605  0.00  0.00    +0.008 C 
ATOM      3  C   LIG    1       26.425 -20.508   6.717  0.00  0.00    +0.183 C 
ATOM      4  C   LIG    1       25.761 -20.261   5.356  0.00  0.00    +0.045 C 
ATOM      5  C   LIG    1       24.278 -20.564   5.550  0.00  0.00    +0.008 C 
ATOM      6  C   LIG    1       24.240 -21.669   6.615  0.00  0.00    +0.002 C 
ATOM      7  C   LIG    1       24.300 -23.129   6.056  0.00  0.00    +0.001 C 
ATOM      8  C   LIG    1       24.799 -24.167   7.100  0.00  0.00    +0.023 C 
ATOM      9  C   LIG    1       25.049 -25.561   6.528  0.00  0.00    -0.041 A 
ATOM     10  C   LIG    1       25.103 -25.796   5.143  0.00  0.00    -0.041 A 
ATOM     11  C   LIG    1       24.767 -24.714   4.159  0.00  0.00    +0.036 C 
ATOM     12  C   LIG    1       25.437 -27.070   4.661  0.00  0.00    +0.049 A 
ATOM     13  C   LIG    1       25.743 -28.095   5.545  0.00  0.00    +0.117 A 
ATOM     14  C   LIG    1       25.669 -27.893   6.915  0.00  0.00    +0.045 A 
ATOM     15  C   LIG    1       25.311 -26.634   7.403  0.00  0.00    +0.008 A 
ATOM     16  C   LIG    1       26.085 -23.678   7.785  0.00  0.00    +0.009 C 
ATOM     17  C   LIG    1       25.038 -23.323   4.721  0.00  0.00    +0.009 C 
ATOM     18  C   LIG    1       25.870 -22.354   8.497  0.00  0.00    +0.011 C 
ENDROOT
BRANCH  13  19
ATOM     19  O   LIG    1       26.122 -29.295   5.020  0.00  0.00    -0.507 OA
ATOM     20  H   LIG    1       26.641 -29.128   4.218  0.00  0.00    +0.292 HD
ENDBRANCH  13  19
BRANCH   3  21
ATOM     21  O   LIG    1       27.617 -21.292   6.566  0.00  0.00    -0.461 OA
BRANCH  21  22
ATOM     22  C   LIG    1       28.670 -20.925   7.353  0.00  0.00    +0.307 C 
ATOM     23  O   LIG    1       29.013 -21.494   8.381  0.00  0.00    -0.251 OA
BRANCH  22  24
ATOM     24  C   LIG    1       29.368 -19.733   6.739  0.00  0.00    +0.121 C 
BRANCH  24  25
ATOM     25  C   LIG    1       30.695 -19.417   7.441  0.00  0.00    +0.015 C 
BRANCH  25  26
ATOM     26  C   LIG    1       30.710 -18.041   8.125  0.00  0.00    -0.010 C 
ATOM     27  C   LIG    1       29.722 -17.986   9.306  0.00  0.00    +0.003 C 
ATOM     28  C   LIG    1       30.446 -17.219  10.402  0.00  0.00    +0.000 C 
ATOM     29  C   LIG    1       31.888 -17.654  10.227  0.00  0.00    +0.000 C 
ATOM     30  C   LIG    1       32.076 -17.650   8.718  0.00  0.00    +0.003 C 
ENDBRANCH  25  26
ENDBRANCH  24  25
ENDBRANCH  22  24
ENDBRANCH  21  22
ENDBRANCH   3  21
TORSDOF 6
ENDMDL
MODEL 7
REMARK VINA RESULT:      -7.6      5.559     10.464
REMARK  Name = *****
REMARK                            x       y       z     vdW  Elec       q    Type
REMARK                         _______ _______ _______ _____ _____    ______ ____
ROOT
ATOM      1  C   LIG    1       25.094 -32.284  12.157  0.00  0.00    +0.015 C 
ATOM      2  C   LIG    1       24.316 -30.948  11.971  0.00  0.00    +0.008 C 
ATOM      3  C   LIG    1       24.896 -30.264  10.691  0.00  0.00    +0.183 C 
ATOM      4  C   LIG    1       25.837 -29.157  11.184  0.00  0.00    +0.045 C 
ATOM      5  C   LIG    1       26.006 -29.385  12.683  0.00  0.00    +0.008 C 
ATOM      6  C   LIG    1       24.669 -29.987  13.141  0.00  0.00    +0.002 C 
ATOM      7  C   LIG    1       23.592 -28.943  13.585  0.00  0.00    +0.001 C 
ATOM      8  C   LIG    1       22.140 -29.492  13.517  0.00  0.00    +0.023 C 
ATOM      9  C   LIG    1       21.060 -28.440  13.759  0.00  0.00    -0.041 A 
ATOM     10  C   LIG    1       21.349 -27.064  13.751  0.00  0.00    -0.041 A 
ATOM     11  C   LIG    1       22.762 -26.569  13.653  0.00  0.00    +0.036 C 
ATOM     12  C   LIG    1       20.310 -26.129  13.875  0.00  0.00    +0.049 A 
ATOM     13  C   LIG    1       18.994 -26.555  13.979  0.00  0.00    +0.117 A 
ATOM     14  C   LIG    1       18.688 -27.907  14.016  0.00  0.00    +0.045 A 
ATOM     15  C   LIG    1       19.719 -28.845  13.921  0.00  0.00    +0.008 A 
ATOM     16  C   LIG    1       21.874 -30.167  12.162  0.00  0.00    +0.009 C 
ATOM     17  C   LIG    1       23.667 -27.556  12.924  0.00  0.00    +0.009 C 
ATOM     18  C   LIG    1       22.830 -31.321  11.915  0.00  0.00    +0.011 C 
ENDROOT
BRANCH  13  19
ATOM     19  O   LIG    1       18.020 -25.602  14.034  0.00  0.00    -0.507 OA
ATOM     20  H   LIG    1       17.247 -25.979  14.482  0.00  0.00    +0.292 HD
ENDBRANCH  13  19
BRANCH   3  21
ATOM     21  O   LIG    1       23.868 -29.720   9.849  0.00  0.00    -0.461 OA
BRANCH  21  22
ATOM     22  C   LIG    1       23.944 -30.060   8.529  0.00  0.00    +0.307 C 
ATOM     23  O   LIG    1       23.303 -30.957   7.995  0.00  0.00    -0.251 OA
BRANCH  22  24
ATOM     24  C   LIG    1       24.909 -29.135   7.823  0.00  0.00    +0.121 C 
BRANCH  24  25
ATOM     25  C   LIG    1       24.321 -28.570   6.525  0.00  0.00    +0.015 C 
BRANCH  25  26
ATOM     26  C   LIG    1       25.206 -27.497   5.873  0.00  0.00    -0.010 C 
ATOM     27  C   LIG    1       24.362 -26.427   5.154  0.00  0.00    +0.003 C 
ATOM     28  C   LIG    1       25.036 -25.100   5.469  0.00  0.00    +0.000 C 
ATOM     29  C   LIG    1       25.536 -25.300   6.887  0.00  0.00    +0.000 C 
ATOM     30  C   LIG    1       26.085 -26.719   6.869  0.00  0.00    +0.003 C 
ENDBRANCH  25  26
ENDBRANCH  24  25
ENDBRANCH  22  24
ENDBRANCH  21  22
ENDBRANCH   3  21
TORSDOF 6
ENDMDL
