MODEL 1
REMARK VINA RESULT:      -8.2      0.000      0.000
REMARK  Name = *****
REMARK                            x       y       z     vdW  Elec       q    Type
REMARK                         _______ _______ _______ _____ _____    ______ ____
ROOT
ATOM      1  C   LIG    1       25.115 -21.649   6.997  0.00  0.00    +0.140 C 
ATOM      2  C   LIG    1       25.916 -20.720   7.912  0.00  0.00    +0.239 C 
ATOM      3  O   LIG    1       25.482 -20.280   8.977  0.00  0.00    -0.274 OA
ATOM      4  N   LIG    1       27.212 -20.448   7.502  0.00  0.00    -0.228 N 
ATOM      5  C   LIG    1       28.126 -19.872   8.471  0.00  0.00    +0.143 C 
ATOM      6  C   LIG    1       27.556 -20.364   6.172  0.00  0.00    +0.315 C 
ATOM      7  O   LIG    1       28.633 -19.930   5.766  0.00  0.00    -0.252 OA
ATOM      8  N   LIG    1       26.607 -20.750   5.271  0.00  0.00    -0.239 N 
ATOM      9  H   LIG    1       26.866 -20.671   4.298  0.00  0.00    +0.159 HD
ATOM     10  C   LIG    1       25.445 -21.413   5.537  0.00  0.00    +0.237 C 
ATOM     11  O   LIG    1       24.769 -21.860   4.613  0.00  0.00    -0.274 OA
ENDROOT
BRANCH   1  12
ATOM     12  C   LIG    1       23.566 -21.457   7.159  0.00  0.00    +0.085 C 
ATOM     13  C   LIG    1       22.774 -22.769   7.004  0.00  0.00    +0.023 C 
BRANCH  12  14
ATOM     14  C   LIG    1       23.005 -20.445   6.235  0.00  0.00    -0.098 C 
ATOM     15  C   LIG    1       22.536 -19.673   5.439  0.00  0.00    -0.102 C 
BRANCH  15  16
ATOM     16  C   LIG    1       21.975 -18.806   4.398  0.00  0.00    +0.085 C 
ATOM     17  C   LIG    1       22.315 -17.347   4.646  0.00  0.00    +0.017 C 
ENDBRANCH  15  16
ENDBRANCH  12  14
ENDBRANCH   1  12
BRANCH   1  18
ATOM     18  C   LIG    1       25.520 -23.131   7.304  0.00  0.00    +0.053 C 
BRANCH  18  20
ATOM     19  C   LIG    1       25.537 -25.390   6.158  0.00  0.00    +0.004 C 
ATOM     20  C   LIG    1       25.661 -24.056   6.113  0.00  0.00    -0.033 C 
ENDBRANCH  18  20
ENDBRANCH   1  18
TORSDOF 5
ENDMDL
MODEL 2
REMARK VINA RESULT:      -8.0      0.952      1.095
REMARK  Name = *****
REMARK                            x       y       z     vdW  Elec       q    Type
REMARK                         _______ _______ _______ _____ _____    ______ ____
ROOT
ATOM      1  C   LIG    1       24.760 -21.289   5.962  0.00  0.00    +0.140 C 
ATOM      2  C   LIG    1       25.581 -20.755   7.138  0.00  0.00    +0.239 C 
ATOM      3  O   LIG    1       25.133 -20.638   8.278  0.00  0.00    -0.274 OA
ATOM      4  N   LIG    1       26.909 -20.468   6.858  0.00  0.00    -0.228 N 
ATOM      5  C   LIG    1       27.817 -20.293   7.976  0.00  0.00    +0.143 C 
ATOM      6  C   LIG    1       27.313 -19.999   5.628  0.00  0.00    +0.315 C 
ATOM      7  O   LIG    1       28.432 -19.542   5.400  0.00  0.00    -0.252 OA
ATOM      8  N   LIG    1       26.379 -20.011   4.634  0.00  0.00    -0.239 N 
ATOM      9  H   LIG    1       26.682 -19.652   3.740  0.00  0.00    +0.159 HD
ATOM     10  C   LIG    1       25.166 -20.635   4.657  0.00  0.00    +0.237 C 
ATOM     11  O   LIG    1       24.501 -20.718   3.625  0.00  0.00    -0.274 OA
ENDROOT
BRANCH   1  12
ATOM     12  C   LIG    1       23.221 -21.040   6.146  0.00  0.00    +0.085 C 
ATOM     13  C   LIG    1       22.354 -22.193   5.608  0.00  0.00    +0.023 C 
BRANCH  12  14
ATOM     14  C   LIG    1       22.761 -19.769   5.543  0.00  0.00    -0.098 C 
ATOM     15  C   LIG    1       22.362 -18.772   4.999  0.00  0.00    -0.102 C 
BRANCH  15  16
ATOM     16  C   LIG    1       21.868 -17.612   4.250  0.00  0.00    +0.085 C 
ATOM     17  C   LIG    1       22.366 -16.309   4.851  0.00  0.00    +0.017 C 
ENDBRANCH  15  16
ENDBRANCH  12  14
ENDBRANCH   1  12
BRANCH   1  18
ATOM     18  C   LIG    1       25.054 -22.818   5.794  0.00  0.00    +0.053 C 
BRANCH  18  20
ATOM     19  C   LIG    1       25.709 -24.888   7.099  0.00  0.00    +0.004 C 
ATOM     20  C   LIG    1       25.386 -23.588   7.055  0.00  0.00    -0.033 C 
ENDBRANCH  18  20
ENDBRANCH   1  18
TORSDOF 5
ENDMDL
MODEL 3
REMARK VINA RESULT:      -7.5      1.985      4.641
REMARK  Name = *****
REMARK                            x       y       z     vdW  Elec       q    Type
REMARK                         _______ _______ _______ _____ _____    ______ ____
ROOT
ATOM      1  C   LIG    1       25.196 -21.543   6.682  0.00  0.00    +0.140 C 
ATOM      2  C   LIG    1       25.678 -20.477   5.695  0.00  0.00    +0.239 C 
ATOM      3  O   LIG    1       26.829 -20.043   5.679  0.00  0.00    -0.274 OA
ATOM      4  N   LIG    1       24.746 -20.069   4.754  0.00  0.00    -0.228 N 
ATOM      5  C   LIG    1       25.224 -19.337   3.596  0.00  0.00    +0.143 C 
ATOM      6  C   LIG    1       23.399 -20.009   5.035  0.00  0.00    +0.315 C 
ATOM      7  O   LIG    1       22.568 -19.467   4.309  0.00  0.00    -0.252 OA
ATOM      8  N   LIG    1       23.000 -20.554   6.220  0.00  0.00    -0.239 N 
ATOM      9  H   LIG    1       22.012 -20.491   6.423  0.00  0.00    +0.159 HD
ATOM     10  C   LIG    1       23.740 -21.341   7.052  0.00  0.00    +0.237 C 
ATOM     11  O   LIG    1       23.199 -21.913   7.997  0.00  0.00    -0.274 OA
ENDROOT
BRANCH   1  12
ATOM     12  C   LIG    1       26.019 -21.535   8.019  0.00  0.00    +0.085 C 
ATOM     13  C   LIG    1       25.572 -20.434   8.998  0.00  0.00    +0.023 C 
BRANCH  12  14
ATOM     14  C   LIG    1       27.479 -21.424   7.802  0.00  0.00    -0.098 C 
ATOM     15  C   LIG    1       28.671 -21.295   7.683  0.00  0.00    -0.102 C 
BRANCH  15  16
ATOM     16  C   LIG    1       30.116 -21.060   7.605  0.00  0.00    +0.085 C 
ATOM     17  C   LIG    1       30.427 -19.671   7.077  0.00  0.00    +0.017 C 
ENDBRANCH  15  16
ENDBRANCH  12  14
ENDBRANCH   1  12
BRANCH   1  18
ATOM     18  C   LIG    1       25.281 -22.946   5.992  0.00  0.00    +0.053 C 
BRANCH  18  20
ATOM     19  C   LIG    1       25.939 -25.343   6.481  0.00  0.00    +0.004 C 
ATOM     20  C   LIG    1       25.539 -24.133   6.896  0.00  0.00    -0.033 C 
ENDBRANCH  18  20
ENDBRANCH   1  18
TORSDOF 5
ENDMDL
MODEL 4
REMARK VINA RESULT:      -7.4      1.349      4.871
REMARK  Name = *****
REMARK                            x       y       z     vdW  Elec       q    Type
REMARK                         _______ _______ _______ _____ _____    ______ ____
ROOT
ATOM      1  C   LIG    1       24.293 -21.622   5.923  0.00  0.00    +0.140 C 
ATOM      2  C   LIG    1       24.774 -21.155   4.547  0.00  0.00    +0.239 C 
ATOM      3  O   LIG    1       24.303 -21.572   3.490  0.00  0.00    -0.274 OA
ATOM      4  N   LIG    1       25.744 -20.165   4.557  0.00  0.00    -0.228 N 
ATOM      5  C   LIG    1       25.991 -19.442   3.323  0.00  0.00    +0.143 C 
ATOM      6  C   LIG    1       26.699 -20.086   5.546  0.00  0.00    +0.315 C 
ATOM      7  O   LIG    1       27.689 -19.359   5.489  0.00  0.00    -0.252 OA
ATOM      8  N   LIG    1       26.533 -20.909   6.621  0.00  0.00    -0.239 N 
ATOM      9  H   LIG    1       27.248 -20.853   7.333  0.00  0.00    +0.159 HD
ATOM     10  C   LIG    1       25.423 -21.637   6.932  0.00  0.00    +0.237 C 
ATOM     11  O   LIG    1       25.343 -22.194   8.026  0.00  0.00    -0.274 OA
ENDROOT
BRANCH   1  12
ATOM     12  C   LIG    1       23.686 -23.069   5.885  0.00  0.00    +0.085 C 
ATOM     13  C   LIG    1       22.614 -23.304   6.966  0.00  0.00    +0.023 C 
BRANCH  12  14
ATOM     14  C   LIG    1       24.711 -24.133   5.984  0.00  0.00    -0.098 C 
ATOM     15  C   LIG    1       25.499 -25.041   6.036  0.00  0.00    -0.102 C 
BRANCH  15  16
ATOM     16  C   LIG    1       26.380 -26.212   6.087  0.00  0.00    +0.085 C 
ATOM     17  C   LIG    1       26.156 -27.129   4.897  0.00  0.00    +0.017 C 
ENDBRANCH  15  16
ENDBRANCH  12  14
ENDBRANCH   1  12
BRANCH   1  18
ATOM     18  C   LIG    1       23.238 -20.598   6.463  0.00  0.00    +0.053 C 
BRANCH  18  20
ATOM     19  C   LIG    1       22.398 -18.784   4.908  0.00  0.00    +0.004 C 
ATOM     20  C   LIG    1       22.284 -20.005   5.447  0.00  0.00    -0.033 C 
ENDBRANCH  18  20
ENDBRANCH   1  18
TORSDOF 5
ENDMDL
MODEL 5
REMARK VINA RESULT:      -6.7      2.029      5.586
REMARK  Name = *****
REMARK                            x       y       z     vdW  Elec       q    Type
REMARK                         _______ _______ _______ _____ _____    ______ ____
ROOT
ATOM      1  C   LIG    1       26.669 -20.756   6.858  0.00  0.00    +0.140 C 
ATOM      2  C   LIG    1       25.778 -20.583   5.627  0.00  0.00    +0.239 C 
ATOM      3  O   LIG    1       26.182 -20.123   4.559  0.00  0.00    -0.274 OA
ATOM      4  N   LIG    1       24.478 -21.048   5.759  0.00  0.00    -0.228 N 
ATOM      5  C   LIG    1       23.695 -21.232   4.552  0.00  0.00    +0.143 C 
ATOM      6  C   LIG    1       23.802 -20.997   6.957  0.00  0.00    +0.315 C 
ATOM      7  O   LIG    1       22.595 -21.205   7.075  0.00  0.00    -0.252 OA
ATOM      8  N   LIG    1       24.532 -20.647   8.055  0.00  0.00    -0.239 N 
ATOM      9  H   LIG    1       24.022 -20.600   8.926  0.00  0.00    +0.159 HD
ATOM     10  C   LIG    1       25.890 -20.557   8.142  0.00  0.00    +0.237 C 
ATOM     11  O   LIG    1       26.425 -20.410   9.240  0.00  0.00    -0.274 OA
ENDROOT
BRANCH   1  12
ATOM     12  C   LIG    1       27.864 -19.738   6.879  0.00  0.00    +0.085 C 
ATOM     13  C   LIG    1       28.244 -19.223   5.478  0.00  0.00    +0.023 C 
BRANCH  12  14
ATOM     14  C   LIG    1       29.075 -20.276   7.539  0.00  0.00    -0.098 C 
ATOM     15  C   LIG    1       30.062 -20.656   8.114  0.00  0.00    -0.102 C 
BRANCH  15  16
ATOM     16  C   LIG    1       31.280 -21.022   8.845  0.00  0.00    +0.085 C 
ATOM     17  C   LIG    1       31.115 -22.342   9.576  0.00  0.00    +0.017 C 
ENDBRANCH  15  16
ENDBRANCH  12  14
ENDBRANCH   1  12
BRANCH   1  18
ATOM     18  C   LIG    1       27.201 -22.229   6.893  0.00  0.00    +0.053 C 
BRANCH  18  20
ATOM     19  C   LIG    1       25.736 -24.282   6.668  0.00  0.00    +0.004 C 
ATOM     20  C   LIG    1       26.244 -23.285   7.405  0.00  0.00    -0.033 C 
ENDBRANCH  18  20
ENDBRANCH   1  18
TORSDOF 5
ENDMDL
MODEL 6
REMARK VINA RESULT:      -6.7      2.924      4.596
REMARK  Name = *****
REMARK                            x       y       z     vdW  Elec       q    Type
REMARK                         _______ _______ _______ _____ _____    ______ ____
ROOT
ATOM      1  C   LIG    1       28.867 -19.906   7.077  0.00  0.00    +0.140 C 
ATOM      2  C   LIG    1       30.021 -18.972   7.448  0.00  0.00    +0.239 C 
ATOM      3  O   LIG    1       30.205 -17.879   6.913  0.00  0.00    -0.274 OA
ATOM      4  N   LIG    1       30.827 -19.402   8.491  0.00  0.00    -0.228 N 
ATOM      5  C   LIG    1       31.708 -18.433   9.115  0.00  0.00    +0.143 C 
ATOM      6  C   LIG    1       31.087 -20.737   8.713  0.00  0.00    +0.315 C 
ATOM      7  O   LIG    1       31.946 -21.150   9.488  0.00  0.00    -0.252 OA
ATOM      8  N   LIG    1       30.361 -21.629   7.979  0.00  0.00    -0.239 N 
ATOM      9  H   LIG    1       30.570 -22.604   8.139  0.00  0.00    +0.159 HD
ATOM     10  C   LIG    1       29.262 -21.362   7.217  0.00  0.00    +0.237 C 
ATOM     11  O   LIG    1       28.597 -22.288   6.755  0.00  0.00    -0.274 OA
ENDROOT
BRANCH   1  12
ATOM     12  C   LIG    1       28.381 -19.697   5.599  0.00  0.00    +0.085 C 
ATOM     13  C   LIG    1       28.647 -18.275   5.070  0.00  0.00    +0.023 C 
BRANCH  12  14
ATOM     14  C   LIG    1       26.950 -20.023   5.406  0.00  0.00    -0.098 C 
ATOM     15  C   LIG    1       25.802 -20.315   5.188  0.00  0.00    -0.102 C 
BRANCH  15  16
ATOM     16  C   LIG    1       24.430 -20.681   4.822  0.00  0.00    +0.085 C 
ATOM     17  C   LIG    1       23.454 -20.368   5.943  0.00  0.00    +0.017 C 
ENDBRANCH  15  16
ENDBRANCH  12  14
ENDBRANCH   1  12
BRANCH   1  18
ATOM     18  C   LIG    1       27.688 -19.674   8.081  0.00  0.00    +0.053 C 
BRANCH  18  20
ATOM     19  C   LIG    1       25.679 -21.085   8.706  0.00  0.00    +0.004 C 
ATOM     20  C   LIG    1       27.005 -20.912   8.625  0.00  0.00    -0.033 C 
ENDBRANCH  18  20
ENDBRANCH   1  18
TORSDOF 5
ENDMDL
MODEL 7
REMARK VINA RESULT:      -6.6      1.862      3.804
REMARK  Name = *****
REMARK                            x       y       z     vdW  Elec       q    Type
REMARK                         _______ _______ _______ _____ _____    ______ ____
ROOT
ATOM      1  C   LIG    1       25.091 -21.872   6.614  0.00  0.00    +0.140 C 
ATOM      2  C   LIG    1       24.502 -22.933   5.681  0.00  0.00    +0.239 C 
ATOM      3  O   LIG    1       23.488 -22.753   5.008  0.00  0.00    -0.274 OA
ATOM      4  N   LIG    1       25.228 -24.110   5.580  0.00  0.00    -0.228 N 
ATOM      5  C   LIG    1       24.926 -25.003   4.477  0.00  0.00    +0.143 C 
ATOM      6  C   LIG    1       25.940 -24.623   6.641  0.00  0.00    +0.315 C 
ATOM      7  O   LIG    1       26.425 -25.753   6.661  0.00  0.00    -0.252 OA
ATOM      8  N   LIG    1       26.058 -23.824   7.740  0.00  0.00    -0.239 N 
ATOM      9  H   LIG    1       26.570 -24.217   8.517  0.00  0.00    +0.159 HD
ATOM     10  C   LIG    1       25.745 -22.500   7.828  0.00  0.00    +0.237 C 
ATOM     11  O   LIG    1       26.072 -21.858   8.825  0.00  0.00    -0.274 OA
ENDROOT
BRANCH   1  12
ATOM     12  C   LIG    1       24.004 -20.869   7.139  0.00  0.00    +0.085 C 
ATOM     13  C   LIG    1       22.939 -21.540   8.027  0.00  0.00    +0.023 C 
BRANCH  12  14
ATOM     14  C   LIG    1       23.326 -20.124   6.054  0.00  0.00    -0.098 C 
ATOM     15  C   LIG    1       22.759 -19.470   5.217  0.00  0.00    -0.102 C 
BRANCH  15  16
ATOM     16  C   LIG    1       22.023 -18.622   4.274  0.00  0.00    +0.085 C 
ATOM     17  C   LIG    1       22.211 -17.148   4.589  0.00  0.00    +0.017 C 
ENDBRANCH  15  16
ENDBRANCH  12  14
ENDBRANCH   1  12
BRANCH   1  18
ATOM     18  C   LIG    1       26.225 -21.105   5.854  0.00  0.00    +0.053 C 
BRANCH  18  20
ATOM     19  C   LIG    1       28.564 -20.372   6.493  0.00  0.00    +0.004 C 
ATOM     20  C   LIG    1       27.241 -20.374   6.707  0.00  0.00    -0.033 C 
ENDBRANCH  18  20
ENDBRANCH   1  18
TORSDOF 5
ENDMDL
MODEL 8
REMARK VINA RESULT:      -6.5      2.044      4.669
REMARK  Name = *****
REMARK                            x       y       z     vdW  Elec       q    Type
REMARK                         _______ _______ _______ _____ _____    ______ ____
ROOT
ATOM      1  C   LIG    1       24.852 -22.093   6.246  0.00  0.00    +0.140 C 
ATOM      2  C   LIG    1       26.081 -22.588   7.011  0.00  0.00    +0.239 C 
ATOM      3  O   LIG    1       26.574 -23.704   6.849  0.00  0.00    -0.274 OA
ATOM      4  N   LIG    1       26.665 -21.666   7.866  0.00  0.00    -0.228 N 
ATOM      5  C   LIG    1       28.004 -21.939   8.350  0.00  0.00    +0.143 C 
ATOM      6  C   LIG    1       25.923 -20.721   8.539  0.00  0.00    +0.315 C 
ATOM      7  O   LIG    1       26.362 -20.024   9.452  0.00  0.00    -0.252 OA
ATOM      8  N   LIG    1       24.611 -20.607   8.181  0.00  0.00    -0.239 N 
ATOM      9  H   LIG    1       24.074 -19.921   8.692  0.00  0.00    +0.159 HD
ATOM     10  C   LIG    1       24.008 -21.161   7.091  0.00  0.00    +0.237 C 
ATOM     11  O   LIG    1       22.863 -20.827   6.789  0.00  0.00    -0.274 OA
ENDROOT
BRANCH   1  12
ATOM     12  C   LIG    1       23.921 -23.270   5.785  0.00  0.00    +0.085 C 
ATOM     13  C   LIG    1       22.933 -23.723   6.876  0.00  0.00    +0.023 C 
BRANCH  12  14
ATOM     14  C   LIG    1       24.672 -24.449   5.297  0.00  0.00    -0.098 C 
ATOM     15  C   LIG    1       25.228 -25.446   4.914  0.00  0.00    -0.102 C 
BRANCH  15  16
ATOM     16  C   LIG    1       25.833 -26.715   4.498  0.00  0.00    +0.085 C 
ATOM     17  C   LIG    1       25.284 -27.883   5.299  0.00  0.00    +0.017 C 
ENDBRANCH  15  16
ENDBRANCH  12  14
ENDBRANCH   1  12
BRANCH   1  18
ATOM     18  C   LIG    1       25.329 -21.255   5.012  0.00  0.00    +0.053 C 
BRANCH  18  20
ATOM     19  C   LIG    1       23.990 -19.638   3.595  0.00  0.00    +0.004 C 
ATOM     20  C   LIG    1       24.272 -20.886   3.991  0.00  0.00    -0.033 C 
ENDBRANCH  18  20
ENDBRANCH   1  18
TORSDOF 5
ENDMDL
MODEL 9
REMARK VINA RESULT:      -6.4      2.353      4.883
REMARK  Name = *****
REMARK                            x       y       z     vdW  Elec       q    Type
REMARK                         _______ _______ _______ _____ _____    ______ ____
ROOT
ATOM      1  C   LIG    1       24.652 -20.954   6.232  0.00  0.00    +0.140 C 
ATOM      2  C   LIG    1       25.156 -22.396   6.140  0.00  0.00    +0.239 C 
ATOM      3  O   LIG    1       26.274 -22.697   5.723  0.00  0.00    -0.274 OA
ATOM      4  N   LIG    1       24.291 -23.364   6.628  0.00  0.00    -0.228 N 
ATOM      5  C   LIG    1       24.827 -24.687   6.890  0.00  0.00    +0.143 C 
ATOM      6  C   LIG    1       22.923 -23.237   6.535  0.00  0.00    +0.315 C 
ATOM      7  O   LIG    1       22.131 -24.148   6.766  0.00  0.00    -0.252 OA
ATOM      8  N   LIG    1       22.451 -22.028   6.115  0.00  0.00    -0.239 N 
ATOM      9  H   LIG    1       21.446 -21.952   6.037  0.00  0.00    +0.159 HD
ATOM     10  C   LIG    1       23.159 -20.870   5.989  0.00  0.00    +0.237 C 
ATOM     11  O   LIG    1       22.569 -19.812   5.775  0.00  0.00    -0.274 OA
ENDROOT
BRANCH   1  12
ATOM     12  C   LIG    1       25.346 -20.012   5.186  0.00  0.00    +0.085 C 
ATOM     13  C   LIG    1       25.044 -20.401   3.726  0.00  0.00    +0.023 C 
BRANCH  12  14
ATOM     14  C   LIG    1       26.812 -19.922   5.366  0.00  0.00    -0.098 C 
ATOM     15  C   LIG    1       27.994 -19.839   5.581  0.00  0.00    -0.102 C 
BRANCH  15  16
ATOM     16  C   LIG    1       29.411 -19.694   5.932  0.00  0.00    +0.085 C 
ATOM     17  C   LIG    1       29.628 -18.551   6.908  0.00  0.00    +0.017 C 
ENDBRANCH  15  16
ENDBRANCH  12  14
ENDBRANCH   1  12
BRANCH   1  18
ATOM     18  C   LIG    1       24.889 -20.428   7.688  0.00  0.00    +0.053 C 
BRANCH  18  20
ATOM     19  C   LIG    1       27.178 -20.771   8.715  0.00  0.00    +0.004 C 
ATOM     20  C   LIG    1       25.914 -21.170   8.520  0.00  0.00    -0.033 C 
ENDBRANCH  18  20
ENDBRANCH   1  18
TORSDOF 5
ENDMDL
