MODEL 1
REMARK VINA RESULT:      -8.5      0.000      0.000
REMARK  Name = *****
REMARK                            x       y       z     vdW  Elec       q    Type
REMARK                         _______ _______ _______ _____ _____    ______ ____
ROOT
ATOM      1  C   LIG    1       24.632 -21.202   7.371  0.00  0.00    +0.190 C 
ENDROOT
BRANCH   1   2
ATOM      2  C   LIG    1       24.705 -20.290   6.096  0.00  0.00    +0.036 C 
ATOM      3  C   LIG    1       25.303 -20.967   4.839  0.00  0.00    +0.007 C 
ATOM      4  C   LIG    1       24.357 -21.943   4.144  0.00  0.00    +0.000 C 
ATOM      5  C   LIG    1       23.053 -21.262   3.755  0.00  0.00    +0.000 C 
ATOM      6  C   LIG    1       22.389 -20.568   4.940  0.00  0.00    +0.000 C 
ATOM      7  C   LIG    1       23.349 -19.649   5.699  0.00  0.00    +0.007 C 
ENDBRANCH   1   2
BRANCH   1   8
ATOM      8  C   LIG    1       24.663 -22.710   7.023  0.00  0.00    -0.005 A 
ATOM      9  C   LIG    1       23.486 -23.444   6.788  0.00  0.00    +0.007 A 
ATOM     10  C   LIG    1       23.518 -24.799   6.451  0.00  0.00    +0.000 A 
ATOM     11  C   LIG    1       24.731 -25.471   6.381  0.00  0.00    +0.000 A 
ATOM     12  C   LIG    1       25.912 -24.783   6.636  0.00  0.00    +0.000 A 
ATOM     13  C   LIG    1       25.880 -23.417   6.941  0.00  0.00    +0.007 A 
ENDBRANCH   1   8
BRANCH   1  14
ATOM     14  C   LIG    1       25.832 -20.843   8.326  0.00  0.00    +0.345 C 
ATOM     15  O   LIG    1       25.876 -21.010   9.538  0.00  0.00    -0.247 OA
BRANCH  14  16
ATOM     16  O   LIG    1       26.845 -20.276   7.599  0.00  0.00    -0.450 OA
BRANCH  16  17
ATOM     17  C   LIG    1       28.006 -21.106   7.498  0.00  0.00    +0.321 C 
BRANCH  17  19
ATOM     18  C   LIG    1       30.191 -19.575   7.660  0.00  0.00    -0.083 C 
ATOM     19  C   LIG    1       29.182 -20.240   7.544  0.00  0.00    -0.060 C 
BRANCH  18  20
ATOM     20  C   LIG    1       31.409 -18.769   7.845  0.00  0.00    +0.174 C 
BRANCH  20  21
ATOM     21  N   LIG    1       31.190 -17.539   8.628  0.00  0.00    -0.292 NA
BRANCH  21  23
ATOM     22  C   LIG    1       30.358 -17.761  11.008  0.00  0.00    +0.020 C 
ATOM     23  C   LIG    1       30.024 -17.622   9.525  0.00  0.00    +0.082 C 
ENDBRANCH  21  23
BRANCH  21  24
ATOM     24  C   LIG    1       32.422 -17.161   9.354  0.00  0.00    +0.082 C 
ATOM     25  C   LIG    1       32.625 -15.653   9.509  0.00  0.00    +0.020 C 
ENDBRANCH  21  24
ENDBRANCH  20  21
ENDBRANCH  18  20
ENDBRANCH  17  19
ENDBRANCH  16  17
ENDBRANCH  14  16
ENDBRANCH   1  14
BRANCH   1  26
ATOM     26  O   LIG    1       23.393 -20.960   8.060  0.00  0.00    -0.373 OA
ATOM     27  H   LIG    1       23.144 -21.804   8.482  0.00  0.00    +0.211 HD
ENDBRANCH   1  26
TORSDOF 11
ENDMDL
MODEL 2
REMARK VINA RESULT:      -8.4      1.535      3.843
REMARK  Name = *****
REMARK                            x       y       z     vdW  Elec       q    Type
REMARK                         _______ _______ _______ _____ _____    ______ ____
ROOT
ATOM      1  C   LIG    1       25.226 -21.519   6.147  0.00  0.00    +0.190 C 
ENDROOT
BRANCH   1   2
ATOM      2  C   LIG    1       24.490 -22.413   7.206  0.00  0.00    +0.036 C 
ATOM      3  C   LIG    1       23.254 -23.178   6.673  0.00  0.00    +0.007 C 
ATOM      4  C   LIG    1       23.594 -24.393   5.813  0.00  0.00    +0.000 C 
ATOM      5  C   LIG    1       24.481 -25.371   6.570  0.00  0.00    +0.000 C 
ATOM      6  C   LIG    1       25.731 -24.700   7.130  0.00  0.00    +0.000 C 
ATOM      7  C   LIG    1       25.414 -23.431   7.925  0.00  0.00    +0.007 C 
ENDBRANCH   1   2
BRANCH   1   8
ATOM      8  C   LIG    1       24.274 -20.512   5.457  0.00  0.00    -0.005 A 
ATOM      9  C   LIG    1       23.038 -20.149   6.022  0.00  0.00    +0.007 A 
ATOM     10  C   LIG    1       22.192 -19.222   5.409  0.00  0.00    +0.000 A 
ATOM     11  C   LIG    1       22.540 -18.662   4.187  0.00  0.00    +0.000 A 
ATOM     12  C   LIG    1       23.741 -19.022   3.585  0.00  0.00    +0.000 A 
ATOM     13  C   LIG    1       24.604 -19.925   4.218  0.00  0.00    +0.007 A 
ENDBRANCH   1   8
BRANCH   1  14
ATOM     14  C   LIG    1       26.404 -20.751   6.856  0.00  0.00    +0.345 C 
ATOM     15  O   LIG    1       26.335 -20.110   7.898  0.00  0.00    -0.247 OA
BRANCH  14  16
ATOM     16  O   LIG    1       27.548 -20.877   6.115  0.00  0.00    -0.450 OA
BRANCH  16  17
ATOM     17  C   LIG    1       28.046 -19.631   5.619  0.00  0.00    +0.321 C 
BRANCH  17  19
ATOM     18  C   LIG    1       30.398 -19.136   6.788  0.00  0.00    -0.083 C 
ATOM     19  C   LIG    1       29.305 -19.346   6.304  0.00  0.00    -0.060 C 
BRANCH  18  20
ATOM     20  C   LIG    1       31.738 -18.919   7.357  0.00  0.00    +0.174 C 
BRANCH  20  21
ATOM     21  N   LIG    1       31.839 -19.274   8.785  0.00  0.00    -0.292 NA
BRANCH  21  23
ATOM     22  C   LIG    1       30.349 -17.741  10.140  0.00  0.00    +0.020 C 
ATOM     23  C   LIG    1       31.759 -18.107   9.680  0.00  0.00    +0.082 C 
ENDBRANCH  21  23
BRANCH  21  24
ATOM     24  C   LIG    1       30.843 -20.310   9.133  0.00  0.00    +0.082 C 
ATOM     25  C   LIG    1       31.386 -21.739   9.116  0.00  0.00    +0.020 C 
ENDBRANCH  21  24
ENDBRANCH  20  21
ENDBRANCH  18  20
ENDBRANCH  17  19
ENDBRANCH  16  17
ENDBRANCH  14  16
ENDBRANCH   1  14
BRANCH   1  26
ATOM     26  O   LIG    1       25.767 -22.356   5.110  0.00  0.00    -0.373 OA
ATOM     27  H   LIG    1       26.659 -22.619   5.407  0.00  0.00    +0.211 HD
ENDBRANCH   1  26
TORSDOF 11
ENDMDL
MODEL 3
REMARK VINA RESULT:      -8.3      1.036      3.323
REMARK  Name = *****
REMARK                            x       y       z     vdW  Elec       q    Type
REMARK                         _______ _______ _______ _____ _____    ______ ____
ROOT
ATOM      1  C   LIG    1       25.546 -21.576   6.718  0.00  0.00    +0.190 C 
ENDROOT
BRANCH   1   2
ATOM      2  C   LIG    1       24.777 -22.686   7.518  0.00  0.00    +0.036 C 
ATOM      3  C   LIG    1       23.486 -23.205   6.840  0.00  0.00    +0.007 C 
ATOM      4  C   LIG    1       23.732 -24.153   5.669  0.00  0.00    +0.000 C 
ATOM      5  C   LIG    1       24.571 -25.349   6.097  0.00  0.00    +0.000 C 
ATOM      6  C   LIG    1       25.871 -24.928   6.774  0.00  0.00    +0.000 C 
ATOM      7  C   LIG    1       25.649 -23.911   7.897  0.00  0.00    +0.007 C 
ENDBRANCH   1   2
BRANCH   1   8
ATOM      8  C   LIG    1       24.600 -20.699   5.862  0.00  0.00    -0.005 A 
ATOM      9  C   LIG    1       23.320 -20.327   6.311  0.00  0.00    +0.007 A 
ATOM     10  C   LIG    1       22.479 -19.516   5.546  0.00  0.00    +0.000 A 
ATOM     11  C   LIG    1       22.879 -19.087   4.288  0.00  0.00    +0.000 A 
ATOM     12  C   LIG    1       24.127 -19.460   3.800  0.00  0.00    +0.000 A 
ATOM     13  C   LIG    1       24.983 -20.246   4.583  0.00  0.00    +0.007 A 
ENDBRANCH   1   8
BRANCH   1  14
ATOM     14  C   LIG    1       26.346 -20.677   7.733  0.00  0.00    +0.345 C 
ATOM     15  O   LIG    1       25.997 -20.364   8.865  0.00  0.00    -0.247 OA
BRANCH  14  16
ATOM     16  O   LIG    1       27.514 -20.255   7.154  0.00  0.00    -0.450 OA
BRANCH  16  17
ATOM     17  C   LIG    1       28.651 -21.039   7.530  0.00  0.00    +0.321 C 
BRANCH  17  19
ATOM     18  C   LIG    1       30.685 -19.355   7.936  0.00  0.00    -0.083 C 
ATOM     19  C   LIG    1       29.755 -20.123   7.806  0.00  0.00    -0.060 C 
BRANCH  18  20
ATOM     20  C   LIG    1       31.836 -18.445   8.062  0.00  0.00    +0.174 C 
BRANCH  20  21
ATOM     21  N   LIG    1       31.542 -17.223   8.835  0.00  0.00    -0.292 NA
BRANCH  21  23
ATOM     22  C   LIG    1       30.346 -17.412  11.058  0.00  0.00    +0.020 C 
ATOM     23  C   LIG    1       30.249 -17.280   9.539  0.00  0.00    +0.082 C 
ENDBRANCH  21  23
BRANCH  21  24
ATOM     24  C   LIG    1       32.659 -16.907   9.750  0.00  0.00    +0.082 C 
ATOM     25  C   LIG    1       32.945 -15.413   9.904  0.00  0.00    +0.020 C 
ENDBRANCH  21  24
ENDBRANCH  20  21
ENDBRANCH  18  20
ENDBRANCH  17  19
ENDBRANCH  16  17
ENDBRANCH  14  16
ENDBRANCH   1  14
BRANCH   1  26
ATOM     26  O   LIG    1       26.471 -22.198   5.809  0.00  0.00    -0.373 OA
ATOM     27  H   LIG    1       27.186 -22.573   6.359  0.00  0.00    +0.211 HD
ENDBRANCH   1  26
TORSDOF 11
ENDMDL
MODEL 4
REMARK VINA RESULT:      -8.2      4.070      8.564
REMARK  Name = *****
REMARK                            x       y       z     vdW  Elec       q    Type
REMARK                         _______ _______ _______ _____ _____    ______ ____
ROOT
ATOM      1  C   LIG    1       23.896 -22.268   7.022  0.00  0.00    +0.190 C 
ENDROOT
BRANCH   1   2
ATOM      2  C   LIG    1       25.393 -22.559   7.395  0.00  0.00    +0.036 C 
ATOM      3  C   LIG    1       26.436 -22.016   6.388  0.00  0.00    +0.007 C 
ATOM      4  C   LIG    1       26.659 -20.508   6.471  0.00  0.00    +0.000 C 
ATOM      5  C   LIG    1       27.075 -20.091   7.875  0.00  0.00    +0.000 C 
ATOM      6  C   LIG    1       26.096 -20.583   8.936  0.00  0.00    +0.000 C 
ATOM      7  C   LIG    1       25.796 -22.079   8.813  0.00  0.00    +0.007 C 
ENDBRANCH   1   2
BRANCH   1   8
ATOM      8  C   LIG    1       23.762 -21.344   5.787  0.00  0.00    -0.005 A 
ATOM      9  C   LIG    1       24.332 -21.674   4.544  0.00  0.00    +0.007 A 
ATOM     10  C   LIG    1       24.188 -20.851   3.426  0.00  0.00    +0.000 A 
ATOM     11  C   LIG    1       23.503 -19.647   3.530  0.00  0.00    +0.000 A 
ATOM     12  C   LIG    1       22.951 -19.275   4.752  0.00  0.00    +0.000 A 
ATOM     13  C   LIG    1       23.067 -20.119   5.863  0.00  0.00    +0.007 A 
ENDBRANCH   1   8
BRANCH   1  14
ATOM     14  C   LIG    1       23.160 -23.635   6.758  0.00  0.00    +0.345 C 
ATOM     15  O   LIG    1       21.957 -23.796   6.588  0.00  0.00    -0.247 OA
BRANCH  14  16
ATOM     16  O   LIG    1       24.070 -24.658   6.770  0.00  0.00    -0.450 OA
BRANCH  16  17
ATOM     17  C   LIG    1       24.134 -25.377   5.534  0.00  0.00    +0.321 C 
BRANCH  17  19
ATOM     18  C   LIG    1       24.652 -27.933   6.116  0.00  0.00    -0.083 C 
ATOM     19  C   LIG    1       24.364 -26.785   5.846  0.00  0.00    -0.060 C 
BRANCH  18  20
ATOM     20  C   LIG    1       25.038 -29.321   6.418  0.00  0.00    +0.174 C 
BRANCH  20  21
ATOM     21  N   LIG    1       23.939 -30.131   6.976  0.00  0.00    -0.292 NA
BRANCH  21  23
ATOM     22  C   LIG    1       25.040 -31.858   5.489  0.00  0.00    +0.020 C 
ATOM     23  C   LIG    1       23.903 -31.505   6.445  0.00  0.00    +0.082 C 
ENDBRANCH  21  23
BRANCH  21  24
ATOM     24  C   LIG    1       23.979 -30.110   8.454  0.00  0.00    +0.082 C 
ATOM     25  C   LIG    1       25.386 -30.020   9.046  0.00  0.00    +0.020 C 
ENDBRANCH  21  24
ENDBRANCH  20  21
ENDBRANCH  18  20
ENDBRANCH  17  19
ENDBRANCH  16  17
ENDBRANCH  14  16
ENDBRANCH   1  14
BRANCH   1  26
ATOM     26  O   LIG    1       23.255 -21.592   8.119  0.00  0.00    -0.373 OA
ATOM     27  H   LIG    1       22.855 -22.288   8.674  0.00  0.00    +0.211 HD
ENDBRANCH   1  26
TORSDOF 11
ENDMDL
MODEL 5
REMARK VINA RESULT:      -8.1      1.496      2.650
REMARK  Name = *****
REMARK                            x       y       z     vdW  Elec       q    Type
REMARK                         _______ _______ _______ _____ _____    ______ ____
ROOT
ATOM      1  C   LIG    1       24.401 -21.928   5.939  0.00  0.00    +0.190 C 
ENDROOT
BRANCH   1   2
ATOM      2  C   LIG    1       23.519 -21.586   4.687  0.00  0.00    +0.036 C 
ATOM      3  C   LIG    1       22.217 -20.807   4.996  0.00  0.00    +0.007 C 
ATOM      4  C   LIG    1       22.432 -19.328   5.308  0.00  0.00    +0.000 C 
ATOM      5  C   LIG    1       23.160 -18.627   4.170  0.00  0.00    +0.000 C 
ATOM      6  C   LIG    1       24.462 -19.328   3.800  0.00  0.00    +0.000 C 
ATOM      7  C   LIG    1       24.279 -20.829   3.566  0.00  0.00    +0.007 C 
ENDBRANCH   1   2
BRANCH   1   8
ATOM      8  C   LIG    1       24.886 -23.398   5.939  0.00  0.00    -0.005 A 
ATOM      9  C   LIG    1       25.512 -23.976   7.059  0.00  0.00    +0.007 A 
ATOM     10  C   LIG    1       25.926 -25.310   7.064  0.00  0.00    +0.000 A 
ATOM     11  C   LIG    1       25.766 -26.094   5.929  0.00  0.00    +0.000 A 
ATOM     12  C   LIG    1       25.178 -25.546   4.794  0.00  0.00    +0.000 A 
ATOM     13  C   LIG    1       24.732 -24.218   4.802  0.00  0.00    +0.007 A 
ENDBRANCH   1   8
BRANCH   1  14
ATOM     14  C   LIG    1       25.636 -20.951   5.977  0.00  0.00    +0.345 C 
ATOM     15  O   LIG    1       26.545 -20.889   5.158  0.00  0.00    -0.247 OA
BRANCH  14  16
ATOM     16  O   LIG    1       25.571 -20.170   7.100  0.00  0.00    -0.450 OA
BRANCH  16  17
ATOM     17  C   LIG    1       26.483 -20.572   8.127  0.00  0.00    +0.321 C 
BRANCH  17  19
ATOM     18  C   LIG    1       28.930 -19.832   7.349  0.00  0.00    -0.083 C 
ATOM     19  C   LIG    1       27.819 -20.127   7.739  0.00  0.00    -0.060 C 
BRANCH  18  20
ATOM     20  C   LIG    1       30.288 -19.517   6.875  0.00  0.00    +0.174 C 
BRANCH  20  21
ATOM     21  N   LIG    1       31.331 -19.709   7.900  0.00  0.00    -0.292 NA
BRANCH  21  23
ATOM     22  C   LIG    1       31.143 -17.934   9.694  0.00  0.00    +0.020 C 
ATOM     23  C   LIG    1       31.853 -18.442   8.441  0.00  0.00    +0.082 C 
ENDBRANCH  21  23
BRANCH  21  24
ATOM     24  C   LIG    1       30.849 -20.612   8.967  0.00  0.00    +0.082 C 
ATOM     25  C   LIG    1       31.514 -21.988   8.978  0.00  0.00    +0.020 C 
ENDBRANCH  21  24
ENDBRANCH  20  21
ENDBRANCH  18  20
ENDBRANCH  17  19
ENDBRANCH  16  17
ENDBRANCH  14  16
ENDBRANCH   1  14
BRANCH   1  26
ATOM     26  O   LIG    1       23.622 -21.748   7.135  0.00  0.00    -0.373 OA
ATOM     27  H   LIG    1       23.247 -22.623   7.352  0.00  0.00    +0.211 HD
ENDBRANCH   1  26
TORSDOF 11
ENDMDL
MODEL 6
REMARK VINA RESULT:      -8.0      3.940      8.284
REMARK  Name = *****
REMARK                            x       y       z     vdW  Elec       q    Type
REMARK                         _______ _______ _______ _____ _____    ______ ____
ROOT
ATOM      1  C   LIG    1       24.020 -22.350   7.035  0.00  0.00    +0.190 C 
ENDROOT
BRANCH   1   2
ATOM      2  C   LIG    1       25.533 -22.553   7.397  0.00  0.00    +0.036 C 
ATOM      3  C   LIG    1       26.536 -21.978   6.367  0.00  0.00    +0.007 C 
ATOM      4  C   LIG    1       26.679 -20.458   6.414  0.00  0.00    +0.000 C 
ATOM      5  C   LIG    1       27.085 -19.988   7.804  0.00  0.00    +0.000 C 
ATOM      6  C   LIG    1       26.145 -20.507   8.886  0.00  0.00    +0.000 C 
ATOM      7  C   LIG    1       25.924 -22.019   8.800  0.00  0.00    +0.007 C 
ENDBRANCH   1   2
BRANCH   1   8
ATOM      8  C   LIG    1       23.822 -21.427   5.808  0.00  0.00    -0.005 A 
ATOM      9  C   LIG    1       23.155 -20.192   5.906  0.00  0.00    +0.007 A 
ATOM     10  C   LIG    1       22.999 -19.350   4.802  0.00  0.00    +0.000 A 
ATOM     11  C   LIG    1       23.471 -19.740   3.556  0.00  0.00    +0.000 A 
ATOM     12  C   LIG    1       24.109 -20.968   3.417  0.00  0.00    +0.000 A 
ATOM     13  C   LIG    1       24.295 -21.795   4.532  0.00  0.00    +0.007 A 
ENDBRANCH   1   8
BRANCH   1  14
ATOM     14  C   LIG    1       23.367 -23.757   6.763  0.00  0.00    +0.345 C 
ATOM     15  O   LIG    1       22.169 -24.009   6.711  0.00  0.00    -0.247 OA
BRANCH  14  16
ATOM     16  O   LIG    1       24.349 -24.699   6.612  0.00  0.00    -0.450 OA
BRANCH  16  17
ATOM     17  C   LIG    1       24.123 -25.585   5.511  0.00  0.00    +0.321 C 
BRANCH  17  19
ATOM     18  C   LIG    1       24.283 -28.122   6.334  0.00  0.00    -0.083 C 
ATOM     19  C   LIG    1       24.235 -26.955   6.006  0.00  0.00    -0.060 C 
BRANCH  18  20
ATOM     20  C   LIG    1       24.299 -29.544   6.717  0.00  0.00    +0.174 C 
BRANCH  20  21
ATOM     21  N   LIG    1       25.634 -30.035   7.109  0.00  0.00    -0.292 NA
BRANCH  21  23
ATOM     22  C   LIG    1       26.336 -28.875   9.246  0.00  0.00    +0.020 C 
ATOM     23  C   LIG    1       25.808 -30.137   8.568  0.00  0.00    +0.082 C 
ENDBRANCH  21  23
BRANCH  21  24
ATOM     24  C   LIG    1       25.940 -31.309   6.423  0.00  0.00    +0.082 C 
ATOM     25  C   LIG    1       25.425 -31.391   4.986  0.00  0.00    +0.020 C 
ENDBRANCH  21  24
ENDBRANCH  20  21
ENDBRANCH  18  20
ENDBRANCH  17  19
ENDBRANCH  16  17
ENDBRANCH  14  16
ENDBRANCH   1  14
BRANCH   1  26
ATOM     26  O   LIG    1       23.345 -21.723   8.140  0.00  0.00    -0.373 OA
ATOM     27  H   LIG    1       24.043 -21.359   8.716  0.00  0.00    +0.211 HD
ENDBRANCH   1  26
TORSDOF 11
ENDMDL
MODEL 7
REMARK VINA RESULT:      -7.7      3.853      8.205
REMARK  Name = *****
REMARK                            x       y       z     vdW  Elec       q    Type
REMARK                         _______ _______ _______ _____ _____    ______ ____
ROOT
ATOM      1  C   LIG    1       25.528 -21.563   6.342  0.00  0.00    +0.190 C 
ENDROOT
BRANCH   1   2
ATOM      2  C   LIG    1       24.256 -20.747   6.765  0.00  0.00    +0.036 C 
ATOM      3  C   LIG    1       23.770 -19.706   5.728  0.00  0.00    +0.007 C 
ATOM      4  C   LIG    1       23.043 -20.309   4.529  0.00  0.00    +0.000 C 
ATOM      5  C   LIG    1       21.851 -21.145   4.974  0.00  0.00    +0.000 C 
ATOM      6  C   LIG    1       22.240 -22.204   5.999  0.00  0.00    +0.000 C 
ATOM      7  C   LIG    1       23.045 -21.629   7.166  0.00  0.00    +0.007 C 
ENDBRANCH   1   2
BRANCH   1   8
ATOM      8  C   LIG    1       26.834 -20.744   6.489  0.00  0.00    -0.005 A 
ATOM      9  C   LIG    1       27.396 -20.038   5.410  0.00  0.00    +0.007 A 
ATOM     10  C   LIG    1       28.561 -19.280   5.553  0.00  0.00    +0.000 A 
ATOM     11  C   LIG    1       29.222 -19.242   6.773  0.00  0.00    +0.000 A 
ATOM     12  C   LIG    1       28.710 -19.952   7.854  0.00  0.00    +0.000 A 
ATOM     13  C   LIG    1       27.524 -20.683   7.718  0.00  0.00    +0.007 A 
ENDBRANCH   1   8
BRANCH   1  14
ATOM     14  C   LIG    1       25.610 -22.872   7.213  0.00  0.00    +0.345 C 
ATOM     15  O   LIG    1       25.784 -22.934   8.424  0.00  0.00    -0.247 OA
BRANCH  14  16
ATOM     16  O   LIG    1       25.481 -23.971   6.406  0.00  0.00    -0.450 OA
BRANCH  16  17
ATOM     17  C   LIG    1       24.245 -24.669   6.589  0.00  0.00    +0.321 C 
BRANCH  17  19
ATOM     18  C   LIG    1       24.492 -27.186   5.725  0.00  0.00    -0.083 C 
ATOM     19  C   LIG    1       24.419 -26.028   6.082  0.00  0.00    -0.060 C 
BRANCH  18  20
ATOM     20  C   LIG    1       24.580 -28.603   5.336  0.00  0.00    +0.174 C 
BRANCH  20  21
ATOM     21  N   LIG    1       24.032 -29.528   6.345  0.00  0.00    -0.292 NA
BRANCH  21  23
ATOM     22  C   LIG    1       25.535 -31.389   5.516  0.00  0.00    +0.020 C 
ATOM     23  C   LIG    1       24.141 -30.945   5.953  0.00  0.00    +0.082 C 
ENDBRANCH  21  23
BRANCH  21  24
ATOM     24  C   LIG    1       24.640 -29.271   7.668  0.00  0.00    +0.082 C 
ATOM     25  C   LIG    1       24.014 -30.064   8.815  0.00  0.00    +0.020 C 
ENDBRANCH  21  24
ENDBRANCH  20  21
ENDBRANCH  18  20
ENDBRANCH  17  19
ENDBRANCH  16  17
ENDBRANCH  14  16
ENDBRANCH   1  14
BRANCH   1  26
ATOM     26  O   LIG    1       25.421 -21.927   4.954  0.00  0.00    -0.373 OA
ATOM     27  H   LIG    1       24.967 -21.185   4.510  0.00  0.00    +0.211 HD
ENDBRANCH   1  26
TORSDOF 11
ENDMDL
MODEL 8
REMARK VINA RESULT:      -7.6      4.184      8.333
REMARK  Name = *****
REMARK                            x       y       z     vdW  Elec       q    Type
REMARK                         _______ _______ _______ _____ _____    ______ ____
ROOT
ATOM      1  C   LIG    1       24.297 -22.469   5.797  0.00  0.00    +0.190 C 
ENDROOT
BRANCH   1   2
ATOM      2  C   LIG    1       22.987 -21.833   6.381  0.00  0.00    +0.036 C 
ATOM      3  C   LIG    1       23.094 -20.333   6.747  0.00  0.00    +0.007 C 
ATOM      4  C   LIG    1       23.071 -19.392   5.545  0.00  0.00    +0.000 C 
ATOM      5  C   LIG    1       21.817 -19.600   4.708  0.00  0.00    +0.000 C 
ATOM      6  C   LIG    1       21.633 -21.057   4.297  0.00  0.00    +0.000 C 
ATOM      7  C   LIG    1       21.738 -22.022   5.481  0.00  0.00    +0.007 C 
ENDBRANCH   1   2
BRANCH   1   8
ATOM      8  C   LIG    1       25.579 -21.856   6.412  0.00  0.00    -0.005 A 
ATOM      9  C   LIG    1       26.048 -22.231   7.684  0.00  0.00    +0.007 A 
ATOM     10  C   LIG    1       27.218 -21.694   8.226  0.00  0.00    +0.000 A 
ATOM     11  C   LIG    1       27.932 -20.730   7.526  0.00  0.00    +0.000 A 
ATOM     12  C   LIG    1       27.480 -20.314   6.278  0.00  0.00    +0.000 A 
ATOM     13  C   LIG    1       26.326 -20.879   5.722  0.00  0.00    +0.007 A 
ENDBRANCH   1   8
BRANCH   1  14
ATOM     14  C   LIG    1       24.267 -24.023   6.049  0.00  0.00    +0.345 C 
ATOM     15  O   LIG    1       23.490 -24.631   6.775  0.00  0.00    -0.247 OA
BRANCH  14  16
ATOM     16  O   LIG    1       25.275 -24.624   5.342  0.00  0.00    -0.450 OA
BRANCH  16  17
ATOM     17  C   LIG    1       26.065 -25.522   6.129  0.00  0.00    +0.321 C 
BRANCH  17  19
ATOM     18  C   LIG    1       25.347 -28.040   5.595  0.00  0.00    -0.083 C 
ATOM     19  C   LIG    1       25.670 -26.885   5.784  0.00  0.00    -0.060 C 
BRANCH  18  20
ATOM     20  C   LIG    1       24.985 -29.453   5.395  0.00  0.00    +0.174 C 
BRANCH  20  21
ATOM     21  N   LIG    1       24.046 -29.971   6.407  0.00  0.00    -0.292 NA
BRANCH  21  23
ATOM     22  C   LIG    1       25.023 -32.208   5.735  0.00  0.00    +0.020 C 
ATOM     23  C   LIG    1       23.848 -31.429   6.322  0.00  0.00    +0.082 C 
ENDBRANCH  21  23
BRANCH  21  24
ATOM     24  C   LIG    1       24.458 -29.547   7.763  0.00  0.00    +0.082 C 
ATOM     25  C   LIG    1       23.829 -30.357   8.896  0.00  0.00    +0.020 C 
ENDBRANCH  21  24
ENDBRANCH  20  21
ENDBRANCH  18  20
ENDBRANCH  17  19
ENDBRANCH  16  17
ENDBRANCH  14  16
ENDBRANCH   1  14
BRANCH   1  26
ATOM     26  O   LIG    1       24.357 -22.222   4.381  0.00  0.00    -0.373 OA
ATOM     27  H   LIG    1       24.546 -21.271   4.276  0.00  0.00    +0.211 HD
ENDBRANCH   1  26
TORSDOF 11
ENDMDL
MODEL 9
REMARK VINA RESULT:      -7.5      1.541      4.080
REMARK  Name = *****
REMARK                            x       y       z     vdW  Elec       q    Type
REMARK                         _______ _______ _______ _____ _____    ______ ____
ROOT
ATOM      1  C   LIG    1       24.734 -22.257   6.089  0.00  0.00    +0.190 C 
ENDROOT
BRANCH   1   2
ATOM      2  C   LIG    1       23.826 -23.433   5.582  0.00  0.00    +0.036 C 
ATOM      3  C   LIG    1       24.403 -24.242   4.395  0.00  0.00    +0.007 C 
ATOM      4  C   LIG    1       25.521 -25.208   4.782  0.00  0.00    +0.000 C 
ATOM      5  C   LIG    1       25.057 -26.183   5.855  0.00  0.00    +0.000 C 
ATOM      6  C   LIG    1       24.474 -25.468   7.069  0.00  0.00    +0.000 C 
ATOM      7  C   LIG    1       23.411 -24.434   6.692  0.00  0.00    +0.007 C 
ENDBRANCH   1   2
BRANCH   1   8
ATOM      8  C   LIG    1       24.622 -20.996   5.198  0.00  0.00    -0.005 A 
ATOM      9  C   LIG    1       25.759 -20.319   4.719  0.00  0.00    +0.007 A 
ATOM     10  C   LIG    1       25.655 -19.196   3.896  0.00  0.00    +0.000 A 
ATOM     11  C   LIG    1       24.405 -18.689   3.562  0.00  0.00    +0.000 A 
ATOM     12  C   LIG    1       23.260 -19.316   4.043  0.00  0.00    +0.000 A 
ATOM     13  C   LIG    1       23.367 -20.462   4.840  0.00  0.00    +0.007 A 
ENDBRANCH   1   8
BRANCH   1  14
ATOM     14  C   LIG    1       24.338 -21.908   7.573  0.00  0.00    +0.345 C 
ATOM     15  O   LIG    1       23.216 -21.639   7.986  0.00  0.00    -0.247 OA
BRANCH  14  16
ATOM     16  O   LIG    1       25.456 -21.921   8.363  0.00  0.00    -0.450 OA
BRANCH  16  17
ATOM     17  C   LIG    1       25.912 -20.614   8.726  0.00  0.00    +0.321 C 
BRANCH  17  19
ATOM     18  C   LIG    1       28.307 -20.305   7.581  0.00  0.00    -0.083 C 
ATOM     19  C   LIG    1       27.240 -20.425   8.147  0.00  0.00    -0.060 C 
BRANCH  18  20
ATOM     20  C   LIG    1       29.595 -20.199   6.876  0.00  0.00    +0.174 C 
BRANCH  20  21
ATOM     21  N   LIG    1       30.701 -19.733   7.732  0.00  0.00    -0.292 NA
BRANCH  21  23
ATOM     22  C   LIG    1       30.334 -17.813   9.340  0.00  0.00    +0.020 C 
ATOM     23  C   LIG    1       30.705 -18.274   7.932  0.00  0.00    +0.082 C 
ENDBRANCH  21  23
BRANCH  21  24
ATOM     24  C   LIG    1       30.708 -20.469   9.015  0.00  0.00    +0.082 C 
ATOM     25  C   LIG    1       31.344 -21.857   8.943  0.00  0.00    +0.020 C 
ENDBRANCH  21  24
ENDBRANCH  20  21
ENDBRANCH  18  20
ENDBRANCH  17  19
ENDBRANCH  16  17
ENDBRANCH  14  16
ENDBRANCH   1  14
BRANCH   1  26
ATOM     26  O   LIG    1       26.112 -22.669   6.054  0.00  0.00    -0.373 OA
ATOM     27  H   LIG    1       26.618 -21.971   6.509  0.00  0.00    +0.211 HD
ENDBRANCH   1  26
TORSDOF 11
ENDMDL
