MODEL 1
REMARK VINA RESULT:      -5.3      0.000      0.000
REMARK  Name = *****
REMARK                            x       y       z     vdW  Elec       q    Type
REMARK                         _______ _______ _______ _____ _____    ______ ____
ROOT
ATOM      1  C   LIG    1       25.805 -19.294   3.991  0.00  0.00    +0.095 C 
ENDROOT
BRANCH   1   2
ATOM      2  C   LIG    1       24.299 -19.460   4.282  0.00  0.00    -0.016 A 
ATOM      3  C   LIG    1       23.765 -20.664   4.790  0.00  0.00    +0.006 A 
ATOM      4  C   LIG    1       22.395 -20.802   5.041  0.00  0.00    +0.000 A 
ATOM      5  C   LIG    1       21.528 -19.746   4.816  0.00  0.00    +0.000 A 
ATOM      6  C   LIG    1       22.026 -18.542   4.317  0.00  0.00    +0.000 A 
ATOM      7  C   LIG    1       23.394 -18.410   4.048  0.00  0.00    +0.006 A 
ENDBRANCH   1   2
BRANCH   1   8
ATOM      8  C   LIG    1       26.641 -19.305   5.319  0.00  0.00    +0.025 C 
ATOM      9  C   LIG    1       26.418 -20.538   6.212  0.00  0.00    +0.006 C 
ATOM     10  C   LIG    1       27.679 -20.617   7.062  0.00  0.00    +0.000 C 
ATOM     11  C   LIG    1       28.780 -20.310   6.065  0.00  0.00    +0.000 C 
ATOM     12  C   LIG    1       28.180 -19.271   5.121  0.00  0.00    +0.006 C 
ENDBRANCH   1   8
BRANCH   1  13
ATOM     13  O   LIG    1       26.300 -20.373   3.187  0.00  0.00    -0.384 OA
ATOM     14  H   LIG    1       27.236 -20.206   3.000  0.00  0.00    +0.211 HD
ENDBRANCH   1  13
BRANCH   1  15
ATOM     15  C   LIG    1       26.077 -17.963   3.225  0.00  0.00    +0.055 C 
BRANCH  15  16
ATOM     16  C   LIG    1       26.788 -16.847   4.021  0.00  0.00    +0.087 C 
BRANCH  16  17
ATOM     17  N   LIG    1       26.885 -15.587   3.253  0.00  0.00    -0.302 NA
ATOM     18  C   LIG    1       25.566 -15.061   2.861  0.00  0.00    +0.084 C 
ATOM     19  C   LIG    1       24.773 -14.428   4.007  0.00  0.00    +0.015 C 
ATOM     20  C   LIG    1       25.589 -13.380   4.758  0.00  0.00    +0.002 C 
ATOM     21  C   LIG    1       26.980 -13.894   5.113  0.00  0.00    +0.015 C 
ATOM     22  C   LIG    1       27.668 -14.527   3.903  0.00  0.00    +0.084 C 
ENDBRANCH  16  17
ENDBRANCH  15  16
ENDBRANCH   1  15
TORSDOF 6
ENDMDL
MODEL 2
REMARK VINA RESULT:      -4.7      1.014      1.909
REMARK  Name = *****
REMARK                            x       y       z     vdW  Elec       q    Type
REMARK                         _______ _______ _______ _____ _____    ______ ____
ROOT
ATOM      1  C   LIG    1       25.772 -18.687   3.724  0.00  0.00    +0.095 C 
ENDROOT
BRANCH   1   2
ATOM      2  C   LIG    1       24.293 -18.996   4.038  0.00  0.00    -0.016 A 
ATOM      3  C   LIG    1       23.327 -17.974   4.158  0.00  0.00    +0.006 A 
ATOM      4  C   LIG    1       21.991 -18.269   4.451  0.00  0.00    +0.000 A 
ATOM      5  C   LIG    1       21.578 -19.582   4.610  0.00  0.00    +0.000 A 
ATOM      6  C   LIG    1       22.509 -20.614   4.493  0.00  0.00    +0.000 A 
ATOM      7  C   LIG    1       23.850 -20.318   4.218  0.00  0.00    +0.006 A 
ENDBRANCH   1   2
BRANCH   1   8
ATOM      8  C   LIG    1       26.728 -19.674   4.484  0.00  0.00    +0.025 C 
ATOM      9  C   LIG    1       27.997 -19.025   5.062  0.00  0.00    +0.006 C 
ATOM     10  C   LIG    1       28.421 -19.967   6.181  0.00  0.00    +0.000 C 
ATOM     11  C   LIG    1       27.105 -20.318   6.847  0.00  0.00    +0.000 C 
ATOM     12  C   LIG    1       26.091 -20.387   5.706  0.00  0.00    +0.006 C 
ENDBRANCH   1   8
BRANCH   1  13
ATOM     13  O   LIG    1       26.049 -18.845   2.326  0.00  0.00    -0.384 OA
ATOM     14  H   LIG    1       25.546 -18.174   1.841  0.00  0.00    +0.211 HD
ENDBRANCH   1  13
BRANCH   1  15
ATOM     15  C   LIG    1       26.128 -17.221   4.119  0.00  0.00    +0.055 C 
BRANCH  15  16
ATOM     16  C   LIG    1       25.999 -16.160   3.005  0.00  0.00    +0.087 C 
BRANCH  16  17
ATOM     17  N   LIG    1       26.369 -14.808   3.475  0.00  0.00    -0.302 NA
ATOM     18  C   LIG    1       26.372 -13.813   2.389  0.00  0.00    +0.084 C 
ATOM     19  C   LIG    1       24.978 -13.387   1.921  0.00  0.00    +0.015 C 
ATOM     20  C   LIG    1       24.095 -12.940   3.083  0.00  0.00    +0.002 C 
ATOM     21  C   LIG    1       24.136 -13.934   4.238  0.00  0.00    +0.015 C 
ATOM     22  C   LIG    1       25.573 -14.308   4.604  0.00  0.00    +0.084 C 
ENDBRANCH  16  17
ENDBRANCH  15  16
ENDBRANCH   1  15
TORSDOF 6
ENDMDL
MODEL 3
REMARK VINA RESULT:      -2.4      2.264      6.359
REMARK  Name = *****
REMARK                            x       y       z     vdW  Elec       q    Type
REMARK                         _______ _______ _______ _____ _____    ______ ____
ROOT
ATOM      1  C   LIG    1       25.906 -14.786   4.194  0.00  0.00    +0.095 C 
ENDROOT
BRANCH   1   2
ATOM      2  C   LIG    1       25.064 -13.610   3.657  0.00  0.00    -0.016 A 
ATOM      3  C   LIG    1       25.021 -13.289   2.283  0.00  0.00    +0.006 A 
ATOM      4  C   LIG    1       24.258 -12.213   1.812  0.00  0.00    +0.000 A 
ATOM      5  C   LIG    1       23.506 -11.447   2.687  0.00  0.00    +0.000 A 
ATOM      6  C   LIG    1       23.526 -11.742   4.051  0.00  0.00    +0.000 A 
ATOM      7  C   LIG    1       24.303 -12.806   4.524  0.00  0.00    +0.006 A 
ENDBRANCH   1   2
BRANCH   1   8
ATOM      8  C   LIG    1       27.422 -14.392   4.301  0.00  0.00    +0.025 C 
ATOM      9  C   LIG    1       28.003 -13.715   3.048  0.00  0.00    +0.006 C 
ATOM     10  C   LIG    1       29.206 -12.939   3.568  0.00  0.00    +0.000 C 
ATOM     11  C   LIG    1       28.691 -12.339   4.861  0.00  0.00    +0.000 C 
ATOM     12  C   LIG    1       27.759 -13.399   5.444  0.00  0.00    +0.006 C 
ENDBRANCH   1   8
BRANCH   1  13
ATOM     13  O   LIG    1       25.488 -15.163   5.512  0.00  0.00    -0.384 OA
ATOM     14  H   LIG    1       26.193 -15.695   5.912  0.00  0.00    +0.211 HD
ENDBRANCH   1  13
BRANCH   1  15
ATOM     15  C   LIG    1       25.764 -16.035   3.271  0.00  0.00    +0.055 C 
BRANCH  15  16
ATOM     16  C   LIG    1       25.797 -17.412   3.971  0.00  0.00    +0.087 C 
BRANCH  16  17
ATOM     17  N   LIG    1       25.023 -18.432   3.233  0.00  0.00    -0.302 NA
ATOM     18  C   LIG    1       25.410 -19.806   3.594  0.00  0.00    +0.084 C 
ATOM     19  C   LIG    1       24.909 -20.262   4.968  0.00  0.00    +0.015 C 
ATOM     20  C   LIG    1       23.407 -20.047   5.129  0.00  0.00    +0.002 C 
ATOM     21  C   LIG    1       22.987 -18.647   4.696  0.00  0.00    +0.015 C 
ATOM     22  C   LIG    1       23.563 -18.287   3.327  0.00  0.00    +0.084 C 
ENDBRANCH  16  17
ENDBRANCH  15  16
ENDBRANCH   1  15
TORSDOF 6
ENDMDL
