MODEL 1
REMARK VINA RESULT:      -4.1      0.000      0.000
REMARK  Name = *****
REMARK                            x       y       z     vdW  Elec       q    Type
REMARK                         _______ _______ _______ _____ _____    ______ ____
ROOT
ATOM      1  F   LIG    1       23.528 -14.597   4.921  0.00  0.00    -0.072 F 
ATOM      2  S   LIG    1       24.708 -13.716   3.984  0.00  0.00    +0.433 S 
ATOM      3  F   LIG    1       23.573 -13.605   2.660  0.00  0.00    -0.072 F 
ATOM      4  F   LIG    1       25.316 -15.219   3.335  0.00  0.00    -0.072 F 
ATOM      5  F   LIG    1       25.888 -12.833   3.046  0.00  0.00    -0.072 F 
ATOM      6  F   LIG    1       25.842 -13.827   5.307  0.00  0.00    -0.072 F 
ATOM      7  F   LIG    1       24.098 -12.212   4.631  0.00  0.00    -0.072 F 
ENDROOT
TORSDOF 0
ENDMDL
MODEL 2
REMARK VINA RESULT:      -4.1      0.006      2.288
REMARK  Name = *****
REMARK                            x       y       z     vdW  Elec       q    Type
REMARK                         _______ _______ _______ _____ _____    ______ ____
ROOT
ATOM      1  F   LIG    1       23.573 -13.603   2.660  0.00  0.00    -0.072 F 
ATOM      2  S   LIG    1       24.708 -13.711   3.983  0.00  0.00    +0.433 S 
ATOM      3  F   LIG    1       25.315 -15.218   3.339  0.00  0.00    -0.072 F 
ATOM      4  F   LIG    1       23.528 -14.590   4.924  0.00  0.00    -0.072 F 
ATOM      5  F   LIG    1       25.843 -13.819   5.306  0.00  0.00    -0.072 F 
ATOM      6  F   LIG    1       24.101 -12.205   4.627  0.00  0.00    -0.072 F 
ATOM      7  F   LIG    1       25.889 -12.833   3.041  0.00  0.00    -0.072 F 
ENDROOT
TORSDOF 0
ENDMDL
MODEL 3
REMARK VINA RESULT:      -4.1      0.006      2.641
REMARK  Name = *****
REMARK                            x       y       z     vdW  Elec       q    Type
REMARK                         _______ _______ _______ _____ _____    ______ ____
ROOT
ATOM      1  F   LIG    1       23.525 -14.599   4.926  0.00  0.00    -0.072 F 
ATOM      2  S   LIG    1       24.704 -13.717   3.987  0.00  0.00    +0.433 S 
ATOM      3  F   LIG    1       25.840 -13.826   5.310  0.00  0.00    -0.072 F 
ATOM      4  F   LIG    1       24.095 -12.213   4.634  0.00  0.00    -0.072 F 
ATOM      5  F   LIG    1       25.883 -12.835   3.047  0.00  0.00    -0.072 F 
ATOM      6  F   LIG    1       23.568 -13.608   2.665  0.00  0.00    -0.072 F 
ATOM      7  F   LIG    1       25.314 -15.221   3.340  0.00  0.00    -0.072 F 
ENDROOT
TORSDOF 0
ENDMDL
MODEL 4
REMARK VINA RESULT:      -4.1      0.006      1.866
REMARK  Name = *****
REMARK                            x       y       z     vdW  Elec       q    Type
REMARK                         _______ _______ _______ _____ _____    ______ ____
ROOT
ATOM      1  F   LIG    1       23.573 -13.604   2.660  0.00  0.00    -0.072 F 
ATOM      2  S   LIG    1       24.708 -13.711   3.982  0.00  0.00    +0.433 S 
ATOM      3  F   LIG    1       25.889 -12.833   3.041  0.00  0.00    -0.072 F 
ATOM      4  F   LIG    1       25.315 -15.217   3.339  0.00  0.00    -0.072 F 
ATOM      5  F   LIG    1       25.843 -13.819   5.306  0.00  0.00    -0.072 F 
ATOM      6  F   LIG    1       23.528 -14.590   4.924  0.00  0.00    -0.072 F 
ATOM      7  F   LIG    1       24.101 -12.205   4.626  0.00  0.00    -0.072 F 
ENDROOT
TORSDOF 0
ENDMDL
MODEL 5
REMARK VINA RESULT:      -4.1      0.008      2.285
REMARK  Name = *****
REMARK                            x       y       z     vdW  Elec       q    Type
REMARK                         _______ _______ _______ _____ _____    ______ ____
ROOT
ATOM      1  F   LIG    1       23.575 -13.602   2.660  0.00  0.00    -0.072 F 
ATOM      2  S   LIG    1       24.710 -13.711   3.982  0.00  0.00    +0.433 S 
ATOM      3  F   LIG    1       24.105 -12.203   4.626  0.00  0.00    -0.072 F 
ATOM      4  F   LIG    1       25.891 -12.834   3.041  0.00  0.00    -0.072 F 
ATOM      5  F   LIG    1       25.846 -13.820   5.305  0.00  0.00    -0.072 F 
ATOM      6  F   LIG    1       25.315 -15.218   3.338  0.00  0.00    -0.072 F 
ATOM      7  F   LIG    1       23.528 -14.587   4.925  0.00  0.00    -0.072 F 
ENDROOT
TORSDOF 0
ENDMDL
MODEL 6
REMARK VINA RESULT:      -4.1      0.012      2.290
REMARK  Name = *****
REMARK                            x       y       z     vdW  Elec       q    Type
REMARK                         _______ _______ _______ _____ _____    ______ ____
ROOT
ATOM      1  F   LIG    1       25.851 -13.820   5.303  0.00  0.00    -0.072 F 
ATOM      2  S   LIG    1       24.714 -13.711   3.983  0.00  0.00    +0.433 S 
ATOM      3  F   LIG    1       24.112 -12.202   4.625  0.00  0.00    -0.072 F 
ATOM      4  F   LIG    1       23.532 -14.583   4.928  0.00  0.00    -0.072 F 
ATOM      5  F   LIG    1       23.576 -13.602   2.661  0.00  0.00    -0.072 F 
ATOM      6  F   LIG    1       25.315 -15.220   3.341  0.00  0.00    -0.072 F 
ATOM      7  F   LIG    1       25.896 -12.837   3.037  0.00  0.00    -0.072 F 
ENDROOT
TORSDOF 0
ENDMDL
MODEL 7
REMARK VINA RESULT:      -4.0      0.026      1.876
REMARK  Name = *****
REMARK                            x       y       z     vdW  Elec       q    Type
REMARK                         _______ _______ _______ _____ _____    ______ ____
ROOT
ATOM      1  F   LIG    1       25.335 -15.189   3.325  0.00  0.00    -0.072 F 
ATOM      2  S   LIG    1       24.714 -13.694   3.980  0.00  0.00    +0.433 S 
ATOM      3  F   LIG    1       23.579 -13.586   2.657  0.00  0.00    -0.072 F 
ATOM      4  F   LIG    1       25.887 -12.798   3.046  0.00  0.00    -0.072 F 
ATOM      5  F   LIG    1       24.093 -12.199   4.636  0.00  0.00    -0.072 F 
ATOM      6  F   LIG    1       25.850 -13.802   5.303  0.00  0.00    -0.072 F 
ATOM      7  F   LIG    1       23.541 -14.591   4.914  0.00  0.00    -0.072 F 
ENDROOT
TORSDOF 0
ENDMDL
MODEL 8
REMARK VINA RESULT:      -4.0      0.028      2.291
REMARK  Name = *****
REMARK                            x       y       z     vdW  Elec       q    Type
REMARK                         _______ _______ _______ _____ _____    ______ ____
ROOT
ATOM      1  F   LIG    1       25.344 -15.190   3.323  0.00  0.00    -0.072 F 
ATOM      2  S   LIG    1       24.720 -13.696   3.977  0.00  0.00    +0.433 S 
ATOM      3  F   LIG    1       23.549 -14.594   4.912  0.00  0.00    -0.072 F 
ATOM      4  F   LIG    1       23.584 -13.592   2.654  0.00  0.00    -0.072 F 
ATOM      5  F   LIG    1       24.096 -12.201   4.631  0.00  0.00    -0.072 F 
ATOM      6  F   LIG    1       25.891 -12.798   3.041  0.00  0.00    -0.072 F 
ATOM      7  F   LIG    1       25.857 -13.800   5.300  0.00  0.00    -0.072 F 
ENDROOT
TORSDOF 0
ENDMDL
MODEL 9
REMARK VINA RESULT:      -4.0      6.110      7.345
REMARK  Name = *****
REMARK                            x       y       z     vdW  Elec       q    Type
REMARK                         _______ _______ _______ _____ _____    ______ ____
ROOT
ATOM      1  F   LIG    1       23.095 -19.199   3.703  0.00  0.00    -0.072 F 
ATOM      2  S   LIG    1       23.107 -20.362   5.006  0.00  0.00    +0.433 S 
ATOM      3  F   LIG    1       23.759 -21.568   3.923  0.00  0.00    -0.072 F 
ATOM      4  F   LIG    1       21.487 -20.855   4.579  0.00  0.00    -0.072 F 
ATOM      5  F   LIG    1       23.118 -21.525   6.309  0.00  0.00    -0.072 F 
ATOM      6  F   LIG    1       22.454 -19.156   6.088  0.00  0.00    -0.072 F 
ATOM      7  F   LIG    1       24.728 -19.868   5.432  0.00  0.00    -0.072 F 
ENDROOT
TORSDOF 0
ENDMDL
