MODEL 1
REMARK VINA RESULT:     -10.0      0.000      0.000
REMARK  Name = *****
REMARK                            x       y       z     vdW  Elec       q    Type
REMARK                         _______ _______ _______ _____ _____    ______ ____
ROOT
ATOM      1  C   LIG    1       26.101 -20.803   6.742  0.00  0.00    +0.086 C 
ATOM      2  C   LIG    1       26.338 -20.788   8.211  0.00  0.00    +0.345 C 
ATOM      3  O   LIG    1       25.496 -21.156   9.028  0.00  0.00    -0.245 OA
ATOM      4  O   LIG    1       27.558 -20.322   8.667  0.00  0.00    -0.422 OA
ATOM      5  C   LIG    1       28.512 -19.750   7.807  0.00  0.00    +0.143 A 
ATOM      6  C   LIG    1       28.286 -19.692   6.436  0.00  0.00    +0.059 A 
ATOM      7  C   LIG    1       29.272 -19.071   5.652  0.00  0.00    +0.015 A 
ATOM      8  C   LIG    1       30.439 -18.554   6.238  0.00  0.00    +0.001 A 
ATOM      9  C   LIG    1       30.632 -18.632   7.615  0.00  0.00    +0.004 A 
ATOM     10  C   LIG    1       29.660 -19.231   8.409  0.00  0.00    +0.047 A 
ATOM     11  C   LIG    1       27.032 -20.269   5.925  0.00  0.00    +0.138 C 
ENDROOT
BRANCH  11  12
ATOM     12  O   LIG    1       26.833 -20.250   4.557  0.00  0.00    -0.505 OA
ATOM     13  H   LIG    1       27.043 -21.129   4.201  0.00  0.00    +0.292 HD
ENDBRANCH  11  12
BRANCH   1  14
ATOM     14  C   LIG    1       24.786 -21.408   6.227  0.00  0.00    +0.059 C 
BRANCH  14  15
ATOM     15  C   LIG    1       24.733 -22.943   6.354  0.00  0.00    -0.040 A 
ATOM     16  C   LIG    1       23.500 -23.623   6.395  0.00  0.00    +0.004 A 
ATOM     17  C   LIG    1       23.450 -25.022   6.472  0.00  0.00    +0.000 A 
ATOM     18  C   LIG    1       24.626 -25.767   6.531  0.00  0.00    +0.000 A 
ATOM     19  C   LIG    1       25.852 -25.112   6.524  0.00  0.00    +0.000 A 
ATOM     20  C   LIG    1       25.902 -23.719   6.433  0.00  0.00    +0.004 A 
ENDBRANCH  14  15
BRANCH  14  22
ATOM     21  C   LIG    1       22.674 -19.956   5.795  0.00  0.00    +0.005 C 
ATOM     22  C   LIG    1       23.510 -20.733   6.805  0.00  0.00    +0.010 C 
ENDBRANCH  14  22
ENDBRANCH   1  14
TORSDOF 4
ENDMDL
MODEL 2
REMARK VINA RESULT:      -8.9      1.045      3.259
REMARK  Name = *****
REMARK                            x       y       z     vdW  Elec       q    Type
REMARK                         _______ _______ _______ _____ _____    ______ ____
ROOT
ATOM      1  C   LIG    1       26.143 -20.915   6.821  0.00  0.00    +0.086 C 
ATOM      2  C   LIG    1       26.365 -20.897   8.292  0.00  0.00    +0.345 C 
ATOM      3  O   LIG    1       25.523 -21.284   9.100  0.00  0.00    -0.245 OA
ATOM      4  O   LIG    1       27.570 -20.404   8.760  0.00  0.00    -0.422 OA
ATOM      5  C   LIG    1       28.519 -19.811   7.911  0.00  0.00    +0.143 A 
ATOM      6  C   LIG    1       28.306 -19.756   6.538  0.00  0.00    +0.059 A 
ATOM      7  C   LIG    1       29.285 -19.112   5.764  0.00  0.00    +0.015 A 
ATOM      8  C   LIG    1       30.435 -18.570   6.362  0.00  0.00    +0.001 A 
ATOM      9  C   LIG    1       30.616 -18.646   7.741  0.00  0.00    +0.004 A 
ATOM     10  C   LIG    1       29.650 -19.267   8.525  0.00  0.00    +0.047 A 
ATOM     11  C   LIG    1       27.070 -20.359   6.014  0.00  0.00    +0.138 C 
ENDROOT
BRANCH  11  12
ATOM     12  O   LIG    1       26.884 -20.343   4.644  0.00  0.00    -0.505 OA
ATOM     13  H   LIG    1       26.360 -19.559   4.411  0.00  0.00    +0.292 HD
ENDBRANCH  11  12
BRANCH   1  14
ATOM     14  C   LIG    1       24.847 -21.547   6.292  0.00  0.00    +0.059 C 
BRANCH  14  15
ATOM     15  C   LIG    1       24.008 -20.584   5.429  0.00  0.00    -0.040 A 
ATOM     16  C   LIG    1       22.930 -19.869   5.983  0.00  0.00    +0.004 A 
ATOM     17  C   LIG    1       22.191 -18.963   5.209  0.00  0.00    +0.000 A 
ATOM     18  C   LIG    1       22.499 -18.769   3.865  0.00  0.00    +0.000 A 
ATOM     19  C   LIG    1       23.541 -19.490   3.291  0.00  0.00    +0.000 A 
ATOM     20  C   LIG    1       24.286 -20.381   4.065  0.00  0.00    +0.004 A 
ENDBRANCH  14  15
BRANCH  14  22
ATOM     21  C   LIG    1       25.530 -24.046   6.502  0.00  0.00    +0.005 C 
ATOM     22  C   LIG    1       25.053 -22.921   5.592  0.00  0.00    +0.010 C 
ENDBRANCH  14  22
ENDBRANCH   1  14
TORSDOF 4
ENDMDL
MODEL 3
REMARK VINA RESULT:      -8.5      2.955      6.129
REMARK  Name = *****
REMARK                            x       y       z     vdW  Elec       q    Type
REMARK                         _______ _______ _______ _____ _____    ______ ____
ROOT
ATOM      1  C   LIG    1       24.800 -23.104   6.621  0.00  0.00    +0.086 C 
ATOM      2  C   LIG    1       23.422 -23.658   6.711  0.00  0.00    +0.345 C 
ATOM      3  O   LIG    1       22.449 -22.981   7.038  0.00  0.00    -0.245 OA
ATOM      4  O   LIG    1       23.243 -25.000   6.427  0.00  0.00    -0.422 OA
ATOM      5  C   LIG    1       24.322 -25.868   6.190  0.00  0.00    +0.143 A 
ATOM      6  C   LIG    1       25.627 -25.386   6.165  0.00  0.00    +0.059 A 
ATOM      7  C   LIG    1       26.650 -26.325   5.959  0.00  0.00    +0.015 A 
ATOM      8  C   LIG    1       26.353 -27.685   5.767  0.00  0.00    +0.001 A 
ATOM      9  C   LIG    1       25.034 -28.131   5.796  0.00  0.00    +0.004 A 
ATOM     10  C   LIG    1       24.008 -27.217   6.012  0.00  0.00    +0.047 A 
ATOM     11  C   LIG    1       25.827 -23.944   6.373  0.00  0.00    +0.138 C 
ENDROOT
BRANCH  11  12
ATOM     12  O   LIG    1       27.121 -23.462   6.302  0.00  0.00    -0.505 OA
ATOM     13  H   LIG    1       27.089 -22.516   6.086  0.00  0.00    +0.292 HD
ENDBRANCH  11  12
BRANCH   1  14
ATOM     14  C   LIG    1       24.990 -21.595   6.841  0.00  0.00    +0.059 C 
BRANCH  14  15
ATOM     15  C   LIG    1       24.289 -20.732   5.774  0.00  0.00    -0.040 A 
ATOM     16  C   LIG    1       23.053 -20.113   6.043  0.00  0.00    +0.004 A 
ATOM     17  C   LIG    1       22.433 -19.296   5.087  0.00  0.00    +0.000 A 
ATOM     18  C   LIG    1       23.021 -19.099   3.840  0.00  0.00    +0.000 A 
ATOM     19  C   LIG    1       24.225 -19.728   3.544  0.00  0.00    +0.000 A 
ATOM     20  C   LIG    1       24.850 -20.530   4.501  0.00  0.00    +0.004 A 
ENDBRANCH  14  15
BRANCH  14  22
ATOM     21  C   LIG    1       25.835 -20.563   9.072  0.00  0.00    +0.005 C 
ATOM     22  C   LIG    1       24.656 -21.119   8.283  0.00  0.00    +0.010 C 
ENDBRANCH  14  22
ENDBRANCH   1  14
TORSDOF 4
ENDMDL
MODEL 4
REMARK VINA RESULT:      -8.5      1.182      2.282
REMARK  Name = *****
REMARK                            x       y       z     vdW  Elec       q    Type
REMARK                         _______ _______ _______ _____ _____    ______ ____
ROOT
ATOM      1  C   LIG    1       25.881 -20.717   5.738  0.00  0.00    +0.086 C 
ATOM      2  C   LIG    1       26.414 -19.733   4.758  0.00  0.00    +0.345 C 
ATOM      3  O   LIG    1       25.800 -19.396   3.748  0.00  0.00    -0.245 OA
ATOM      4  O   LIG    1       27.666 -19.193   4.996  0.00  0.00    -0.422 OA
ATOM      5  C   LIG    1       28.487 -19.637   6.046  0.00  0.00    +0.143 A 
ATOM      6  C   LIG    1       28.037 -20.604   6.938  0.00  0.00    +0.059 A 
ATOM      7  C   LIG    1       28.934 -21.019   7.936  0.00  0.00    +0.015 A 
ATOM      8  C   LIG    1       30.219 -20.458   8.029  0.00  0.00    +0.001 A 
ATOM      9  C   LIG    1       30.634 -19.489   7.119  0.00  0.00    +0.004 A 
ATOM     10  C   LIG    1       29.764 -19.076   6.116  0.00  0.00    +0.047 A 
ATOM     11  C   LIG    1       26.673 -21.122   6.753  0.00  0.00    +0.138 C 
ENDROOT
BRANCH  11  12
ATOM     12  O   LIG    1       26.213 -22.050   7.670  0.00  0.00    -0.505 OA
ATOM     13  H   LIG    1       26.793 -22.031   8.448  0.00  0.00    +0.292 HD
ENDBRANCH  11  12
BRANCH   1  14
ATOM     14  C   LIG    1       24.455 -21.248   5.529  0.00  0.00    +0.059 C 
BRANCH  14  15
ATOM     15  C   LIG    1       24.341 -22.774   5.712  0.00  0.00    -0.040 A 
ATOM     16  C   LIG    1       23.420 -23.327   6.622  0.00  0.00    +0.004 A 
ATOM     17  C   LIG    1       23.288 -24.716   6.760  0.00  0.00    +0.000 A 
ATOM     18  C   LIG    1       24.087 -25.578   6.012  0.00  0.00    +0.000 A 
ATOM     19  C   LIG    1       25.026 -25.051   5.132  0.00  0.00    +0.000 A 
ATOM     20  C   LIG    1       25.146 -23.667   4.984  0.00  0.00    +0.004 A 
ENDBRANCH  14  15
BRANCH  14  22
ATOM     21  C   LIG    1       22.482 -19.556   5.524  0.00  0.00    +0.005 C 
ATOM     22  C   LIG    1       23.370 -20.485   6.342  0.00  0.00    +0.010 C 
ENDBRANCH  14  22
ENDBRANCH   1  14
TORSDOF 4
ENDMDL
MODEL 5
REMARK VINA RESULT:      -8.4      1.304      2.423
REMARK  Name = *****
REMARK                            x       y       z     vdW  Elec       q    Type
REMARK                         _______ _______ _______ _____ _____    ______ ____
ROOT
ATOM      1  C   LIG    1       25.925 -21.437   6.071  0.00  0.00    +0.086 C 
ATOM      2  C   LIG    1       25.980 -20.495   4.921  0.00  0.00    +0.345 C 
ATOM      3  O   LIG    1       25.143 -20.489   4.020  0.00  0.00    -0.245 OA
ATOM      4  O   LIG    1       27.033 -19.600   4.866  0.00  0.00    -0.422 OA
ATOM      5  C   LIG    1       28.103 -19.642   5.777  0.00  0.00    +0.143 A 
ATOM      6  C   LIG    1       28.107 -20.559   6.823  0.00  0.00    +0.059 A 
ATOM      7  C   LIG    1       29.230 -20.561   7.666  0.00  0.00    +0.015 A 
ATOM      8  C   LIG    1       30.287 -19.658   7.461  0.00  0.00    +0.001 A 
ATOM      9  C   LIG    1       30.247 -18.752   6.403  0.00  0.00    +0.004 A 
ATOM     10  C   LIG    1       29.148 -18.745   5.551  0.00  0.00    +0.047 A 
ATOM     11  C   LIG    1       26.948 -21.456   6.950  0.00  0.00    +0.138 C 
ENDROOT
BRANCH  11  12
ATOM     12  O   LIG    1       26.935 -22.334   8.018  0.00  0.00    -0.505 OA
ATOM     13  H   LIG    1       27.848 -22.474   8.316  0.00  0.00    +0.292 HD
ENDBRANCH  11  12
BRANCH   1  14
ATOM     14  C   LIG    1       24.707 -22.368   6.187  0.00  0.00    +0.059 C 
BRANCH  14  15
ATOM     15  C   LIG    1       25.060 -23.856   5.995  0.00  0.00    -0.040 A 
ATOM     16  C   LIG    1       24.927 -24.475   4.738  0.00  0.00    +0.004 A 
ATOM     17  C   LIG    1       25.284 -25.818   4.553  0.00  0.00    +0.000 A 
ATOM     18  C   LIG    1       25.759 -26.574   5.622  0.00  0.00    +0.000 A 
ATOM     19  C   LIG    1       25.867 -25.990   6.879  0.00  0.00    +0.000 A 
ATOM     20  C   LIG    1       25.524 -24.648   7.060  0.00  0.00    +0.004 A 
ENDBRANCH  14  15
BRANCH  14  22
ATOM     21  C   LIG    1       23.302 -20.724   7.627  0.00  0.00    +0.005 C 
ATOM     22  C   LIG    1       23.852 -22.135   7.465  0.00  0.00    +0.010 C 
ENDBRANCH  14  22
ENDBRANCH   1  14
TORSDOF 4
ENDMDL
MODEL 6
REMARK VINA RESULT:      -8.3      0.896      1.338
REMARK  Name = *****
REMARK                            x       y       z     vdW  Elec       q    Type
REMARK                         _______ _______ _______ _____ _____    ______ ____
ROOT
ATOM      1  C   LIG    1       26.356 -21.372   6.463  0.00  0.00    +0.086 C 
ATOM      2  C   LIG    1       26.779 -21.906   7.785  0.00  0.00    +0.345 C 
ATOM      3  O   LIG    1       26.037 -22.569   8.507  0.00  0.00    -0.245 OA
ATOM      4  O   LIG    1       28.062 -21.623   8.219  0.00  0.00    -0.422 OA
ATOM      5  C   LIG    1       28.915 -20.752   7.520  0.00  0.00    +0.143 A 
ATOM      6  C   LIG    1       28.518 -20.187   6.314  0.00  0.00    +0.059 A 
ATOM      7  C   LIG    1       29.415 -19.299   5.698  0.00  0.00    +0.015 A 
ATOM      8  C   LIG    1       30.664 -19.018   6.278  0.00  0.00    +0.001 A 
ATOM      9  C   LIG    1       31.029 -19.605   7.487  0.00  0.00    +0.004 A 
ATOM     10  C   LIG    1       30.147 -20.477   8.117  0.00  0.00    +0.047 A 
ATOM     11  C   LIG    1       27.192 -20.552   5.792  0.00  0.00    +0.138 C 
ENDROOT
BRANCH  11  12
ATOM     12  O   LIG    1       26.819 -20.024   4.569  0.00  0.00    -0.505 OA
ATOM     13  H   LIG    1       26.684 -20.755   3.944  0.00  0.00    +0.292 HD
ENDBRANCH  11  12
BRANCH   1  14
ATOM     14  C   LIG    1       24.967 -21.762   5.934  0.00  0.00    +0.059 C 
BRANCH  14  15
ATOM     15  C   LIG    1       24.738 -23.286   5.896  0.00  0.00    -0.040 A 
ATOM     16  C   LIG    1       25.715 -24.151   5.368  0.00  0.00    +0.004 A 
ATOM     17  C   LIG    1       25.524 -25.541   5.368  0.00  0.00    +0.000 A 
ATOM     18  C   LIG    1       24.348 -26.090   5.874  0.00  0.00    +0.000 A 
ATOM     19  C   LIG    1       23.358 -25.250   6.370  0.00  0.00    +0.000 A 
ATOM     20  C   LIG    1       23.554 -23.868   6.383  0.00  0.00    +0.004 A 
ENDBRANCH  14  15
BRANCH  14  22
ATOM     21  C   LIG    1       22.626 -20.653   5.719  0.00  0.00    +0.005 C 
ATOM     22  C   LIG    1       23.793 -21.017   6.629  0.00  0.00    +0.010 C 
ENDBRANCH  14  22
ENDBRANCH   1  14
TORSDOF 4
ENDMDL
MODEL 7
REMARK VINA RESULT:      -8.0      2.917      4.565
REMARK  Name = *****
REMARK                            x       y       z     vdW  Elec       q    Type
REMARK                         _______ _______ _______ _____ _____    ______ ____
ROOT
ATOM      1  C   LIG    1       24.394 -22.318   6.458  0.00  0.00    +0.086 C 
ATOM      2  C   LIG    1       22.908 -22.260   6.446  0.00  0.00    +0.345 C 
ATOM      3  O   LIG    1       22.201 -23.117   6.973  0.00  0.00    -0.245 OA
ATOM      4  O   LIG    1       22.305 -21.198   5.796  0.00  0.00    -0.422 OA
ATOM      5  C   LIG    1       23.039 -20.261   5.049  0.00  0.00    +0.143 A 
ATOM      6  C   LIG    1       24.427 -20.332   4.990  0.00  0.00    +0.059 A 
ATOM      7  C   LIG    1       25.082 -19.381   4.191  0.00  0.00    +0.015 A 
ATOM      8  C   LIG    1       24.356 -18.394   3.504  0.00  0.00    +0.001 A 
ATOM      9  C   LIG    1       22.966 -18.353   3.588  0.00  0.00    +0.004 A 
ATOM     10  C   LIG    1       22.300 -19.295   4.364  0.00  0.00    +0.047 A 
ATOM     11  C   LIG    1       25.089 -21.402   5.753  0.00  0.00    +0.138 C 
ENDROOT
BRANCH  11  12
ATOM     12  O   LIG    1       26.472 -21.442   5.728  0.00  0.00    -0.505 OA
ATOM     13  H   LIG    1       26.803 -21.246   6.620  0.00  0.00    +0.292 HD
ENDBRANCH  11  12
BRANCH   1  14
ATOM     14  C   LIG    1       25.069 -23.443   7.259  0.00  0.00    +0.059 C 
BRANCH  14  15
ATOM     15  C   LIG    1       25.367 -24.697   6.413  0.00  0.00    -0.040 A 
ATOM     16  C   LIG    1       25.972 -25.830   6.988  0.00  0.00    +0.004 A 
ATOM     17  C   LIG    1       26.208 -26.985   6.228  0.00  0.00    +0.000 A 
ATOM     18  C   LIG    1       25.865 -27.023   4.879  0.00  0.00    +0.000 A 
ATOM     19  C   LIG    1       25.296 -25.903   4.285  0.00  0.00    +0.000 A 
ATOM     20  C   LIG    1       25.048 -24.757   5.045  0.00  0.00    +0.004 A 
ENDBRANCH  14  15
BRANCH  14  22
ATOM     21  C   LIG    1       26.092 -21.765   8.960  0.00  0.00    +0.005 C 
ATOM     22  C   LIG    1       26.313 -22.983   8.071  0.00  0.00    +0.010 C 
ENDBRANCH  14  22
ENDBRANCH   1  14
TORSDOF 4
ENDMDL
MODEL 8
REMARK VINA RESULT:      -7.7      2.318      6.278
REMARK  Name = *****
REMARK                            x       y       z     vdW  Elec       q    Type
REMARK                         _______ _______ _______ _____ _____    ______ ____
ROOT
ATOM      1  C   LIG    1       27.979 -20.744   7.014  0.00  0.00    +0.086 C 
ATOM      2  C   LIG    1       26.995 -21.259   8.004  0.00  0.00    +0.345 C 
ATOM      3  O   LIG    1       27.326 -21.830   9.041  0.00  0.00    -0.245 OA
ATOM      4  O   LIG    1       25.650 -21.097   7.726  0.00  0.00    -0.422 OA
ATOM      5  C   LIG    1       25.193 -20.588   6.498  0.00  0.00    +0.143 A 
ATOM      6  C   LIG    1       26.094 -20.160   5.529  0.00  0.00    +0.059 A 
ATOM      7  C   LIG    1       25.557 -19.700   4.316  0.00  0.00    +0.015 A 
ATOM      8  C   LIG    1       24.167 -19.661   4.112  0.00  0.00    +0.001 A 
ATOM      9  C   LIG    1       23.295 -20.096   5.107  0.00  0.00    +0.004 A 
ATOM     10  C   LIG    1       23.810 -20.567   6.309  0.00  0.00    +0.047 A 
ATOM     11  C   LIG    1       27.528 -20.239   5.847  0.00  0.00    +0.138 C 
ENDROOT
BRANCH  11  12
ATOM     12  O   LIG    1       28.419 -19.770   4.899  0.00  0.00    -0.505 OA
ATOM     13  H   LIG    1       27.964 -19.120   4.340  0.00  0.00    +0.292 HD
ENDBRANCH  11  12
BRANCH   1  14
ATOM     14  C   LIG    1       29.473 -20.835   7.363  0.00  0.00    +0.059 C 
BRANCH  14  15
ATOM     15  C   LIG    1       30.037 -19.534   7.967  0.00  0.00    -0.040 A 
ATOM     16  C   LIG    1       29.315 -18.816   8.939  0.00  0.00    +0.004 A 
ATOM     17  C   LIG    1       29.844 -17.654   9.518  0.00  0.00    +0.000 A 
ATOM     18  C   LIG    1       31.091 -17.175   9.123  0.00  0.00    +0.000 A 
ATOM     19  C   LIG    1       31.805 -17.852   8.141  0.00  0.00    +0.000 A 
ATOM     20  C   LIG    1       31.284 -19.018   7.575  0.00  0.00    +0.004 A 
ENDBRANCH  14  15
BRANCH  14  22
ATOM     21  C   LIG    1       31.060 -21.904   9.122  0.00  0.00    +0.005 C 
ATOM     22  C   LIG    1       29.849 -22.081   8.215  0.00  0.00    +0.010 C 
ENDBRANCH  14  22
ENDBRANCH   1  14
TORSDOF 4
ENDMDL
MODEL 9
REMARK VINA RESULT:      -7.6      1.174      3.796
REMARK  Name = *****
REMARK                            x       y       z     vdW  Elec       q    Type
REMARK                         _______ _______ _______ _____ _____    ______ ____
ROOT
ATOM      1  C   LIG    1       25.622 -20.704   6.891  0.00  0.00    +0.086 C 
ATOM      2  C   LIG    1       26.091 -20.572   5.485  0.00  0.00    +0.345 C 
ATOM      3  O   LIG    1       25.413 -20.917   4.519  0.00  0.00    -0.245 OA
ATOM      4  O   LIG    1       27.355 -20.054   5.269  0.00  0.00    -0.422 OA
ATOM      5  C   LIG    1       28.242 -19.776   6.322  0.00  0.00    +0.143 A 
ATOM      6  C   LIG    1       27.851 -19.952   7.644  0.00  0.00    +0.059 A 
ATOM      7  C   LIG    1       28.810 -19.688   8.636  0.00  0.00    +0.015 A 
ATOM      8  C   LIG    1       30.098 -19.245   8.292  0.00  0.00    +0.001 A 
ATOM      9  C   LIG    1       30.454 -19.077   6.956  0.00  0.00    +0.004 A 
ATOM     10  C   LIG    1       29.522 -19.347   5.961  0.00  0.00    +0.047 A 
ATOM     11  C   LIG    1       26.477 -20.415   7.894  0.00  0.00    +0.138 C 
ENDROOT
BRANCH  11  12
ATOM     12  O   LIG    1       26.077 -20.545   9.211  0.00  0.00    -0.505 OA
ATOM     13  H   LIG    1       26.810 -20.925   9.722  0.00  0.00    +0.292 HD
ENDBRANCH  11  12
BRANCH   1  14
ATOM     14  C   LIG    1       24.184 -21.189   7.133  0.00  0.00    +0.059 C 
BRANCH  14  15
ATOM     15  C   LIG    1       23.176 -20.642   6.103  0.00  0.00    -0.040 A 
ATOM     16  C   LIG    1       23.110 -19.265   5.817  0.00  0.00    +0.004 A 
ATOM     17  C   LIG    1       22.221 -18.771   4.852  0.00  0.00    +0.000 A 
ATOM     18  C   LIG    1       21.367 -19.636   4.172  0.00  0.00    +0.000 A 
ATOM     19  C   LIG    1       21.395 -20.994   4.464  0.00  0.00    +0.000 A 
ATOM     20  C   LIG    1       22.291 -21.489   5.414  0.00  0.00    +0.004 A 
ENDBRANCH  14  15
BRANCH  14  22
ATOM     21  C   LIG    1       25.308 -23.526   6.956  0.00  0.00    +0.005 C 
ATOM     22  C   LIG    1       24.057 -22.729   7.306  0.00  0.00    +0.010 C 
ENDBRANCH  14  22
ENDBRANCH   1  14
TORSDOF 4
ENDMDL
