MODEL 1
REMARK VINA RESULT:      -7.8      0.000      0.000
REMARK  Name = *****
REMARK                            x       y       z     vdW  Elec       q    Type
REMARK                         _______ _______ _______ _____ _____    ______ ____
ROOT
ATOM      1  C   LIG    1       26.091 -22.317   8.294  0.00  0.00    +0.158 C 
ATOM      2  N   LIG    1       25.576 -21.330   7.308  0.00  0.00    -0.197 N 
ATOM      3  S   LIG    1       23.963 -21.664   6.884  0.00  0.00    +0.076 S 
ATOM      4  O   LIG    1       23.111 -21.376   8.015  0.00  0.00    -0.150 OA
ATOM      5  O   LIG    1       23.926 -22.921   6.174  0.00  0.00    -0.150 OA
ATOM      6  C   LIG    1       23.478 -20.536   5.699  0.00  0.00    +0.128 A 
ATOM      7  C   LIG    1       24.422 -19.921   4.921  0.00  0.00    +0.089 A 
ATOM      8  S   LIG    1       23.687 -18.906   3.756  0.00  0.00    -0.071 S 
ATOM      9  C   LIG    1       22.136 -19.302   4.321  0.00  0.00    +0.081 A 
ATOM     10 CL   LIG    1       20.755 -18.612   3.571  0.00  0.00    -0.076 Cl
ATOM     11  C   LIG    1       25.855 -20.081   5.010  0.00  0.00    +0.222 C 
ATOM     12  O   LIG    1       26.624 -19.675   4.135  0.00  0.00    -0.284 OA
ATOM     13  C   LIG    1       22.141 -20.188   5.366  0.00  0.00    +0.057 A 
ATOM     14  C   LIG    1       26.429 -20.745   6.263  0.00  0.00    +0.156 C 
ATOM     15  C   LIG    1       27.780 -20.686   6.446  0.00  0.00    +0.210 C 
ENDROOT
BRANCH  15  16
ATOM     16  N   LIG    1       28.500 -21.103   7.546  0.00  0.00    -0.269 N 
ATOM     17  H   LIG    1       29.022 -21.955   7.326  0.00  0.00    +0.157 HD
BRANCH  16  18
ATOM     18  C   LIG    1       29.496 -20.309   8.158  0.00  0.00    +0.125 A 
ATOM     19  N   LIG    1       29.124 -19.044   8.455  0.00  0.00    -0.240 NA
ATOM     20  C   LIG    1       30.061 -18.212   8.960  0.00  0.00    +0.113 A 
ATOM     21  C   LIG    1       31.378 -18.575   9.182  0.00  0.00    +0.020 A 
ATOM     22  C   LIG    1       31.752 -19.874   8.872  0.00  0.00    +0.005 A 
ATOM     23  C   LIG    1       30.801 -20.752   8.353  0.00  0.00    +0.044 A 
ENDBRANCH  16  18
ENDBRANCH  15  16
BRANCH  15  24
ATOM     24  O   LIG    1       28.649 -20.227   5.469  0.00  0.00    -0.494 OA
ATOM     25  H   LIG    1       29.483 -20.745   5.485  0.00  0.00    +0.293 HD
ENDBRANCH  15  24
TORSDOF 3
ENDMDL
MODEL 2
REMARK VINA RESULT:      -7.8      1.981      2.664
REMARK  Name = *****
REMARK                            x       y       z     vdW  Elec       q    Type
REMARK                         _______ _______ _______ _____ _____    ______ ____
ROOT
ATOM      1  C   LIG    1       29.219 -21.505   8.633  0.00  0.00    +0.158 C 
ATOM      2  N   LIG    1       28.156 -20.889   7.796  0.00  0.00    -0.197 N 
ATOM      3  S   LIG    1       26.825 -21.932   7.620  0.00  0.00    +0.076 S 
ATOM      4  O   LIG    1       26.138 -22.033   8.886  0.00  0.00    -0.150 OA
ATOM      5  O   LIG    1       27.244 -23.087   6.861  0.00  0.00    -0.150 OA
ATOM      6  C   LIG    1       25.691 -21.181   6.589  0.00  0.00    +0.128 A 
ATOM      7  C   LIG    1       26.109 -20.226   5.703  0.00  0.00    +0.089 A 
ATOM      8  S   LIG    1       24.811 -19.689   4.726  0.00  0.00    -0.071 S 
ATOM      9  C   LIG    1       23.727 -20.733   5.511  0.00  0.00    +0.081 A 
ATOM     10 CL   LIG    1       22.080 -20.768   5.029  0.00  0.00    -0.076 Cl
ATOM     11  C   LIG    1       27.451 -19.713   5.552  0.00  0.00    +0.222 C 
ATOM     12  O   LIG    1       27.794 -19.025   4.587  0.00  0.00    -0.284 OA
ATOM     13  C   LIG    1       24.307 -21.490   6.494  0.00  0.00    +0.057 A 
ATOM     14  C   LIG    1       28.464 -20.008   6.660  0.00  0.00    +0.156 C 
ATOM     15  C   LIG    1       29.651 -19.335   6.626  0.00  0.00    +0.210 C 
ENDROOT
BRANCH  15  16
ATOM     16  N   LIG    1       30.654 -19.348   7.573  0.00  0.00    -0.269 N 
ATOM     17  H   LIG    1       31.568 -19.417   7.119  0.00  0.00    +0.157 HD
BRANCH  16  18
ATOM     18  C   LIG    1       30.865 -18.287   8.482  0.00  0.00    +0.125 A 
ATOM     19  N   LIG    1       32.013 -17.596   8.307  0.00  0.00    -0.240 NA
ATOM     20  C   LIG    1       32.309 -16.628   9.201  0.00  0.00    +0.113 A 
ATOM     21  C   LIG    1       31.513 -16.308  10.287  0.00  0.00    +0.020 A 
ATOM     22  C   LIG    1       30.338 -17.024  10.460  0.00  0.00    +0.005 A 
ATOM     23  C   LIG    1       30.009 -18.026   9.548  0.00  0.00    +0.044 A 
ENDBRANCH  16  18
ENDBRANCH  15  16
BRANCH  15  24
ATOM     24  O   LIG    1       30.040 -18.557   5.548  0.00  0.00    -0.494 OA
ATOM     25  H   LIG    1       29.575 -17.692   5.566  0.00  0.00    +0.293 HD
ENDBRANCH  15  24
TORSDOF 3
ENDMDL
MODEL 3
REMARK VINA RESULT:      -6.2      8.649     11.035
REMARK  Name = *****
REMARK                            x       y       z     vdW  Elec       q    Type
REMARK                         _______ _______ _______ _____ _____    ______ ____
ROOT
ATOM      1  C   LIG    1       26.933 -29.025   9.733  0.00  0.00    +0.158 C 
ATOM      2  N   LIG    1       25.558 -29.310  10.222  0.00  0.00    -0.197 N 
ATOM      3  S   LIG    1       25.575 -29.847  11.835  0.00  0.00    +0.076 S 
ATOM      4  O   LIG    1       25.937 -28.743  12.694  0.00  0.00    -0.150 OA
ATOM      5  O   LIG    1       26.237 -31.129  11.885  0.00  0.00    -0.150 OA
ATOM      6  C   LIG    1       23.973 -30.219  12.290  0.00  0.00    +0.128 A 
ATOM      7  C   LIG    1       23.051 -30.534  11.328  0.00  0.00    +0.089 A 
ATOM      8  S   LIG    1       21.549 -30.952  12.035  0.00  0.00    -0.071 S 
ATOM      9  C   LIG    1       22.160 -30.697  13.598  0.00  0.00    +0.081 A 
ATOM     10 CL   LIG    1       21.146 -30.946  14.959  0.00  0.00    -0.076 Cl
ATOM     11  C   LIG    1       23.260 -30.547   9.899  0.00  0.00    +0.222 C 
ATOM     12  O   LIG    1       22.456 -31.056   9.115  0.00  0.00    -0.284 OA
ATOM     13  C   LIG    1       23.474 -30.308  13.618  0.00  0.00    +0.057 A 
ATOM     14  C   LIG    1       24.513 -29.862   9.348  0.00  0.00    +0.156 C 
ATOM     15  C   LIG    1       24.590 -29.677   7.999  0.00  0.00    +0.210 C 
ENDROOT
BRANCH  15  16
ATOM     16  N   LIG    1       25.555 -28.986   7.297  0.00  0.00    -0.269 N 
ATOM     17  H   LIG    1       25.814 -29.499   6.451  0.00  0.00    +0.157 HD
BRANCH  16  18
ATOM     18  C   LIG    1       25.349 -27.683   6.789  0.00  0.00    +0.125 A 
ATOM     19  N   LIG    1       24.322 -27.558   5.920  0.00  0.00    -0.240 NA
ATOM     20  C   LIG    1       24.132 -26.355   5.335  0.00  0.00    +0.113 A 
ATOM     21  C   LIG    1       24.932 -25.249   5.566  0.00  0.00    +0.020 A 
ATOM     22  C   LIG    1       25.985 -25.387   6.457  0.00  0.00    +0.005 A 
ATOM     23  C   LIG    1       26.198 -26.617   7.076  0.00  0.00    +0.044 A 
ENDBRANCH  16  18
ENDBRANCH  15  16
BRANCH  15  24
ATOM     24  O   LIG    1       23.687 -30.243   7.112  0.00  0.00    -0.494 OA
ATOM     25  H   LIG    1       22.788 -30.261   7.508  0.00  0.00    +0.293 HD
ENDBRANCH  15  24
TORSDOF 3
ENDMDL
MODEL 4
REMARK VINA RESULT:      -6.0      8.718     10.957
REMARK  Name = *****
REMARK                            x       y       z     vdW  Elec       q    Type
REMARK                         _______ _______ _______ _____ _____    ______ ____
ROOT
ATOM      1  C   LIG    1       26.682 -28.706   9.693  0.00  0.00    +0.158 C 
ATOM      2  N   LIG    1       25.382 -29.427   9.735  0.00  0.00    -0.197 N 
ATOM      3  S   LIG    1       25.205 -30.299  11.183  0.00  0.00    +0.076 S 
ATOM      4  O   LIG    1       25.026 -29.368  12.273  0.00  0.00    -0.150 OA
ATOM      5  O   LIG    1       26.190 -31.354  11.207  0.00  0.00    -0.150 OA
ATOM      6  C   LIG    1       23.727 -31.150  11.116  0.00  0.00    +0.128 A 
ATOM      7  C   LIG    1       23.174 -31.453   9.901  0.00  0.00    +0.089 A 
ATOM      8  S   LIG    1       21.748 -32.380  10.093  0.00  0.00    -0.071 S 
ATOM      9  C   LIG    1       21.899 -32.349  11.783  0.00  0.00    +0.081 A 
ATOM     10 CL   LIG    1       20.733 -33.147  12.757  0.00  0.00    -0.076 Cl
ATOM     11  C   LIG    1       23.685 -31.085   8.601  0.00  0.00    +0.222 C 
ATOM     12  O   LIG    1       23.260 -31.583   7.556  0.00  0.00    -0.284 OA
ATOM     13  C   LIG    1       23.000 -31.662  12.225  0.00  0.00    +0.057 A 
ATOM     14  C   LIG    1       24.766 -30.004   8.532  0.00  0.00    +0.156 C 
ATOM     15  C   LIG    1       25.077 -29.501   7.302  0.00  0.00    +0.210 C 
ENDROOT
BRANCH  15  16
ATOM     16  N   LIG    1       25.922 -28.450   7.012  0.00  0.00    -0.269 N 
ATOM     17  H   LIG    1       26.483 -28.665   6.184  0.00  0.00    +0.157 HD
BRANCH  16  18
ATOM     18  C   LIG    1       25.455 -27.151   6.711  0.00  0.00    +0.125 A 
ATOM     19  N   LIG    1       24.344 -27.099   5.943  0.00  0.00    -0.240 NA
ATOM     20  C   LIG    1       23.903 -25.884   5.551  0.00  0.00    +0.113 A 
ATOM     21  C   LIG    1       24.525 -24.693   5.881  0.00  0.00    +0.020 A 
ATOM     22  C   LIG    1       25.665 -24.754   6.667  0.00  0.00    +0.005 A 
ATOM     23  C   LIG    1       26.137 -25.997   7.087  0.00  0.00    +0.044 A 
ENDBRANCH  16  18
ENDBRANCH  15  16
BRANCH  15  24
ATOM     24  O   LIG    1       24.600 -30.052   6.124  0.00  0.00    -0.494 OA
ATOM     25  H   LIG    1       24.695 -29.412   5.385  0.00  0.00    +0.293 HD
ENDBRANCH  15  24
TORSDOF 3
ENDMDL
MODEL 5
REMARK VINA RESULT:      -5.6      7.770     10.062
REMARK  Name = *****
REMARK                            x       y       z     vdW  Elec       q    Type
REMARK                         _______ _______ _______ _____ _____    ______ ____
ROOT
ATOM      1  C   LIG    1       26.939 -27.488   8.103  0.00  0.00    +0.158 C 
ATOM      2  N   LIG    1       25.796 -28.404   8.359  0.00  0.00    -0.197 N 
ATOM      3  S   LIG    1       26.120 -29.450   9.660  0.00  0.00    +0.076 S 
ATOM      4  O   LIG    1       26.125 -28.685  10.886  0.00  0.00    -0.150 OA
ATOM      5  O   LIG    1       27.199 -30.332   9.282  0.00  0.00    -0.150 OA
ATOM      6  C   LIG    1       24.795 -30.510   9.836  0.00  0.00    +0.128 A 
ATOM      7  C   LIG    1       23.979 -30.759   8.766  0.00  0.00    +0.089 A 
ATOM      8  S   LIG    1       22.782 -31.914   9.166  0.00  0.00    -0.071 S 
ATOM      9  C   LIG    1       23.373 -32.048  10.751  0.00  0.00    +0.081 A 
ATOM     10 CL   LIG    1       22.616 -33.123  11.854  0.00  0.00    -0.076 Cl
ATOM     11  C   LIG    1       24.075 -30.173   7.449  0.00  0.00    +0.222 C 
ATOM     12  O   LIG    1       23.452 -30.612   6.480  0.00  0.00    -0.284 OA
ATOM     13  C   LIG    1       24.459 -31.250  11.003  0.00  0.00    +0.057 A 
ATOM     14  C   LIG    1       24.957 -28.935   7.275  0.00  0.00    +0.156 C 
ATOM     15  C   LIG    1       24.864 -28.255   6.095  0.00  0.00    +0.210 C 
ENDROOT
BRANCH  15  16
ATOM     16  N   LIG    1       25.465 -27.058   5.763  0.00  0.00    -0.269 N 
ATOM     17  H   LIG    1       25.443 -26.920   4.750  0.00  0.00    +0.157 HD
BRANCH  16  18
ATOM     18  C   LIG    1       24.998 -25.810   6.231  0.00  0.00    +0.125 A 
ATOM     19  N   LIG    1       23.657 -25.645   6.198  0.00  0.00    -0.240 NA
ATOM     20  C   LIG    1       23.160 -24.440   6.551  0.00  0.00    +0.113 A 
ATOM     21  C   LIG    1       23.941 -23.363   6.934  0.00  0.00    +0.020 A 
ATOM     22  C   LIG    1       25.316 -23.540   6.962  0.00  0.00    +0.005 A 
ATOM     23  C   LIG    1       25.852 -24.776   6.607  0.00  0.00    +0.044 A 
ENDBRANCH  16  18
ENDBRANCH  15  16
BRANCH  15  24
ATOM     24  O   LIG    1       24.162 -28.740   5.004  0.00  0.00    -0.494 OA
ATOM     25  H   LIG    1       23.425 -28.132   4.775  0.00  0.00    +0.293 HD
ENDBRANCH  15  24
TORSDOF 3
ENDMDL
MODEL 6
REMARK VINA RESULT:      -5.5      4.004      6.468
REMARK  Name = *****
REMARK                            x       y       z     vdW  Elec       q    Type
REMARK                         _______ _______ _______ _____ _____    ______ ____
ROOT
ATOM      1  C   LIG    1       24.771 -22.994   8.050  0.00  0.00    +0.158 C 
ATOM      2  N   LIG    1       25.799 -22.202   7.324  0.00  0.00    -0.197 N 
ATOM      3  S   LIG    1       26.755 -21.295   8.399  0.00  0.00    +0.076 S 
ATOM      4  O   LIG    1       27.598 -22.195   9.152  0.00  0.00    -0.150 OA
ATOM      5  O   LIG    1       25.920 -20.296   9.024  0.00  0.00    -0.150 OA
ATOM      6  C   LIG    1       27.853 -20.365   7.482  0.00  0.00    +0.128 A 
ATOM      7  C   LIG    1       27.558 -20.054   6.182  0.00  0.00    +0.089 A 
ATOM      8  S   LIG    1       28.765 -19.046   5.507  0.00  0.00    -0.071 S 
ATOM      9  C   LIG    1       29.650 -19.056   6.954  0.00  0.00    +0.081 A 
ATOM     10 CL   LIG    1       31.121 -18.177   7.058  0.00  0.00    -0.076 Cl
ATOM     11  C   LIG    1       26.396 -20.473   5.434  0.00  0.00    +0.222 C 
ATOM     12  O   LIG    1       26.087 -19.971   4.351  0.00  0.00    -0.284 OA
ATOM     13  C   LIG    1       29.067 -19.794   7.951  0.00  0.00    +0.057 A 
ATOM     14  C   LIG    1       25.547 -21.613   6.001  0.00  0.00    +0.156 C 
ATOM     15  C   LIG    1       24.594 -22.155   5.188  0.00  0.00    +0.210 C 
ENDROOT
BRANCH  15  16
ATOM     16  N   LIG    1       23.801 -23.256   5.437  0.00  0.00    -0.269 N 
ATOM     17  H   LIG    1       23.054 -23.319   4.742  0.00  0.00    +0.157 HD
BRANCH  16  18
ATOM     18  C   LIG    1       24.302 -24.577   5.438  0.00  0.00    +0.125 A 
ATOM     19  N   LIG    1       25.179 -24.863   4.451  0.00  0.00    -0.240 NA
ATOM     20  C   LIG    1       25.624 -26.135   4.349  0.00  0.00    +0.113 A 
ATOM     21  C   LIG    1       25.227 -27.161   5.189  0.00  0.00    +0.020 A 
ATOM     22  C   LIG    1       24.325 -26.860   6.198  0.00  0.00    +0.005 A 
ATOM     23  C   LIG    1       23.856 -25.554   6.325  0.00  0.00    +0.044 A 
ENDBRANCH  16  18
ENDBRANCH  15  16
BRANCH  15  24
ATOM     24  O   LIG    1       24.246 -21.599   3.968  0.00  0.00    -0.494 OA
ATOM     25  H   LIG    1       24.170 -20.623   4.048  0.00  0.00    +0.293 HD
ENDBRANCH  15  24
TORSDOF 3
ENDMDL
MODEL 7
REMARK VINA RESULT:      -5.5     10.600     12.034
REMARK  Name = *****
REMARK                            x       y       z     vdW  Elec       q    Type
REMARK                         _______ _______ _______ _____ _____    ______ ____
ROOT
ATOM      1  C   LIG    1       26.848 -29.599   9.571  0.00  0.00    +0.158 C 
ATOM      2  N   LIG    1       25.434 -29.501  10.021  0.00  0.00    -0.197 N 
ATOM      3  S   LIG    1       25.332 -29.346  11.711  0.00  0.00    +0.076 S 
ATOM      4  O   LIG    1       25.822 -28.042  12.093  0.00  0.00    -0.150 OA
ATOM      5  O   LIG    1       25.807 -30.569  12.314  0.00  0.00    -0.150 OA
ATOM      6  C   LIG    1       23.682 -29.315  12.145  0.00  0.00    +0.128 A 
ATOM      7  C   LIG    1       22.752 -29.878  11.314  0.00  0.00    +0.089 A 
ATOM      8  S   LIG    1       21.188 -29.799  12.005  0.00  0.00    -0.071 S 
ATOM      9  C   LIG    1       21.786 -29.014  13.386  0.00  0.00    +0.081 A 
ATOM     10 CL   LIG    1       20.711 -28.577  14.649  0.00  0.00    -0.076 Cl
ATOM     11  C   LIG    1       22.996 -30.486  10.027  0.00  0.00    +0.222 C 
ATOM     12  O   LIG    1       22.150 -31.168   9.443  0.00  0.00    -0.284 OA
ATOM     13  C   LIG    1       23.141 -28.806  13.357  0.00  0.00    +0.057 A 
ATOM     14  C   LIG    1       24.346 -30.230   9.354  0.00  0.00    +0.156 C 
ATOM     15  C   LIG    1       24.484 -30.611   8.051  0.00  0.00    +0.210 C 
ENDROOT
BRANCH  15  16
ATOM     16  N   LIG    1       25.555 -30.376   7.213  0.00  0.00    -0.269 N 
ATOM     17  H   LIG    1       26.390 -30.152   7.761  0.00  0.00    +0.157 HD
BRANCH  16  18
ATOM     18  C   LIG    1       26.055 -31.346   6.316  0.00  0.00    +0.125 A 
ATOM     19  N   LIG    1       25.544 -31.295   5.066  0.00  0.00    -0.240 NA
ATOM     20  C   LIG    1       25.919 -32.252   4.190  0.00  0.00    +0.113 A 
ATOM     21  C   LIG    1       26.785 -33.286   4.500  0.00  0.00    +0.020 A 
ATOM     22  C   LIG    1       27.303 -33.334   5.785  0.00  0.00    +0.005 A 
ATOM     23  C   LIG    1       26.934 -32.354   6.706  0.00  0.00    +0.044 A 
ENDBRANCH  16  18
ENDBRANCH  15  16
BRANCH  15  24
ATOM     24  O   LIG    1       23.536 -31.374   7.388  0.00  0.00    -0.494 OA
ATOM     25  H   LIG    1       22.934 -31.805   8.034  0.00  0.00    +0.293 HD
ENDBRANCH  15  24
TORSDOF 3
ENDMDL
MODEL 8
REMARK VINA RESULT:      -5.5      3.755      6.225
REMARK  Name = *****
REMARK                            x       y       z     vdW  Elec       q    Type
REMARK                         _______ _______ _______ _____ _____    ______ ____
ROOT
ATOM      1  C   LIG    1       26.970 -22.982   7.020  0.00  0.00    +0.158 C 
ATOM      2  N   LIG    1       25.736 -22.532   6.322  0.00  0.00    -0.197 N 
ATOM      3  S   LIG    1       25.591 -20.838   6.354  0.00  0.00    +0.076 S 
ATOM      4  O   LIG    1       26.602 -20.264   5.497  0.00  0.00    -0.150 OA
ATOM      5  O   LIG    1       25.392 -20.420   7.722  0.00  0.00    -0.150 OA
ATOM      6  C   LIG    1       24.119 -20.415   5.602  0.00  0.00    +0.128 A 
ATOM      7  C   LIG    1       23.099 -21.326   5.546  0.00  0.00    +0.089 A 
ATOM      8  S   LIG    1       21.706 -20.641   4.826  0.00  0.00    -0.071 S 
ATOM      9  C   LIG    1       22.496 -19.155   4.601  0.00  0.00    +0.081 A 
ATOM     10 CL   LIG    1       21.657 -17.848   3.872  0.00  0.00    -0.076 Cl
ATOM     11  C   LIG    1       23.127 -22.687   6.028  0.00  0.00    +0.222 C 
ATOM     12  O   LIG    1       22.107 -23.370   6.148  0.00  0.00    -0.284 OA
ATOM     13  C   LIG    1       23.788 -19.145   5.056  0.00  0.00    +0.057 A 
ATOM     14  C   LIG    1       24.487 -23.307   6.358  0.00  0.00    +0.156 C 
ATOM     15  C   LIG    1       24.529 -24.651   6.590  0.00  0.00    +0.210 C 
ENDROOT
BRANCH  15  16
ATOM     16  N   LIG    1       25.646 -25.437   6.785  0.00  0.00    -0.269 N 
ATOM     17  H   LIG    1       26.021 -25.292   7.725  0.00  0.00    +0.157 HD
BRANCH  16  18
ATOM     18  C   LIG    1       25.614 -26.848   6.704  0.00  0.00    +0.125 A 
ATOM     19  N   LIG    1       25.241 -27.350   5.507  0.00  0.00    -0.240 NA
ATOM     20  C   LIG    1       25.108 -28.689   5.397  0.00  0.00    +0.113 A 
ATOM     21  C   LIG    1       25.321 -29.575   6.439  0.00  0.00    +0.020 A 
ATOM     22  C   LIG    1       25.701 -29.052   7.665  0.00  0.00    +0.005 A 
ATOM     23  C   LIG    1       25.849 -27.672   7.801  0.00  0.00    +0.044 A 
ENDBRANCH  16  18
ENDBRANCH  15  16
BRANCH  15  24
ATOM     24  O   LIG    1       23.387 -25.424   6.722  0.00  0.00    -0.494 OA
ATOM     25  H   LIG    1       22.837 -25.360   5.910  0.00  0.00    +0.293 HD
ENDBRANCH  15  24
TORSDOF 3
ENDMDL
MODEL 9
REMARK VINA RESULT:      -5.4      3.631      6.198
REMARK  Name = *****
REMARK                            x       y       z     vdW  Elec       q    Type
REMARK                         _______ _______ _______ _____ _____    ______ ____
ROOT
ATOM      1  C   LIG    1       26.264 -23.423   7.644  0.00  0.00    +0.158 C 
ATOM      2  N   LIG    1       25.750 -22.534   6.568  0.00  0.00    -0.197 N 
ATOM      3  S   LIG    1       26.563 -21.041   6.558  0.00  0.00    +0.076 S 
ATOM      4  O   LIG    1       27.919 -21.247   6.105  0.00  0.00    -0.150 OA
ATOM      5  O   LIG    1       26.243 -20.336   7.777  0.00  0.00    -0.150 OA
ATOM      6  C   LIG    1       25.865 -20.061   5.349  0.00  0.00    +0.128 A 
ATOM      7  C   LIG    1       24.580 -20.300   4.940  0.00  0.00    +0.089 A 
ATOM      8  S   LIG    1       24.079 -19.137   3.789  0.00  0.00    -0.071 S 
ATOM      9  C   LIG    1       25.582 -18.351   3.858  0.00  0.00    +0.081 A 
ATOM     10 CL   LIG    1       25.860 -16.960   2.893  0.00  0.00    -0.076 Cl
ATOM     11  C   LIG    1       23.711 -21.360   5.393  0.00  0.00    +0.222 C 
ATOM     12  O   LIG    1       22.501 -21.376   5.152  0.00  0.00    -0.284 OA
ATOM     13  C   LIG    1       26.466 -18.931   4.730  0.00  0.00    +0.057 A 
ATOM     14  C   LIG    1       24.336 -22.523   6.167  0.00  0.00    +0.156 C 
ATOM     15  C   LIG    1       23.559 -23.622   6.391  0.00  0.00    +0.210 C 
ENDROOT
BRANCH  15  16
ATOM     16  N   LIG    1       23.941 -24.823   6.953  0.00  0.00    -0.269 N 
ATOM     17  H   LIG    1       23.155 -25.245   7.454  0.00  0.00    +0.157 HD
BRANCH  16  18
ATOM     18  C   LIG    1       24.410 -25.914   6.187  0.00  0.00    +0.125 A 
ATOM     19  N   LIG    1       23.979 -27.130   6.589  0.00  0.00    -0.240 NA
ATOM     20  C   LIG    1       24.465 -28.215   5.948  0.00  0.00    +0.113 A 
ATOM     21  C   LIG    1       25.383 -28.156   4.914  0.00  0.00    +0.020 A 
ATOM     22  C   LIG    1       25.823 -26.904   4.510  0.00  0.00    +0.005 A 
ATOM     23  C   LIG    1       25.332 -25.769   5.153  0.00  0.00    +0.044 A 
ENDBRANCH  16  18
ENDBRANCH  15  16
BRANCH  15  24
ATOM     24  O   LIG    1       22.201 -23.649   6.118  0.00  0.00    -0.494 OA
ATOM     25  H   LIG    1       22.038 -23.410   5.178  0.00  0.00    +0.293 HD
ENDBRANCH  15  24
TORSDOF 3
ENDMDL
