MODEL 1
REMARK VINA RESULT:      28.4      0.000      0.000
REMARK  Name = *****
REMARK                            x       y       z     vdW  Elec       q    Type
REMARK                         _______ _______ _______ _____ _____    ______ ____
ROOT
ATOM      1  C   LIG    1       28.390 -16.307   4.020  0.00  0.00    +0.129 A 
ATOM      2  C   LIG    1       28.939 -17.523   4.439  0.00  0.00    +0.048 A 
ATOM      3  C   LIG    1       28.110 -18.554   4.913  0.00  0.00    +0.027 A 
ATOM      4  C   LIG    1       26.720 -18.391   4.936  0.00  0.00    +0.035 A 
ATOM      5  C   LIG    1       26.182 -17.176   4.518  0.00  0.00    +0.027 A 
ATOM      6  C   LIG    1       27.005 -16.149   4.046  0.00  0.00    +0.048 A 
ENDROOT
BRANCH   4   7
ATOM      7  N   LIG    1       25.908 -19.481   5.309  0.00  0.00    -0.269 N 
ATOM      8  H   LIG    1       24.936 -19.426   5.046  0.00  0.00    +0.156 HD
ATOM      9  C   LIG    1       26.331 -20.631   5.935  0.00  0.00    +0.308 C 
ATOM     10  N   LIG    1       25.368 -21.558   6.235  0.00  0.00    -0.269 N 
ATOM     11  H   LIG    1       25.777 -22.457   6.466  0.00  0.00    +0.156 HD
ATOM     12  O   LIG    1       27.493 -20.943   6.176  0.00  0.00    -0.252 OA
BRANCH  10  13
ATOM     13  C   LIG    1       23.999 -21.489   5.991  0.00  0.00    +0.035 A 
ATOM     14  C   LIG    1       23.520 -21.296   4.695  0.00  0.00    +0.037 A 
ATOM     15  C   LIG    1       22.139 -21.157   4.444  0.00  0.00    +0.075 A 
ATOM     16  C   LIG    1       21.264 -21.206   5.534  0.00  0.00    +0.053 A 
ATOM     17 CL   LIG    1       19.564 -20.954   5.396  0.00  0.00    -0.083 Cl
ATOM     18  C   LIG    1       21.751 -21.446   6.828  0.00  0.00    +0.022 A 
ATOM     19  C   LIG    1       23.118 -21.571   7.061  0.00  0.00    +0.025 A 
BRANCH  15  20
ATOM     20  C   LIG    1       21.711 -20.990   3.010  0.00  0.00    +0.419 C 
ATOM     21  F   LIG    1       22.641 -21.512   2.157  0.00  0.00    -0.166 F 
ATOM     22  F   LIG    1       21.594 -19.678   2.659  0.00  0.00    -0.166 F 
ATOM     23  F   LIG    1       20.536 -21.571   2.657  0.00  0.00    -0.166 F 
ENDBRANCH  15  20
ENDBRANCH  10  13
ENDBRANCH   4   7
BRANCH   1  24
ATOM     24  O   LIG    1       29.119 -15.271   3.473  0.00  0.00    -0.456 OA
BRANCH  24  29
ATOM     25  C   LIG    1       26.726 -12.553   2.822  0.00  0.00    +0.129 A 
ATOM     26  N   LIG    1       27.532 -11.463   2.747  0.00  0.00    -0.250 NA
ATOM     27  C   LIG    1       28.853 -11.692   2.881  0.00  0.00    +0.115 A 
ATOM     28  C   LIG    1       29.393 -12.940   3.162  0.00  0.00    +0.066 A 
ATOM     29  C   LIG    1       28.536 -14.042   3.239  0.00  0.00    +0.132 A 
ATOM     30  C   LIG    1       27.171 -13.852   3.018  0.00  0.00    +0.079 A 
BRANCH  25  34
ATOM     31  C   LIG    1       23.340 -11.634   4.219  0.00  0.00    +0.128 C 
ATOM     32  N   LIG    1       24.738 -11.909   4.039  0.00  0.00    -0.313 N 
ATOM     33  H   LIG    1       25.409 -11.714   4.770  0.00  0.00    +0.149 HD
ATOM     34  C   LIG    1       25.248 -12.293   2.806  0.00  0.00    +0.262 C 
ATOM     35  O   LIG    1       24.583 -12.460   1.813  0.00  0.00    -0.269 OA
ENDBRANCH  25  34
ENDBRANCH  24  29
ENDBRANCH   1  24
TORSDOF 6
ENDMDL
