MODEL 1
REMARK VINA RESULT:     -11.0      0.000      0.000
REMARK  Name = *****
REMARK                            x       y       z     vdW  Elec       q    Type
REMARK                         _______ _______ _______ _____ _____    ______ ____
ROOT
ATOM      1  C   LIG    1       24.782 -20.976   6.173  0.00  0.00    +0.059 C 
ENDROOT
BRANCH   1   6
ATOM      2  C   LIG    1       28.889 -20.054   7.646  0.00  0.00    +0.121 C 
ATOM      3  O   LIG    1       27.882 -20.816   8.344  0.00  0.00    -0.454 OA
ATOM      4  C   LIG    1       26.566 -20.795   8.048  0.00  0.00    +0.340 C 
ATOM      5  O   LIG    1       25.743 -21.015   8.929  0.00  0.00    -0.245 OA
ATOM      6  C   LIG    1       26.197 -20.590   6.630  0.00  0.00    +0.081 C 
ATOM      7  C   LIG    1       27.120 -20.090   5.789  0.00  0.00    +0.108 C 
ATOM      8  C   LIG    1       28.524 -19.749   6.177  0.00  0.00    +0.122 C 
BRANCH   7   9
ATOM      9  O   LIG    1       26.819 -19.916   4.445  0.00  0.00    -0.510 OA
ATOM     10  H   LIG    1       26.393 -20.720   4.099  0.00  0.00    +0.292 HD
ENDBRANCH   7   9
BRANCH   2  11
ATOM     11  C   LIG    1       30.182 -20.905   7.733  0.00  0.00    +0.048 C 
BRANCH  11  13
ATOM     12  C   LIG    1       31.583 -22.439   9.153  0.00  0.00    +0.004 C 
ATOM     13  C   LIG    1       30.613 -21.270   9.160  0.00  0.00    +0.001 C 
ENDBRANCH  11  13
ENDBRANCH   2  11
BRANCH   2  14
ATOM     14  C   LIG    1       29.094 -18.720   8.425  0.00  0.00    +0.053 C 
BRANCH  14  15
ATOM     15  C   LIG    1       30.389 -17.966   8.076  0.00  0.00    +0.039 C 
BRANCH  15  16
ATOM     16  C   LIG    1       31.092 -17.441   9.306  0.00  0.00    -0.047 A 
ATOM     17  C   LIG    1       30.559 -17.669  10.582  0.00  0.00    +0.003 A 
ATOM     18  C   LIG    1       31.204 -17.175  11.716  0.00  0.00    +0.000 A 
ATOM     19  C   LIG    1       32.390 -16.454  11.585  0.00  0.00    +0.000 A 
ATOM     20  C   LIG    1       32.931 -16.227  10.321  0.00  0.00    +0.000 A 
ATOM     21  C   LIG    1       32.286 -16.719   9.185  0.00  0.00    +0.003 A 
ENDBRANCH  15  16
ENDBRANCH  14  15
ENDBRANCH   2  14
ENDBRANCH   1   6
BRANCH   1  22
ATOM     22  C   LIG    1       24.495 -22.490   6.342  0.00  0.00    -0.038 A 
ATOM     23  C   LIG    1       25.519 -23.453   6.220  0.00  0.00    +0.028 A 
ATOM     24  C   LIG    1       25.251 -24.824   6.362  0.00  0.00    +0.048 A 
ATOM     25  C   LIG    1       23.956 -25.265   6.608  0.00  0.00    +0.024 A 
ATOM     26  C   LIG    1       22.926 -24.338   6.704  0.00  0.00    +0.002 A 
ATOM     27  C   LIG    1       23.193 -22.974   6.568  0.00  0.00    +0.004 A 
BRANCH  24  28
ATOM     28  N   LIG    1       26.315 -25.765   6.310  0.00  0.00    -0.215 N 
ATOM     29  H   LIG    1       27.258 -25.373   6.330  0.00  0.00    +0.174 HD
BRANCH  28  30
ATOM     30  S   LIG    1       26.234 -26.975   5.111  0.00  0.00    +0.090 S 
ATOM     31  O   LIG    1       27.571 -27.370   4.756  0.00  0.00    -0.148 OA
ATOM     32  O   LIG    1       25.315 -26.488   4.090  0.00  0.00    -0.148 OA
BRANCH  30  33
ATOM     33  C   LIG    1       25.430 -28.378   5.911  0.00  0.00    +0.197 A 
ATOM     34  N   LIG    1       25.120 -29.418   5.088  0.00  0.00    -0.235 NA
ATOM     35  C   LIG    1       24.644 -30.534   5.695  0.00  0.00    +0.125 A 
ATOM     36  C   LIG    1       24.431 -30.653   7.066  0.00  0.00    +0.073 A 
ATOM     37  C   LIG    1       24.728 -29.543   7.867  0.00  0.00    +0.017 A 
ATOM     38  C   LIG    1       25.244 -28.381   7.289  0.00  0.00    +0.050 A 
BRANCH  36  39
ATOM     39  C   LIG    1       23.909 -31.944   7.630  0.00  0.00    +0.419 C 
ATOM     40  F   LIG    1       23.118 -31.755   8.722  0.00  0.00    -0.166 F 
ATOM     41  F   LIG    1       24.908 -32.776   8.032  0.00  0.00    -0.166 F 
ATOM     42  F   LIG    1       23.159 -32.661   6.747  0.00  0.00    -0.166 F 
ENDBRANCH  36  39
ENDBRANCH  30  33
ENDBRANCH  28  30
ENDBRANCH  24  28
ENDBRANCH   1  22
BRANCH   1  43
ATOM     43  C   LIG    1       23.639 -20.087   6.749  0.00  0.00    +0.010 C 
ATOM     44  C   LIG    1       22.662 -19.513   5.738  0.00  0.00    +0.005 C 
ENDBRANCH   1  43
TORSDOF 13
ENDMDL
MODEL 2
REMARK VINA RESULT:      -9.1      2.102      2.630
REMARK  Name = *****
REMARK                            x       y       z     vdW  Elec       q    Type
REMARK                         _______ _______ _______ _____ _____    ______ ____
ROOT
ATOM      1  C   LIG    1       25.029 -21.539   6.552  0.00  0.00    +0.059 C 
ENDROOT
BRANCH   1   6
ATOM      2  C   LIG    1       29.094 -20.131   7.724  0.00  0.00    +0.121 C 
ATOM      3  O   LIG    1       28.279 -21.081   8.442  0.00  0.00    -0.454 OA
ATOM      4  C   LIG    1       26.950 -21.232   8.268  0.00  0.00    +0.340 C 
ATOM      5  O   LIG    1       26.259 -21.633   9.197  0.00  0.00    -0.245 OA
ATOM      6  C   LIG    1       26.415 -20.983   6.911  0.00  0.00    +0.081 C 
ATOM      7  C   LIG    1       27.170 -20.294   6.037  0.00  0.00    +0.108 C 
ATOM      8  C   LIG    1       28.544 -19.779   6.325  0.00  0.00    +0.122 C 
BRANCH   7   9
ATOM      9  O   LIG    1       26.713 -20.071   4.745  0.00  0.00    -0.510 OA
ATOM     10  H   LIG    1       25.741 -20.132   4.726  0.00  0.00    +0.292 HD
ENDBRANCH   7   9
BRANCH   2  11
ATOM     11  C   LIG    1       30.496 -20.787   7.622  0.00  0.00    +0.048 C 
BRANCH  11  13
ATOM     12  C   LIG    1       31.541 -22.518   9.120  0.00  0.00    +0.004 C 
ATOM     13  C   LIG    1       31.178 -21.050   8.971  0.00  0.00    +0.001 C 
ENDBRANCH  11  13
ENDBRANCH   2  11
BRANCH   2  14
ATOM     14  C   LIG    1       29.189 -18.841   8.593  0.00  0.00    +0.053 C 
BRANCH  14  15
ATOM     15  C   LIG    1       30.323 -17.881   8.193  0.00  0.00    +0.039 C 
BRANCH  15  16
ATOM     16  C   LIG    1       31.066 -17.345   9.394  0.00  0.00    -0.047 A 
ATOM     17  C   LIG    1       32.277 -16.659   9.233  0.00  0.00    +0.003 A 
ATOM     18  C   LIG    1       32.967 -16.173  10.345  0.00  0.00    +0.000 A 
ATOM     19  C   LIG    1       32.449 -16.364  11.625  0.00  0.00    +0.000 A 
ATOM     20  C   LIG    1       31.242 -17.040  11.794  0.00  0.00    +0.000 A 
ATOM     21  C   LIG    1       30.551 -17.528  10.683  0.00  0.00    +0.003 A 
ENDBRANCH  15  16
ENDBRANCH  14  15
ENDBRANCH   2  14
ENDBRANCH   1   6
BRANCH   1  22
ATOM     22  C   LIG    1       25.096 -22.974   5.968  0.00  0.00    -0.038 A 
ATOM     23  C   LIG    1       25.580 -24.058   6.731  0.00  0.00    +0.028 A 
ATOM     24  C   LIG    1       25.651 -25.353   6.194  0.00  0.00    +0.048 A 
ATOM     25  C   LIG    1       25.260 -25.593   4.882  0.00  0.00    +0.024 A 
ATOM     26  C   LIG    1       24.807 -24.537   4.102  0.00  0.00    +0.002 A 
ATOM     27  C   LIG    1       24.732 -23.249   4.637  0.00  0.00    +0.004 A 
BRANCH  24  28
ATOM     28  N   LIG    1       26.070 -26.438   7.012  0.00  0.00    -0.215 N 
ATOM     29  H   LIG    1       27.078 -26.593   7.065  0.00  0.00    +0.174 HD
BRANCH  28  30
ATOM     30  S   LIG    1       25.282 -27.935   6.791  0.00  0.00    +0.090 S 
ATOM     31  O   LIG    1       25.975 -28.681   5.774  0.00  0.00    -0.148 OA
ATOM     32  O   LIG    1       23.862 -27.640   6.647  0.00  0.00    -0.148 OA
BRANCH  30  33
ATOM     33  C   LIG    1       25.478 -28.807   8.358  0.00  0.00    +0.197 A 
ATOM     34  N   LIG    1       26.481 -28.349   9.156  0.00  0.00    -0.235 NA
ATOM     35  C   LIG    1       26.554 -28.900  10.394  0.00  0.00    +0.125 A 
ATOM     36  C   LIG    1       25.703 -29.900  10.860  0.00  0.00    +0.073 A 
ATOM     37  C   LIG    1       24.711 -30.365   9.988  0.00  0.00    +0.017 A 
ATOM     38  C   LIG    1       24.583 -29.811   8.713  0.00  0.00    +0.050 A 
BRANCH  36  39
ATOM     39  C   LIG    1       25.870 -30.429  12.256  0.00  0.00    +0.419 C 
ATOM     40  F   LIG    1       24.957 -29.911  13.124  0.00  0.00    -0.166 F 
ATOM     41  F   LIG    1       27.091 -30.134  12.781  0.00  0.00    -0.166 F 
ATOM     42  F   LIG    1       25.743 -31.782  12.346  0.00  0.00    -0.166 F 
ENDBRANCH  36  39
ENDBRANCH  30  33
ENDBRANCH  28  30
ENDBRANCH  24  28
ENDBRANCH   1  22
BRANCH   1  43
ATOM     43  C   LIG    1       23.954 -21.405   7.673  0.00  0.00    +0.010 C 
ATOM     44  C   LIG    1       22.667 -22.184   7.463  0.00  0.00    +0.005 C 
ENDBRANCH   1  43
TORSDOF 13
ENDMDL
MODEL 3
REMARK VINA RESULT:      -9.0      5.737     10.110
REMARK  Name = *****
REMARK                            x       y       z     vdW  Elec       q    Type
REMARK                         _______ _______ _______ _____ _____    ______ ____
ROOT
ATOM      1  C   LIG    1       24.761 -31.201   9.505  0.00  0.00    +0.059 C 
ENDROOT
BRANCH   1   6
ATOM      2  C   LIG    1       26.216 -28.448  12.696  0.00  0.00    +0.121 C 
ATOM      3  O   LIG    1       25.024 -29.260  12.747  0.00  0.00    -0.454 OA
ATOM      4  C   LIG    1       24.428 -29.808  11.669  0.00  0.00    +0.340 C 
ATOM      5  O   LIG    1       23.221 -30.019  11.686  0.00  0.00    -0.245 OA
ATOM      6  C   LIG    1       25.303 -30.208  10.545  0.00  0.00    +0.081 C 
ATOM      7  C   LIG    1       26.548 -29.702  10.484  0.00  0.00    +0.108 C 
ATOM      8  C   LIG    1       27.135 -28.775  11.500  0.00  0.00    +0.122 C 
BRANCH   7   9
ATOM      9  O   LIG    1       27.406 -30.082   9.462  0.00  0.00    -0.510 OA
ATOM     10  H   LIG    1       27.875 -30.897   9.714  0.00  0.00    +0.292 HD
ENDBRANCH   7   9
BRANCH   2  11
ATOM     11  C   LIG    1       26.943 -28.702  14.043  0.00  0.00    +0.048 C 
BRANCH  11  13
ATOM     12  C   LIG    1       29.224 -29.740  14.266  0.00  0.00    +0.004 C 
ATOM     13  C   LIG    1       27.738 -30.012  14.103  0.00  0.00    +0.001 C 
ENDBRANCH  11  13
ENDBRANCH   2  11
BRANCH   2  14
ATOM     14  C   LIG    1       25.768 -26.957  12.624  0.00  0.00    +0.053 C 
BRANCH  14  15
ATOM     15  C   LIG    1       25.217 -26.388  13.943  0.00  0.00    +0.039 C 
BRANCH  15  16
ATOM     16  C   LIG    1       23.771 -26.765  14.166  0.00  0.00    -0.047 A 
ATOM     17  C   LIG    1       22.782 -26.359  13.260  0.00  0.00    +0.003 A 
ATOM     18  C   LIG    1       21.446 -26.701  13.472  0.00  0.00    +0.000 A 
ATOM     19  C   LIG    1       21.087 -27.454  14.588  0.00  0.00    +0.000 A 
ATOM     20  C   LIG    1       22.065 -27.867  15.492  0.00  0.00    +0.000 A 
ATOM     21  C   LIG    1       23.402 -27.526  15.282  0.00  0.00    +0.003 A 
ENDBRANCH  15  16
ENDBRANCH  14  15
ENDBRANCH   2  14
ENDBRANCH   1   6
BRANCH   1  22
ATOM     22  C   LIG    1       24.867 -30.661   8.055  0.00  0.00    -0.038 A 
ATOM     23  C   LIG    1       24.547 -29.324   7.741  0.00  0.00    +0.028 A 
ATOM     24  C   LIG    1       24.633 -28.843   6.425  0.00  0.00    +0.048 A 
ATOM     25  C   LIG    1       25.022 -29.688   5.392  0.00  0.00    +0.024 A 
ATOM     26  C   LIG    1       25.315 -31.017   5.672  0.00  0.00    +0.002 A 
ATOM     27  C   LIG    1       25.234 -31.494   6.982  0.00  0.00    +0.004 A 
BRANCH  24  28
ATOM     28  N   LIG    1       24.378 -27.472   6.151  0.00  0.00    -0.215 N 
ATOM     29  H   LIG    1       23.853 -27.277   5.298  0.00  0.00    +0.174 HD
BRANCH  28  30
ATOM     30  S   LIG    1       25.695 -26.393   6.259  0.00  0.00    +0.090 S 
ATOM     31  O   LIG    1       26.419 -26.417   5.015  0.00  0.00    -0.148 OA
ATOM     32  O   LIG    1       26.376 -26.693   7.512  0.00  0.00    -0.148 OA
BRANCH  30  33
ATOM     33  C   LIG    1       24.954 -24.759   6.445  0.00  0.00    +0.197 A 
ATOM     34  N   LIG    1       25.826 -23.715   6.393  0.00  0.00    -0.235 NA
ATOM     35  C   LIG    1       25.271 -22.477   6.390  0.00  0.00    +0.125 A 
ATOM     36  C   LIG    1       23.903 -22.229   6.470  0.00  0.00    +0.073 A 
ATOM     37  C   LIG    1       23.048 -23.335   6.560  0.00  0.00    +0.017 A 
ATOM     38  C   LIG    1       23.572 -24.629   6.542  0.00  0.00    +0.050 A 
BRANCH  36  39
ATOM     39  C   LIG    1       23.400 -20.814   6.448  0.00  0.00    +0.419 C 
ATOM     40  F   LIG    1       24.223 -19.977   5.759  0.00  0.00    -0.166 F 
ATOM     41  F   LIG    1       23.289 -20.283   7.697  0.00  0.00    -0.166 F 
ATOM     42  F   LIG    1       22.170 -20.681   5.877  0.00  0.00    -0.166 F 
ENDBRANCH  36  39
ENDBRANCH  30  33
ENDBRANCH  28  30
ENDBRANCH  24  28
ENDBRANCH   1  22
BRANCH   1  43
ATOM     43  C   LIG    1       25.304 -32.656   9.637  0.00  0.00    +0.010 C 
ATOM     44  C   LIG    1       25.035 -33.353  10.960  0.00  0.00    +0.005 C 
ENDBRANCH   1  43
TORSDOF 13
ENDMDL
MODEL 4
REMARK VINA RESULT:      -8.9      5.340     10.850
REMARK  Name = *****
REMARK                            x       y       z     vdW  Elec       q    Type
REMARK                         _______ _______ _______ _____ _____    ______ ____
ROOT
ATOM      1  C   LIG    1       25.595 -27.383   6.021  0.00  0.00    +0.059 C 
ENDROOT
BRANCH   1   6
ATOM      2  C   LIG    1       24.431 -30.553   8.933  0.00  0.00    +0.121 C 
ATOM      3  O   LIG    1       24.053 -30.491   7.541  0.00  0.00    -0.454 OA
ATOM      4  C   LIG    1       24.122 -29.380   6.781  0.00  0.00    +0.340 C 
ATOM      5  O   LIG    1       23.351 -29.242   5.838  0.00  0.00    -0.245 OA
ATOM      6  C   LIG    1       25.205 -28.419   7.086  0.00  0.00    +0.081 C 
ATOM      7  C   LIG    1       25.820 -28.500   8.279  0.00  0.00    +0.108 C 
ATOM      8  C   LIG    1       25.510 -29.522   9.326  0.00  0.00    +0.122 C 
BRANCH   7   9
ATOM      9  O   LIG    1       26.863 -27.636   8.586  0.00  0.00    -0.510 OA
ATOM     10  H   LIG    1       27.715 -28.079   8.423  0.00  0.00    +0.292 HD
ENDBRANCH   7   9
BRANCH   2  11
ATOM     11  C   LIG    1       24.936 -32.002   9.157  0.00  0.00    +0.048 C 
BRANCH  11  13
ATOM     12  C   LIG    1       26.836 -32.617   7.625  0.00  0.00    +0.004 C 
ATOM     13  C   LIG    1       26.455 -32.176   9.028  0.00  0.00    +0.001 C 
ENDBRANCH  11  13
ENDBRANCH   2  11
BRANCH   2  14
ATOM     14  C   LIG    1       23.144 -30.318   9.781  0.00  0.00    +0.053 C 
BRANCH  14  15
ATOM     15  C   LIG    1       23.337 -30.485  11.298  0.00  0.00    +0.039 C 
BRANCH  15  16
ATOM     16  C   LIG    1       22.986 -29.228  12.059  0.00  0.00    -0.047 A 
ATOM     17  C   LIG    1       21.647 -28.863  12.250  0.00  0.00    +0.003 A 
ATOM     18  C   LIG    1       21.325 -27.696  12.945  0.00  0.00    +0.000 A 
ATOM     19  C   LIG    1       22.338 -26.888  13.459  0.00  0.00    +0.000 A 
ATOM     20  C   LIG    1       23.673 -27.247  13.279  0.00  0.00    +0.000 A 
ATOM     21  C   LIG    1       23.997 -28.413  12.583  0.00  0.00    +0.003 A 
ENDBRANCH  15  16
ENDBRANCH  14  15
ENDBRANCH   2  14
ENDBRANCH   1   6
BRANCH   1  22
ATOM     22  C   LIG    1       25.062 -25.964   6.347  0.00  0.00    -0.038 A 
ATOM     23  C   LIG    1       25.910 -24.957   6.854  0.00  0.00    +0.028 A 
ATOM     24  C   LIG    1       25.420 -23.678   7.160  0.00  0.00    +0.048 A 
ATOM     25  C   LIG    1       24.074 -23.380   6.986  0.00  0.00    +0.024 A 
ATOM     26  C   LIG    1       23.214 -24.364   6.516  0.00  0.00    +0.002 A 
ATOM     27  C   LIG    1       23.701 -25.635   6.207  0.00  0.00    +0.004 A 
BRANCH  24  28
ATOM     28  N   LIG    1       26.314 -22.661   7.596  0.00  0.00    -0.215 N 
ATOM     29  H   LIG    1       26.507 -22.636   8.598  0.00  0.00    +0.174 HD
BRANCH  28  30
ATOM     30  S   LIG    1       26.026 -21.074   7.039  0.00  0.00    +0.090 S 
ATOM     31  O   LIG    1       25.030 -20.460   7.877  0.00  0.00    -0.148 OA
ATOM     32  O   LIG    1       25.818 -21.170   5.600  0.00  0.00    -0.148 OA
BRANCH  30  33
ATOM     33  C   LIG    1       27.583 -20.198   7.286  0.00  0.00    +0.197 A 
ATOM     34  N   LIG    1       27.906 -19.939   8.583  0.00  0.00    -0.235 NA
ATOM     35  C   LIG    1       29.136 -19.408   8.795  0.00  0.00    +0.125 A 
ATOM     36  C   LIG    1       30.040 -19.092   7.783  0.00  0.00    +0.073 A 
ATOM     37  C   LIG    1       29.647 -19.341   6.462  0.00  0.00    +0.017 A 
ATOM     38  C   LIG    1       28.400 -19.910   6.198  0.00  0.00    +0.050 A 
BRANCH  36  39
ATOM     39  C   LIG    1       31.382 -18.516   8.136  0.00  0.00    +0.419 C 
ATOM     40  F   LIG    1       32.284 -18.635   7.124  0.00  0.00    -0.166 F 
ATOM     41  F   LIG    1       31.944 -19.131   9.212  0.00  0.00    -0.166 F 
ATOM     42  F   LIG    1       31.341 -17.190   8.445  0.00  0.00    -0.166 F 
ENDBRANCH  36  39
ENDBRANCH  30  33
ENDBRANCH  28  30
ENDBRANCH  24  28
ENDBRANCH   1  22
BRANCH   1  43
ATOM     43  C   LIG    1       27.104 -27.375   5.632  0.00  0.00    +0.010 C 
ATOM     44  C   LIG    1       27.413 -27.364   4.145  0.00  0.00    +0.005 C 
ENDBRANCH   1  43
TORSDOF 13
ENDMDL
MODEL 5
REMARK VINA RESULT:      -8.8      5.698      9.676
REMARK  Name = *****
REMARK                            x       y       z     vdW  Elec       q    Type
REMARK                         _______ _______ _______ _____ _____    ______ ____
ROOT
ATOM      1  C   LIG    1       24.045 -31.476   8.976  0.00  0.00    +0.059 C 
ENDROOT
BRANCH   1   6
ATOM      2  C   LIG    1       25.218 -29.288  12.679  0.00  0.00    +0.121 C 
ATOM      3  O   LIG    1       23.915 -29.834  12.386  0.00  0.00    -0.454 OA
ATOM      4  C   LIG    1       23.492 -30.179  11.153  0.00  0.00    +0.340 C 
ATOM      5  O   LIG    1       22.296 -30.134  10.888  0.00  0.00    -0.245 OA
ATOM      6  C   LIG    1       24.511 -30.684  10.207  0.00  0.00    +0.081 C 
ATOM      7  C   LIG    1       25.808 -30.447  10.469  0.00  0.00    +0.108 C 
ATOM      8  C   LIG    1       26.310 -29.727  11.680  0.00  0.00    +0.122 C 
BRANCH   7   9
ATOM      9  O   LIG    1       26.792 -30.936   9.621  0.00  0.00    -0.510 OA
ATOM     10  H   LIG    1       27.475 -31.396  10.141  0.00  0.00    +0.292 HD
ENDBRANCH   7   9
BRANCH   2  11
ATOM     11  C   LIG    1       25.552 -29.770  14.116  0.00  0.00    +0.048 C 
BRANCH  11  13
ATOM     12  C   LIG    1       25.853 -32.249  14.426  0.00  0.00    +0.004 C 
ATOM     13  C   LIG    1       24.878 -31.087  14.521  0.00  0.00    +0.001 C 
ENDBRANCH  11  13
ENDBRANCH   2  11
BRANCH   2  14
ATOM     14  C   LIG    1       25.091 -27.735  12.672  0.00  0.00    +0.053 C 
BRANCH  14  15
ATOM     15  C   LIG    1       26.429 -26.982  12.567  0.00  0.00    +0.039 C 
BRANCH  15  16
ATOM     16  C   LIG    1       26.506 -25.822  13.531  0.00  0.00    -0.047 A 
ATOM     17  C   LIG    1       25.372 -25.046  13.803  0.00  0.00    +0.003 A 
ATOM     18  C   LIG    1       25.447 -23.968  14.686  0.00  0.00    +0.000 A 
ATOM     19  C   LIG    1       26.656 -23.660  15.309  0.00  0.00    +0.000 A 
ATOM     20  C   LIG    1       27.788 -24.429  15.048  0.00  0.00    +0.000 A 
ATOM     21  C   LIG    1       27.715 -25.507  14.164  0.00  0.00    +0.003 A 
ENDBRANCH  15  16
ENDBRANCH  14  15
ENDBRANCH   2  14
ENDBRANCH   1   6
BRANCH   1  22
ATOM     22  C   LIG    1       24.453 -30.797   7.643  0.00  0.00    -0.038 A 
ATOM     23  C   LIG    1       24.158 -29.441   7.386  0.00  0.00    +0.028 A 
ATOM     24  C   LIG    1       24.517 -28.834   6.173  0.00  0.00    +0.048 A 
ATOM     25  C   LIG    1       25.160 -29.567   5.183  0.00  0.00    +0.024 A 
ATOM     26  C   LIG    1       25.436 -30.911   5.400  0.00  0.00    +0.002 A 
ATOM     27  C   LIG    1       25.082 -31.515   6.609  0.00  0.00    +0.004 A 
BRANCH  24  28
ATOM     28  N   LIG    1       24.276 -27.447   5.974  0.00  0.00    -0.215 N 
ATOM     29  H   LIG    1       23.717 -27.204   5.155  0.00  0.00    +0.174 HD
BRANCH  28  30
ATOM     30  S   LIG    1       25.617 -26.396   6.072  0.00  0.00    +0.090 S 
ATOM     31  O   LIG    1       26.302 -26.397   4.806  0.00  0.00    -0.148 OA
ATOM     32  O   LIG    1       26.329 -26.744   7.295  0.00  0.00    -0.148 OA
BRANCH  30  33
ATOM     33  C   LIG    1       24.912 -24.755   6.326  0.00  0.00    +0.197 A 
ATOM     34  N   LIG    1       25.784 -23.719   6.182  0.00  0.00    -0.235 NA
ATOM     35  C   LIG    1       25.244 -22.476   6.231  0.00  0.00    +0.125 A 
ATOM     36  C   LIG    1       23.893 -22.215   6.449  0.00  0.00    +0.073 A 
ATOM     37  C   LIG    1       23.041 -23.312   6.631  0.00  0.00    +0.017 A 
ATOM     38  C   LIG    1       23.550 -24.612   6.563  0.00  0.00    +0.050 A 
BRANCH  36  39
ATOM     39  C   LIG    1       23.403 -20.795   6.474  0.00  0.00    +0.419 C 
ATOM     40  F   LIG    1       22.212 -20.642   5.831  0.00  0.00    -0.166 F 
ATOM     41  F   LIG    1       24.268 -19.937   5.866  0.00  0.00    -0.166 F 
ATOM     42  F   LIG    1       23.214 -20.305   7.731  0.00  0.00    -0.166 F 
ENDBRANCH  36  39
ENDBRANCH  30  33
ENDBRANCH  28  30
ENDBRANCH  24  28
ENDBRANCH   1  22
BRANCH   1  43
ATOM     43  C   LIG    1       24.397 -32.995   8.998  0.00  0.00    +0.010 C 
ATOM     44  C   LIG    1       23.714 -33.824  10.072  0.00  0.00    +0.005 C 
ENDBRANCH   1  43
TORSDOF 13
ENDMDL
MODEL 6
REMARK VINA RESULT:      -8.8      5.695     10.485
REMARK  Name = *****
REMARK                            x       y       z     vdW  Elec       q    Type
REMARK                         _______ _______ _______ _____ _____    ______ ____
ROOT
ATOM      1  C   LIG    1       25.465 -27.633   5.997  0.00  0.00    +0.059 C 
ENDROOT
BRANCH   1   6
ATOM      2  C   LIG    1       24.347 -30.642   9.092  0.00  0.00    +0.121 C 
ATOM      3  O   LIG    1       23.987 -30.679   7.695  0.00  0.00    -0.454 OA
ATOM      4  C   LIG    1       24.036 -29.617   6.866  0.00  0.00    +0.340 C 
ATOM      5  O   LIG    1       23.275 -29.561   5.907  0.00  0.00    -0.245 OA
ATOM      6  C   LIG    1       25.089 -28.609   7.122  0.00  0.00    +0.081 C 
ATOM      7  C   LIG    1       25.690 -28.596   8.325  0.00  0.00    +0.108 C 
ATOM      8  C   LIG    1       25.393 -29.558   9.431  0.00  0.00    +0.122 C 
BRANCH   7   9
ATOM      9  O   LIG    1       26.705 -27.686   8.588  0.00  0.00    -0.510 OA
ATOM     10  H   LIG    1       27.143 -27.435   7.756  0.00  0.00    +0.292 HD
ENDBRANCH   7   9
BRANCH   2  11
ATOM     11  C   LIG    1       24.889 -32.059   9.415  0.00  0.00    +0.048 C 
BRANCH  11  13
ATOM     12  C   LIG    1       26.878 -32.595   7.970  0.00  0.00    +0.004 C 
ATOM     13  C   LIG    1       26.417 -32.187   9.359  0.00  0.00    +0.001 C 
ENDBRANCH  11  13
ENDBRANCH   2  11
BRANCH   2  14
ATOM     14  C   LIG    1       23.044 -30.389   9.908  0.00  0.00    +0.053 C 
BRANCH  14  15
ATOM     15  C   LIG    1       23.213 -30.487  11.434  0.00  0.00    +0.039 C 
BRANCH  15  16
ATOM     16  C   LIG    1       22.841 -29.201  12.132  0.00  0.00    -0.047 A 
ATOM     17  C   LIG    1       21.497 -28.835  12.281  0.00  0.00    +0.003 A 
ATOM     18  C   LIG    1       21.155 -27.641  12.918  0.00  0.00    +0.000 A 
ATOM     19  C   LIG    1       22.154 -26.806  13.417  0.00  0.00    +0.000 A 
ATOM     20  C   LIG    1       23.493 -27.165  13.279  0.00  0.00    +0.000 A 
ATOM     21  C   LIG    1       23.837 -28.358  12.641  0.00  0.00    +0.003 A 
ENDBRANCH  15  16
ENDBRANCH  14  15
ENDBRANCH   2  14
ENDBRANCH   1   6
BRANCH   1  22
ATOM     22  C   LIG    1       25.087 -26.167   6.330  0.00  0.00    -0.038 A 
ATOM     23  C   LIG    1       26.051 -25.242   6.782  0.00  0.00    +0.028 A 
ATOM     24  C   LIG    1       25.701 -23.919   7.095  0.00  0.00    +0.048 A 
ATOM     25  C   LIG    1       24.383 -23.495   6.983  0.00  0.00    +0.024 A 
ATOM     26  C   LIG    1       23.410 -24.395   6.567  0.00  0.00    +0.002 A 
ATOM     27  C   LIG    1       23.758 -25.710   6.252  0.00  0.00    +0.004 A 
BRANCH  24  28
ATOM     28  N   LIG    1       26.708 -22.989   7.474  0.00  0.00    -0.215 N 
ATOM     29  H   LIG    1       27.460 -23.359   8.056  0.00  0.00    +0.174 HD
BRANCH  28  30
ATOM     30  S   LIG    1       26.192 -21.491   8.107  0.00  0.00    +0.090 S 
ATOM     31  O   LIG    1       27.325 -20.609   8.199  0.00  0.00    -0.148 OA
ATOM     32  O   LIG    1       25.395 -21.791   9.290  0.00  0.00    -0.148 OA
BRANCH  30  33
ATOM     33  C   LIG    1       25.061 -20.821   6.871  0.00  0.00    +0.197 A 
ATOM     34  N   LIG    1       23.775 -20.656   7.288  0.00  0.00    -0.235 NA
ATOM     35  C   LIG    1       22.945 -20.026   6.420  0.00  0.00    +0.125 A 
ATOM     36  C   LIG    1       23.321 -19.585   5.153  0.00  0.00    +0.073 A 
ATOM     37  C   LIG    1       24.644 -19.812   4.754  0.00  0.00    +0.017 A 
ATOM     38  C   LIG    1       25.541 -20.436   5.625  0.00  0.00    +0.050 A 
BRANCH  36  39
ATOM     39  C   LIG    1       22.318 -18.888   4.279  0.00  0.00    +0.419 C 
ATOM     40  F   LIG    1       21.114 -19.523   4.256  0.00  0.00    -0.166 F 
ATOM     41  F   LIG    1       22.725 -18.811   2.982  0.00  0.00    -0.166 F 
ATOM     42  F   LIG    1       22.056 -17.607   4.663  0.00  0.00    -0.166 F 
ENDBRANCH  36  39
ENDBRANCH  30  33
ENDBRANCH  28  30
ENDBRANCH  24  28
ENDBRANCH   1  22
BRANCH   1  43
ATOM     43  C   LIG    1       26.927 -27.764   5.474  0.00  0.00    +0.010 C 
ATOM     44  C   LIG    1       27.179 -27.270   4.060  0.00  0.00    +0.005 C 
ENDBRANCH   1  43
TORSDOF 13
ENDMDL
MODEL 7
REMARK VINA RESULT:      -8.5      5.623     10.636
REMARK  Name = *****
REMARK                            x       y       z     vdW  Elec       q    Type
REMARK                         _______ _______ _______ _____ _____    ______ ____
ROOT
ATOM      1  C   LIG    1       24.312 -31.132   9.789  0.00  0.00    +0.059 C 
ENDROOT
BRANCH   1   6
ATOM      2  C   LIG    1       26.349 -28.259  12.523  0.00  0.00    +0.121 C 
ATOM      3  O   LIG    1       26.954 -28.961  11.417  0.00  0.00    -0.454 OA
ATOM      4  C   LIG    1       26.431 -30.057  10.830  0.00  0.00    +0.340 C 
ATOM      5  O   LIG    1       27.175 -30.872  10.298  0.00  0.00    -0.245 OA
ATOM      6  C   LIG    1       24.956 -30.161  10.790  0.00  0.00    +0.081 C 
ATOM      7  C   LIG    1       24.232 -29.388  11.619  0.00  0.00    +0.108 C 
ATOM      8  C   LIG    1       24.812 -28.392  12.572  0.00  0.00    +0.122 C 
BRANCH   7   9
ATOM      9  O   LIG    1       22.845 -29.436  11.584  0.00  0.00    -0.510 OA
ATOM     10  H   LIG    1       22.492 -28.557  11.355  0.00  0.00    +0.292 HD
ENDBRANCH   7   9
BRANCH   2  11
ATOM     11  C   LIG    1       26.775 -26.778  12.352  0.00  0.00    +0.048 C 
BRANCH  11  13
ATOM     12  C   LIG    1       27.538 -25.195  14.153  0.00  0.00    +0.004 C 
ATOM     13  C   LIG    1       26.337 -25.851  13.493  0.00  0.00    +0.001 C 
ENDBRANCH  11  13
ENDBRANCH   2  11
BRANCH   2  14
ATOM     14  C   LIG    1       26.969 -28.826  13.836  0.00  0.00    +0.053 C 
BRANCH  14  15
ATOM     15  C   LIG    1       25.941 -29.309  14.874  0.00  0.00    +0.039 C 
BRANCH  15  16
ATOM     16  C   LIG    1       25.808 -30.813  14.887  0.00  0.00    -0.047 A 
ATOM     17  C   LIG    1       24.543 -31.416  14.851  0.00  0.00    +0.003 A 
ATOM     18  C   LIG    1       24.422 -32.806  14.873  0.00  0.00    +0.000 A 
ATOM     19  C   LIG    1       25.563 -33.605  14.926  0.00  0.00    +0.000 A 
ATOM     20  C   LIG    1       26.825 -33.014  14.957  0.00  0.00    +0.000 A 
ATOM     21  C   LIG    1       26.948 -31.624  14.936  0.00  0.00    +0.003 A 
ENDBRANCH  15  16
ENDBRANCH  14  15
ENDBRANCH   2  14
ENDBRANCH   1   6
BRANCH   1  22
ATOM     22  C   LIG    1       24.563 -30.721   8.315  0.00  0.00    -0.038 A 
ATOM     23  C   LIG    1       24.266 -29.422   7.852  0.00  0.00    +0.028 A 
ATOM     24  C   LIG    1       24.483 -29.058   6.513  0.00  0.00    +0.048 A 
ATOM     25  C   LIG    1       24.981 -29.985   5.605  0.00  0.00    +0.024 A 
ATOM     26  C   LIG    1       25.254 -31.278   6.031  0.00  0.00    +0.002 A 
ATOM     27  C   LIG    1       25.043 -31.639   7.363  0.00  0.00    +0.004 A 
BRANCH  24  28
ATOM     28  N   LIG    1       24.247 -27.720   6.094  0.00  0.00    -0.215 N 
ATOM     29  H   LIG    1       23.651 -27.609   5.273  0.00  0.00    +0.174 HD
BRANCH  28  30
ATOM     30  S   LIG    1       25.603 -26.695   5.947  0.00  0.00    +0.090 S 
ATOM     31  O   LIG    1       25.992 -26.632   4.564  0.00  0.00    -0.148 OA
ATOM     32  O   LIG    1       26.559 -27.122   6.961  0.00  0.00    -0.148 OA
BRANCH  30  33
ATOM     33  C   LIG    1       25.014 -25.062   6.439  0.00  0.00    +0.197 A 
ATOM     34  N   LIG    1       25.988 -24.145   6.694  0.00  0.00    -0.235 NA
ATOM     35  C   LIG    1       25.565 -22.878   6.928  0.00  0.00    +0.125 A 
ATOM     36  C   LIG    1       24.227 -22.489   6.954  0.00  0.00    +0.073 A 
ATOM     37  C   LIG    1       23.260 -23.475   6.724  0.00  0.00    +0.017 A 
ATOM     38  C   LIG    1       23.651 -24.789   6.454  0.00  0.00    +0.050 A 
BRANCH  36  39
ATOM     39  C   LIG    1       23.875 -21.052   7.214  0.00  0.00    +0.419 C 
ATOM     40  F   LIG    1       24.927 -20.333   7.691  0.00  0.00    -0.166 F 
ATOM     41  F   LIG    1       22.883 -20.919   8.137  0.00  0.00    -0.166 F 
ATOM     42  F   LIG    1       23.442 -20.387   6.106  0.00  0.00    -0.166 F 
ENDBRANCH  36  39
ENDBRANCH  30  33
ENDBRANCH  28  30
ENDBRANCH  24  28
ENDBRANCH   1  22
BRANCH   1  43
ATOM     43  C   LIG    1       24.618 -32.639  10.044  0.00  0.00    +0.010 C 
ATOM     44  C   LIG    1       23.990 -33.250  11.285  0.00  0.00    +0.005 C 
ENDBRANCH   1  43
TORSDOF 13
ENDMDL
MODEL 8
REMARK VINA RESULT:      -8.4      5.700     11.363
REMARK  Name = *****
REMARK                            x       y       z     vdW  Elec       q    Type
REMARK                         _______ _______ _______ _____ _____    ______ ____
ROOT
ATOM      1  C   LIG    1       25.844 -31.176   9.289  0.00  0.00    +0.059 C 
ENDROOT
BRANCH   1   6
ATOM      2  C   LIG    1       22.167 -32.414  11.486  0.00  0.00    +0.121 C 
ATOM      3  O   LIG    1       22.219 -31.578  10.310  0.00  0.00    -0.454 OA
ATOM      4  C   LIG    1       23.326 -30.946   9.872  0.00  0.00    +0.340 C 
ATOM      5  O   LIG    1       23.217 -29.903   9.238  0.00  0.00    -0.245 OA
ATOM      6  C   LIG    1       24.625 -31.612  10.115  0.00  0.00    +0.081 C 
ATOM      7  C   LIG    1       24.686 -32.588  11.038  0.00  0.00    +0.108 C 
ATOM      8  C   LIG    1       23.516 -33.081  11.829  0.00  0.00    +0.122 C 
BRANCH   7   9
ATOM      9  O   LIG    1       25.880 -33.258  11.268  0.00  0.00    -0.510 OA
ATOM     10  H   LIG    1       26.629 -32.682  11.032  0.00  0.00    +0.292 HD
ENDBRANCH   7   9
BRANCH   2  11
ATOM     11  C   LIG    1       21.079 -33.478  11.185  0.00  0.00    +0.048 C 
BRANCH  11  13
ATOM     12  C   LIG    1       18.931 -32.907  10.006  0.00  0.00    +0.004 C 
ATOM     13  C   LIG    1       20.384 -33.316   9.827  0.00  0.00    +0.001 C 
ENDBRANCH  11  13
ENDBRANCH   2  11
BRANCH   2  14
ATOM     14  C   LIG    1       21.702 -31.522  12.677  0.00  0.00    +0.053 C 
BRANCH  14  15
ATOM     15  C   LIG    1       20.849 -30.306  12.274  0.00  0.00    +0.039 C 
BRANCH  15  16
ATOM     16  C   LIG    1       21.511 -29.000  12.641  0.00  0.00    -0.047 A 
ATOM     17  C   LIG    1       22.903 -28.922  12.783  0.00  0.00    +0.003 A 
ATOM     18  C   LIG    1       23.512 -27.715  13.131  0.00  0.00    +0.000 A 
ATOM     19  C   LIG    1       22.736 -26.576  13.336  0.00  0.00    +0.000 A 
ATOM     20  C   LIG    1       21.351 -26.642  13.191  0.00  0.00    +0.000 A 
ATOM     21  C   LIG    1       20.740 -27.848  12.844  0.00  0.00    +0.003 A 
ENDBRANCH  15  16
ENDBRANCH  14  15
ENDBRANCH   2  14
ENDBRANCH   1   6
BRANCH   1  22
ATOM     22  C   LIG    1       25.461 -30.725   7.855  0.00  0.00    -0.038 A 
ATOM     23  C   LIG    1       25.179 -29.375   7.558  0.00  0.00    +0.028 A 
ATOM     24  C   LIG    1       24.820 -28.974   6.262  0.00  0.00    +0.048 A 
ATOM     25  C   LIG    1       24.717 -29.909   5.239  0.00  0.00    +0.024 A 
ATOM     26  C   LIG    1       24.962 -31.249   5.513  0.00  0.00    +0.002 A 
ATOM     27  C   LIG    1       25.323 -31.648   6.802  0.00  0.00    +0.004 A 
BRANCH  24  28
ATOM     28  N   LIG    1       24.616 -27.596   5.976  0.00  0.00    -0.215 N 
ATOM     29  H   LIG    1       24.259 -27.382   5.044  0.00  0.00    +0.174 HD
BRANCH  28  30
ATOM     30  S   LIG    1       25.887 -26.522   6.351  0.00  0.00    +0.090 S 
ATOM     31  O   LIG    1       26.800 -26.474   5.240  0.00  0.00    -0.148 OA
ATOM     32  O   LIG    1       26.363 -26.889   7.679  0.00  0.00    -0.148 OA
BRANCH  30  33
ATOM     33  C   LIG    1       25.107 -24.903   6.506  0.00  0.00    +0.197 A 
ATOM     34  N   LIG    1       25.961 -23.843   6.503  0.00  0.00    -0.235 NA
ATOM     35  C   LIG    1       25.385 -22.615   6.477  0.00  0.00    +0.125 A 
ATOM     36  C   LIG    1       24.010 -22.392   6.487  0.00  0.00    +0.073 A 
ATOM     37  C   LIG    1       23.172 -23.514   6.529  0.00  0.00    +0.017 A 
ATOM     38  C   LIG    1       23.720 -24.798   6.532  0.00  0.00    +0.050 A 
BRANCH  36  39
ATOM     39  C   LIG    1       23.482 -20.986   6.446  0.00  0.00    +0.419 C 
ATOM     40  F   LIG    1       22.291 -20.894   5.792  0.00  0.00    -0.166 F 
ATOM     41  F   LIG    1       24.327 -20.134   5.804  0.00  0.00    -0.166 F 
ATOM     42  F   LIG    1       23.272 -20.446   7.678  0.00  0.00    -0.166 F 
ENDBRANCH  36  39
ENDBRANCH  30  33
ENDBRANCH  28  30
ENDBRANCH  24  28
ENDBRANCH   1  22
BRANCH   1  43
ATOM     43  C   LIG    1       26.790 -30.159   9.997  0.00  0.00    +0.010 C 
ATOM     44  C   LIG    1       26.175 -29.344  11.122  0.00  0.00    +0.005 C 
ENDBRANCH   1  43
TORSDOF 13
ENDMDL
MODEL 9
REMARK VINA RESULT:      -8.2      5.804     10.842
REMARK  Name = *****
REMARK                            x       y       z     vdW  Elec       q    Type
REMARK                         _______ _______ _______ _____ _____    ______ ____
ROOT
ATOM      1  C   LIG    1       24.525 -22.398   6.101  0.00  0.00    +0.059 C 
ENDROOT
BRANCH   1   6
ATOM      2  C   LIG    1       25.058 -26.822   6.276  0.00  0.00    +0.121 C 
ATOM      3  O   LIG    1       23.819 -26.119   6.045  0.00  0.00    -0.454 OA
ATOM      4  C   LIG    1       23.615 -24.817   6.331  0.00  0.00    +0.340 C 
ATOM      5  O   LIG    1       22.486 -24.426   6.603  0.00  0.00    -0.245 OA
ATOM      6  C   LIG    1       24.777 -23.910   6.209  0.00  0.00    +0.081 C 
ATOM      7  C   LIG    1       26.012 -24.443   6.180  0.00  0.00    +0.108 C 
ATOM      8  C   LIG    1       26.303 -25.909   6.231  0.00  0.00    +0.122 C 
BRANCH   7   9
ATOM      9  O   LIG    1       27.123 -23.624   6.034  0.00  0.00    -0.510 OA
ATOM     10  H   LIG    1       27.931 -24.167   6.023  0.00  0.00    +0.292 HD
ENDBRANCH   7   9
BRANCH   2  11
ATOM     11  C   LIG    1       25.125 -27.910   5.173  0.00  0.00    +0.048 C 
BRANCH  11  13
ATOM     12  C   LIG    1       25.379 -30.401   5.426  0.00  0.00    +0.004 C 
ATOM     13  C   LIG    1       24.421 -29.225   5.529  0.00  0.00    +0.001 C 
ENDBRANCH  11  13
ENDBRANCH   2  11
BRANCH   2  14
ATOM     14  C   LIG    1       24.958 -27.507   7.672  0.00  0.00    +0.053 C 
BRANCH  14  15
ATOM     15  C   LIG    1       26.310 -27.906   8.290  0.00  0.00    +0.039 C 
BRANCH  15  16
ATOM     16  C   LIG    1       26.154 -28.927   9.391  0.00  0.00    -0.047 A 
ATOM     17  C   LIG    1       25.174 -29.925   9.303  0.00  0.00    +0.003 A 
ATOM     18  C   LIG    1       25.025 -30.862  10.326  0.00  0.00    +0.000 A 
ATOM     19  C   LIG    1       25.857 -30.813  11.443  0.00  0.00    +0.000 A 
ATOM     20  C   LIG    1       26.839 -29.828  11.537  0.00  0.00    +0.000 A 
ATOM     21  C   LIG    1       26.988 -28.889  10.515  0.00  0.00    +0.003 A 
ENDBRANCH  15  16
ENDBRANCH  14  15
ENDBRANCH   2  14
ENDBRANCH   1   6
BRANCH   1  22
ATOM     22  C   LIG    1       25.395 -21.578   7.088  0.00  0.00    -0.038 A 
ATOM     23  C   LIG    1       26.544 -20.882   6.655  0.00  0.00    +0.028 A 
ATOM     24  C   LIG    1       27.335 -20.151   7.554  0.00  0.00    +0.048 A 
ATOM     25  C   LIG    1       27.011 -20.112   8.905  0.00  0.00    +0.024 A 
ATOM     26  C   LIG    1       25.901 -20.812   9.360  0.00  0.00    +0.002 A 
ATOM     27  C   LIG    1       25.111 -21.536   8.465  0.00  0.00    +0.004 A 
BRANCH  24  28
ATOM     28  N   LIG    1       28.443 -19.398   7.076  0.00  0.00    -0.215 N 
ATOM     29  H   LIG    1       28.424 -19.159   6.084  0.00  0.00    +0.174 HD
BRANCH  28  30
ATOM     30  S   LIG    1       30.003 -19.948   7.494  0.00  0.00    +0.090 S 
ATOM     31  O   LIG    1       30.837 -19.918   6.322  0.00  0.00    -0.148 OA
ATOM     32  O   LIG    1       29.821 -21.189   8.236  0.00  0.00    -0.148 OA
BRANCH  30  33
ATOM     33  C   LIG    1       30.635 -18.728   8.663  0.00  0.00    +0.197 A 
ATOM     34  N   LIG    1       29.912 -18.590   9.808  0.00  0.00    -0.235 NA
ATOM     35  C   LIG    1       30.448 -17.782  10.756  0.00  0.00    +0.125 A 
ATOM     36  C   LIG    1       31.643 -17.082  10.607  0.00  0.00    +0.073 A 
ATOM     37  C   LIG    1       32.332 -17.225   9.396  0.00  0.00    +0.017 A 
ATOM     38  C   LIG    1       31.830 -18.067   8.401  0.00  0.00    +0.050 A 
BRANCH  36  39
ATOM     39  C   LIG    1       32.148 -16.222  11.731  0.00  0.00    +0.419 C 
ATOM     40  F   LIG    1       32.928 -16.912  12.608  0.00  0.00    -0.166 F 
ATOM     41  F   LIG    1       31.137 -15.688  12.470  0.00  0.00    -0.166 F 
ATOM     42  F   LIG    1       32.901 -15.166  11.313  0.00  0.00    -0.166 F 
ENDBRANCH  36  39
ENDBRANCH  30  33
ENDBRANCH  28  30
ENDBRANCH  24  28
ENDBRANCH   1  22
BRANCH   1  43
ATOM     43  C   LIG    1       24.572 -21.825   4.652  0.00  0.00    +0.010 C 
ATOM     44  C   LIG    1       23.718 -20.596   4.390  0.00  0.00    +0.005 C 
ENDBRANCH   1  43
TORSDOF 13
ENDMDL
