MODEL 1
REMARK VINA RESULT:      -4.4      0.000      0.000
REMARK  Name = *****
REMARK                            x       y       z     vdW  Elec       q    Type
REMARK                         _______ _______ _______ _____ _____    ______ ____
ROOT
ATOM      1  C   LIG    1       25.778 -20.766   6.720  0.00  0.00    +0.041 C 
ATOM      2  C   LIG    1       25.095 -20.344   5.423  0.00  0.00    +0.068 C 
ATOM      3  O   LIG    1       23.841 -19.724   5.778  0.00  0.00    -0.367 OA
ATOM      4  C   LIG    1       22.967 -19.502   4.649  0.00  0.00    +0.068 C 
ATOM      5  C   LIG    1       21.811 -20.507   4.805  0.00  0.00    +0.041 C 
ATOM      6  C   LIG    1       22.351 -18.097   4.752  0.00  0.00    +0.041 C 
ATOM      7  C   LIG    1       23.787 -19.664   3.335  0.00  0.00    +0.021 C 
ATOM      8  C   LIG    1       24.219 -21.131   3.196  0.00  0.00    +0.009 C 
ATOM      9  C   LIG    1       25.091 -18.831   3.433  0.00  0.00    +0.009 C 
ATOM     10  C   LIG    1       24.878 -21.571   4.509  0.00  0.00    +0.035 C 
ATOM     11  C   LIG    1       25.909 -19.293   4.651  0.00  0.00    +0.035 C 
ENDROOT
TORSDOF 0
ENDMDL
MODEL 2
REMARK VINA RESULT:      -4.4      5.860      7.153
REMARK  Name = *****
REMARK                            x       y       z     vdW  Elec       q    Type
REMARK                         _______ _______ _______ _____ _____    ______ ____
ROOT
ATOM      1  C   LIG    1       28.695 -12.910   3.689  0.00  0.00    +0.041 C 
ATOM      2  C   LIG    1       27.288 -13.482   3.816  0.00  0.00    +0.068 C 
ATOM      3  O   LIG    1       26.424 -12.697   2.967  0.00  0.00    -0.367 OA
ATOM      4  C   LIG    1       25.018 -12.958   3.175  0.00  0.00    +0.068 C 
ATOM      5  C   LIG    1       24.455 -11.703   3.867  0.00  0.00    +0.041 C 
ATOM      6  C   LIG    1       24.314 -13.066   1.812  0.00  0.00    +0.041 C 
ATOM      7  C   LIG    1       24.863 -14.270   3.997  0.00  0.00    +0.021 C 
ATOM      8  C   LIG    1       25.419 -14.041   5.410  0.00  0.00    +0.009 C 
ATOM      9  C   LIG    1       25.732 -15.385   3.360  0.00  0.00    +0.009 C 
ATOM     10  C   LIG    1       26.822 -13.436   5.289  0.00  0.00    +0.035 C 
ATOM     11  C   LIG    1       27.201 -14.934   3.318  0.00  0.00    +0.035 C 
ENDROOT
TORSDOF 0
ENDMDL
MODEL 3
REMARK VINA RESULT:      -4.4      5.661      7.460
REMARK  Name = *****
REMARK                            x       y       z     vdW  Elec       q    Type
REMARK                         _______ _______ _______ _____ _____    ______ ____
ROOT
ATOM      1  C   LIG    1       23.868 -11.694   5.171  0.00  0.00    +0.041 C 
ATOM      2  C   LIG    1       24.546 -12.755   4.311  0.00  0.00    +0.068 C 
ATOM      3  O   LIG    1       25.904 -12.888   4.780  0.00  0.00    -0.367 OA
ATOM      4  C   LIG    1       26.744 -13.671   3.903  0.00  0.00    +0.068 C 
ATOM      5  C   LIG    1       27.717 -12.673   3.250  0.00  0.00    +0.041 C 
ATOM      6  C   LIG    1       27.596 -14.637   4.743  0.00  0.00    +0.041 C 
ATOM      7  C   LIG    1       25.842 -14.444   2.896  0.00  0.00    +0.021 C 
ATOM      8  C   LIG    1       25.159 -13.433   1.963  0.00  0.00    +0.009 C 
ATOM      9  C   LIG    1       24.707 -15.165   3.666  0.00  0.00    +0.009 C 
ATOM     10  C   LIG    1       24.502 -12.345   2.821  0.00  0.00    +0.035 C 
ATOM     11  C   LIG    1       23.886 -14.136   4.460  0.00  0.00    +0.035 C 
ENDROOT
TORSDOF 0
ENDMDL
MODEL 4
REMARK VINA RESULT:      -4.0      5.493      6.532
REMARK  Name = *****
REMARK                            x       y       z     vdW  Elec       q    Type
REMARK                         _______ _______ _______ _____ _____    ______ ____
ROOT
ATOM      1  C   LIG    1       27.642 -13.417   6.104  0.00  0.00    +0.041 C 
ATOM      2  C   LIG    1       26.956 -13.659   4.764  0.00  0.00    +0.068 C 
ATOM      3  O   LIG    1       25.603 -13.170   4.877  0.00  0.00    -0.367 OA
ATOM      4  C   LIG    1       24.754 -13.559   3.774  0.00  0.00    +0.068 C 
ATOM      5  C   LIG    1       23.773 -14.600   4.344  0.00  0.00    +0.041 C 
ATOM      6  C   LIG    1       23.912 -12.351   3.332  0.00  0.00    +0.041 C 
ATOM      7  C   LIG    1       25.645 -14.083   2.611  0.00  0.00    +0.021 C 
ATOM      8  C   LIG    1       26.318 -15.392   3.050  0.00  0.00    +0.009 C 
ATOM      9  C   LIG    1       26.789 -13.072   2.340  0.00  0.00    +0.009 C 
ATOM     10  C   LIG    1       26.983 -15.164   4.412  0.00  0.00    +0.035 C 
ATOM     11  C   LIG    1       27.618 -12.875   3.619  0.00  0.00    +0.035 C 
ENDROOT
TORSDOF 0
ENDMDL
MODEL 5
REMARK VINA RESULT:      -3.9      5.424      6.934
REMARK  Name = *****
REMARK                            x       y       z     vdW  Elec       q    Type
REMARK                         _______ _______ _______ _____ _____    ______ ____
ROOT
ATOM      1  C   LIG    1       26.121 -16.712   3.257  0.00  0.00    +0.041 C 
ATOM      2  C   LIG    1       26.056 -15.199   3.430  0.00  0.00    +0.068 C 
ATOM      3  O   LIG    1       27.242 -14.794   4.145  0.00  0.00    -0.367 OA
ATOM      4  C   LIG    1       27.201 -13.425   4.606  0.00  0.00    +0.068 C 
ATOM      5  C   LIG    1       27.048 -13.500   6.136  0.00  0.00    +0.041 C 
ATOM      6  C   LIG    1       28.555 -12.754   4.326  0.00  0.00    +0.041 C 
ATOM      7  C   LIG    1       26.041 -12.683   3.879  0.00  0.00    +0.021 C 
ATOM      8  C   LIG    1       24.703 -13.278   4.340  0.00  0.00    +0.009 C 
ATOM      9  C   LIG    1       26.135 -12.944   2.354  0.00  0.00    +0.009 C 
ATOM     10  C   LIG    1       24.774 -14.803   4.198  0.00  0.00    +0.035 C 
ATOM     11  C   LIG    1       26.072 -14.456   2.084  0.00  0.00    +0.035 C 
ENDROOT
TORSDOF 0
ENDMDL
MODEL 6
REMARK VINA RESULT:      -3.9      1.173      2.834
REMARK  Name = *****
REMARK                            x       y       z     vdW  Elec       q    Type
REMARK                         _______ _______ _______ _____ _____    ______ ____
ROOT
ATOM      1  C   LIG    1       25.322 -17.886   3.311  0.00  0.00    +0.041 C 
ATOM      2  C   LIG    1       24.485 -19.070   3.780  0.00  0.00    +0.068 C 
ATOM      3  O   LIG    1       24.877 -19.365   5.137  0.00  0.00    -0.367 OA
ATOM      4  C   LIG    1       24.353 -20.619   5.630  0.00  0.00    +0.068 C 
ATOM      5  C   LIG    1       25.559 -21.572   5.725  0.00  0.00    +0.041 C 
ATOM      6  C   LIG    1       23.828 -20.423   7.062  0.00  0.00    +0.041 C 
ATOM      7  C   LIG    1       23.223 -21.105   4.676  0.00  0.00    +0.021 C 
ATOM      8  C   LIG    1       23.840 -21.461   3.315  0.00  0.00    +0.009 C 
ATOM      9  C   LIG    1       22.230 -19.943   4.416  0.00  0.00    +0.009 C 
ATOM     10  C   LIG    1       24.709 -20.286   2.852  0.00  0.00    +0.035 C 
ATOM     11  C   LIG    1       22.982 -18.747   3.811  0.00  0.00    +0.035 C 
ENDROOT
TORSDOF 0
ENDMDL
MODEL 7
REMARK VINA RESULT:      -3.8      0.912      3.320
REMARK  Name = *****
REMARK                            x       y       z     vdW  Elec       q    Type
REMARK                         _______ _______ _______ _____ _____    ______ ____
ROOT
ATOM      1  C   LIG    1       22.354 -17.707   4.794  0.00  0.00    +0.041 C 
ATOM      2  C   LIG    1       22.830 -19.149   4.649  0.00  0.00    +0.068 C 
ATOM      3  O   LIG    1       23.515 -19.502   5.870  0.00  0.00    -0.367 OA
ATOM      4  C   LIG    1       24.242 -20.748   5.785  0.00  0.00    +0.068 C 
ATOM      5  C   LIG    1       25.734 -20.367   5.781  0.00  0.00    +0.041 C 
ATOM      6  C   LIG    1       23.996 -21.568   7.062  0.00  0.00    +0.041 C 
ATOM      7  C   LIG    1       23.772 -21.521   4.518  0.00  0.00    +0.021 C 
ATOM      8  C   LIG    1       24.210 -20.742   3.268  0.00  0.00    +0.009 C 
ATOM      9  C   LIG    1       22.223 -21.568   4.485  0.00  0.00    +0.009 C 
ATOM     10  C   LIG    1       23.761 -19.284   3.423  0.00  0.00    +0.035 C 
ATOM     11  C   LIG    1       21.663 -20.136   4.492  0.00  0.00    +0.035 C 
ENDROOT
TORSDOF 0
ENDMDL
MODEL 8
REMARK VINA RESULT:      -3.7      1.206      2.456
REMARK  Name = *****
REMARK                            x       y       z     vdW  Elec       q    Type
REMARK                         _______ _______ _______ _____ _____    ______ ____
ROOT
ATOM      1  C   LIG    1       25.381 -17.903   3.632  0.00  0.00    +0.041 C 
ATOM      2  C   LIG    1       24.912 -19.303   4.014  0.00  0.00    +0.068 C 
ATOM      3  O   LIG    1       23.588 -19.177   4.574  0.00  0.00    -0.367 OA
ATOM      4  C   LIG    1       23.115 -20.383   5.214  0.00  0.00    +0.068 C 
ATOM      5  C   LIG    1       23.116 -20.088   6.725  0.00  0.00    +0.041 C 
ATOM      6  C   LIG    1       21.652 -20.632   4.811  0.00  0.00    +0.041 C 
ATOM      7  C   LIG    1       24.027 -21.572   4.790  0.00  0.00    +0.021 C 
ATOM      8  C   LIG    1       25.429 -21.357   5.378  0.00  0.00    +0.009 C 
ATOM      9  C   LIG    1       24.193 -21.572   3.248  0.00  0.00    +0.009 C 
ATOM     10  C   LIG    1       25.893 -19.939   5.024  0.00  0.00    +0.035 C 
ATOM     11  C   LIG    1       24.792 -20.231   2.794  0.00  0.00    +0.035 C 
ENDROOT
TORSDOF 0
ENDMDL
MODEL 9
REMARK VINA RESULT:      -3.5      5.941      7.678
REMARK  Name = *****
REMARK                            x       y       z     vdW  Elec       q    Type
REMARK                         _______ _______ _______ _____ _____    ______ ____
ROOT
ATOM      1  C   LIG    1       24.223 -11.461   1.812  0.00  0.00    +0.041 C 
ATOM      2  C   LIG    1       24.528 -12.384   2.986  0.00  0.00    +0.068 C 
ATOM      3  O   LIG    1       25.945 -12.659   2.962  0.00  0.00    -0.367 OA
ATOM      4  C   LIG    1       26.342 -13.720   3.859  0.00  0.00    +0.068 C 
ATOM      5  C   LIG    1       26.719 -14.913   2.961  0.00  0.00    +0.041 C 
ATOM      6  C   LIG    1       27.622 -13.304   4.603  0.00  0.00    +0.041 C 
ATOM      7  C   LIG    1       25.178 -14.005   4.853  0.00  0.00    +0.021 C 
ATOM      8  C   LIG    1       23.992 -14.593   4.074  0.00  0.00    +0.009 C 
ATOM      9  C   LIG    1       24.683 -12.670   5.465  0.00  0.00    +0.009 C 
ATOM     10  C   LIG    1       23.700 -13.685   2.874  0.00  0.00    +0.035 C 
ATOM     11  C   LIG    1       24.226 -11.725   4.342  0.00  0.00    +0.035 C 
ENDROOT
TORSDOF 0
ENDMDL
