MODEL 1
REMARK VINA RESULT:      -8.6      0.000      0.000
REMARK  Name = *****
REMARK                            x       y       z     vdW  Elec       q    Type
REMARK                         _______ _______ _______ _____ _____    ______ ____
ROOT
ATOM      1  O   LIG    1       27.568 -21.877   7.693  0.00  0.00    -0.488 OA
ENDROOT
BRANCH   1   5
ATOM      2  C   LIG    1       23.137 -20.349   6.420  0.00  0.00    +0.044 C 
ATOM      3  C   LIG    1       24.099 -21.479   6.640  0.00  0.00    -0.047 A 
ATOM      4  C   LIG    1       25.410 -21.218   7.065  0.00  0.00    +0.049 A 
ATOM      5  C   LIG    1       26.316 -22.260   7.279  0.00  0.00    +0.121 A 
ATOM      6  C   LIG    1       25.905 -23.575   7.060  0.00  0.00    +0.049 A 
ATOM      7  C   LIG    1       24.600 -23.858   6.632  0.00  0.00    -0.047 A 
ATOM      8  C   LIG    1       24.197 -25.282   6.382  0.00  0.00    +0.044 C 
ATOM      9  C   LIG    1       23.702 -22.806   6.428  0.00  0.00    +0.007 A 
ENDBRANCH   1   5
BRANCH   1  10
ATOM     10  C   LIG    1       28.111 -20.722   7.050  0.00  0.00    +0.275 C 
BRANCH  10  11
ATOM     11  C   LIG    1       29.275 -20.169   7.861  0.00  0.00    +0.232 C 
ATOM     12  O   LIG    1       29.802 -21.193   8.726  0.00  0.00    -0.442 OA
ATOM     13  C   LIG    1       31.165 -21.094   8.720  0.00  0.00    +0.401 C 
ATOM     14  O   LIG    1       31.916 -21.782   9.385  0.00  0.00    -0.227 OA
ATOM     15  N   LIG    1       31.556 -20.134   7.830  0.00  0.00    -0.278 N 
ATOM     16  H   LIG    1       32.534 -20.070   7.579  0.00  0.00    +0.152 HD
ATOM     17  C   LIG    1       30.457 -19.749   7.013  0.00  0.00    +0.155 C 
ENDBRANCH  10  11
ENDBRANCH   1  10
TORSDOF 3
ENDMDL
MODEL 2
REMARK VINA RESULT:      -8.6      0.237      2.166
REMARK  Name = *****
REMARK                            x       y       z     vdW  Elec       q    Type
REMARK                         _______ _______ _______ _____ _____    ______ ____
ROOT
ATOM      1  O   LIG    1       27.405 -21.836   7.689  0.00  0.00    -0.488 OA
ENDROOT
BRANCH   1   5
ATOM      2  C   LIG    1       24.037 -25.104   6.434  0.00  0.00    +0.044 C 
ATOM      3  C   LIG    1       24.447 -23.669   6.600  0.00  0.00    -0.047 A 
ATOM      4  C   LIG    1       25.730 -23.350   7.068  0.00  0.00    +0.049 A 
ATOM      5  C   LIG    1       26.127 -22.020   7.222  0.00  0.00    +0.121 A 
ATOM      6  C   LIG    1       25.227 -21.000   6.908  0.00  0.00    +0.049 A 
ATOM      7  C   LIG    1       23.939 -21.297   6.441  0.00  0.00    -0.047 A 
ATOM      8  C   LIG    1       22.988 -20.177   6.136  0.00  0.00    +0.044 C 
ATOM      9  C   LIG    1       23.558 -22.633   6.286  0.00  0.00    +0.007 A 
ENDBRANCH   1   5
BRANCH   1  10
ATOM     10  C   LIG    1       28.223 -20.943   6.931  0.00  0.00    +0.275 C 
BRANCH  10  11
ATOM     11  C   LIG    1       29.299 -20.335   7.820  0.00  0.00    +0.232 C 
ATOM     12  O   LIG    1       29.850 -21.345   8.687  0.00  0.00    -0.442 OA
ATOM     13  C   LIG    1       31.200 -21.151   8.761  0.00  0.00    +0.401 C 
ATOM     14  O   LIG    1       31.960 -21.805   9.449  0.00  0.00    -0.227 OA
ATOM     15  N   LIG    1       31.570 -20.141   7.919  0.00  0.00    -0.278 N 
ATOM     16  H   LIG    1       32.554 -20.002   7.726  0.00  0.00    +0.152 HD
ATOM     17  C   LIG    1       30.493 -19.809   7.051  0.00  0.00    +0.155 C 
ENDBRANCH  10  11
ENDBRANCH   1  10
TORSDOF 3
ENDMDL
MODEL 3
REMARK VINA RESULT:      -8.2      1.085      1.272
REMARK  Name = *****
REMARK                            x       y       z     vdW  Elec       q    Type
REMARK                         _______ _______ _______ _____ _____    ______ ____
ROOT
ATOM      1  O   LIG    1       27.337 -21.677   7.505  0.00  0.00    -0.488 OA
ENDROOT
BRANCH   1   5
ATOM      2  C   LIG    1       24.543 -19.627   4.102  0.00  0.00    +0.044 C 
ATOM      3  C   LIG    1       24.724 -20.663   5.173  0.00  0.00    -0.047 A 
ATOM      4  C   LIG    1       25.932 -20.744   5.881  0.00  0.00    +0.049 A 
ATOM      5  C   LIG    1       26.113 -21.698   6.885  0.00  0.00    +0.121 A 
ATOM      6  C   LIG    1       25.075 -22.585   7.176  0.00  0.00    +0.049 A 
ATOM      7  C   LIG    1       23.861 -22.524   6.477  0.00  0.00    -0.047 A 
ATOM      8  C   LIG    1       22.774 -23.508   6.798  0.00  0.00    +0.044 C 
ATOM      9  C   LIG    1       23.692 -21.559   5.480  0.00  0.00    +0.007 A 
ENDBRANCH   1   5
BRANCH   1  10
ATOM     10  C   LIG    1       28.374 -20.976   6.816  0.00  0.00    +0.275 C 
BRANCH  10  11
ATOM     11  C   LIG    1       29.342 -20.356   7.813  0.00  0.00    +0.232 C 
ATOM     12  O   LIG    1       29.916 -21.384   8.644  0.00  0.00    -0.442 OA
ATOM     13  C   LIG    1       31.240 -21.097   8.820  0.00  0.00    +0.401 C 
ATOM     14  O   LIG    1       32.006 -21.741   9.511  0.00  0.00    -0.227 OA
ATOM     15  N   LIG    1       31.580 -20.002   8.076  0.00  0.00    -0.278 N 
ATOM     16  H   LIG    1       32.560 -19.778   7.958  0.00  0.00    +0.152 HD
ATOM     17  C   LIG    1       30.536 -19.688   7.163  0.00  0.00    +0.155 C 
ENDBRANCH  10  11
ENDBRANCH   1  10
TORSDOF 3
ENDMDL
MODEL 4
REMARK VINA RESULT:      -8.2      1.232      2.298
REMARK  Name = *****
REMARK                            x       y       z     vdW  Elec       q    Type
REMARK                         _______ _______ _______ _____ _____    ______ ____
ROOT
ATOM      1  O   LIG    1       27.374 -21.310   7.315  0.00  0.00    -0.488 OA
ENDROOT
BRANCH   1   5
ATOM      2  C   LIG    1       22.921 -23.194   6.852  0.00  0.00    +0.044 C 
ATOM      3  C   LIG    1       23.964 -22.216   6.394  0.00  0.00    -0.047 A 
ATOM      4  C   LIG    1       25.213 -22.165   7.031  0.00  0.00    +0.049 A 
ATOM      5  C   LIG    1       26.196 -21.265   6.613  0.00  0.00    +0.121 A 
ATOM      6  C   LIG    1       25.921 -20.403   5.549  0.00  0.00    +0.049 A 
ATOM      7  C   LIG    1       24.678 -20.435   4.901  0.00  0.00    -0.047 A 
ATOM      8  C   LIG    1       24.406 -19.479   3.778  0.00  0.00    +0.044 C 
ATOM      9  C   LIG    1       23.707 -21.346   5.326  0.00  0.00    +0.007 A 
ENDBRANCH   1   5
BRANCH   1  10
ATOM     10  C   LIG    1       28.527 -20.819   6.629  0.00  0.00    +0.275 C 
BRANCH  10  11
ATOM     11  C   LIG    1       29.436 -20.074   7.597  0.00  0.00    +0.232 C 
ATOM     12  O   LIG    1       30.046 -21.003   8.514  0.00  0.00    -0.442 OA
ATOM     13  C   LIG    1       31.347 -20.629   8.695  0.00  0.00    +0.401 C 
ATOM     14  O   LIG    1       32.130 -21.177   9.447  0.00  0.00    -0.227 OA
ATOM     15  N   LIG    1       31.644 -19.575   7.878  0.00  0.00    -0.278 N 
ATOM     16  H   LIG    1       32.612 -19.304   7.763  0.00  0.00    +0.152 HD
ATOM     17  C   LIG    1       30.606 -19.389   6.923  0.00  0.00    +0.155 C 
ENDBRANCH  10  11
ENDBRANCH   1  10
TORSDOF 3
ENDMDL
MODEL 5
REMARK VINA RESULT:      -7.9      2.097      2.636
REMARK  Name = *****
REMARK                            x       y       z     vdW  Elec       q    Type
REMARK                         _______ _______ _______ _____ _____    ______ ____
ROOT
ATOM      1  O   LIG    1       28.170 -20.232   7.354  0.00  0.00    -0.488 OA
ENDROOT
BRANCH   1   5
ATOM      2  C   LIG    1       25.338 -19.663   3.449  0.00  0.00    +0.044 C 
ATOM      3  C   LIG    1       25.501 -20.113   4.871  0.00  0.00    -0.047 A 
ATOM      4  C   LIG    1       26.743 -19.992   5.512  0.00  0.00    +0.049 A 
ATOM      5  C   LIG    1       26.910 -20.401   6.838  0.00  0.00    +0.121 A 
ATOM      6  C   LIG    1       25.821 -20.942   7.525  0.00  0.00    +0.049 A 
ATOM      7  C   LIG    1       24.573 -21.075   6.901  0.00  0.00    -0.047 A 
ATOM      8  C   LIG    1       23.430 -21.684   7.660  0.00  0.00    +0.044 C 
ATOM      9  C   LIG    1       24.419 -20.655   5.577  0.00  0.00    +0.007 A 
ENDBRANCH   1   5
BRANCH   1  10
ATOM     10  C   LIG    1       29.074 -19.468   6.553  0.00  0.00    +0.275 C 
BRANCH  10  11
ATOM     11  C   LIG    1       30.499 -19.643   7.058  0.00  0.00    +0.232 C 
ATOM     12  O   LIG    1       30.989 -18.396   7.589  0.00  0.00    -0.442 OA
ATOM     13  C   LIG    1       31.702 -18.668   8.722  0.00  0.00    +0.401 C 
ATOM     14  O   LIG    1       32.291 -17.839   9.389  0.00  0.00    -0.227 OA
ATOM     15  N   LIG    1       31.623 -20.001   9.011  0.00  0.00    -0.278 N 
ATOM     16  H   LIG    1       31.944 -20.325   9.914  0.00  0.00    +0.152 HD
ATOM     17  C   LIG    1       30.617 -20.615   8.213  0.00  0.00    +0.155 C 
ENDBRANCH  10  11
ENDBRANCH   1  10
TORSDOF 3
ENDMDL
MODEL 6
REMARK VINA RESULT:      -7.8      2.140      2.941
REMARK  Name = *****
REMARK                            x       y       z     vdW  Elec       q    Type
REMARK                         _______ _______ _______ _____ _____    ______ ____
ROOT
ATOM      1  O   LIG    1       28.224 -20.352   7.053  0.00  0.00    -0.488 OA
ENDROOT
BRANCH   1   5
ATOM      2  C   LIG    1       23.571 -21.570   7.735  0.00  0.00    +0.044 C 
ATOM      3  C   LIG    1       24.644 -21.014   6.844  0.00  0.00    -0.047 A 
ATOM      4  C   LIG    1       25.964 -20.912   7.306  0.00  0.00    +0.049 A 
ATOM      5  C   LIG    1       26.974 -20.402   6.487  0.00  0.00    +0.121 A 
ATOM      6  C   LIG    1       26.655 -19.985   5.194  0.00  0.00    +0.049 A 
ATOM      7  C   LIG    1       25.341 -20.075   4.713  0.00  0.00    -0.047 A 
ATOM      8  C   LIG    1       25.028 -19.595   3.326  0.00  0.00    +0.044 C 
ATOM      9  C   LIG    1       24.342 -20.594   5.542  0.00  0.00    +0.007 A 
ENDBRANCH   1   5
BRANCH   1  10
ATOM     10  C   LIG    1       29.110 -19.365   6.522  0.00  0.00    +0.275 C 
BRANCH  10  11
ATOM     11  C   LIG    1       30.519 -19.583   7.055  0.00  0.00    +0.232 C 
ATOM     12  O   LIG    1       31.039 -18.349   7.587  0.00  0.00    -0.442 OA
ATOM     13  C   LIG    1       31.721 -18.635   8.735  0.00  0.00    +0.401 C 
ATOM     14  O   LIG    1       32.324 -17.821   9.408  0.00  0.00    -0.227 OA
ATOM     15  N   LIG    1       31.592 -19.963   9.032  0.00  0.00    -0.278 N 
ATOM     16  H   LIG    1       31.885 -20.289   9.944  0.00  0.00    +0.152 HD
ATOM     17  C   LIG    1       30.582 -20.549   8.220  0.00  0.00    +0.155 C 
ENDBRANCH  10  11
ENDBRANCH   1  10
TORSDOF 3
ENDMDL
MODEL 7
REMARK VINA RESULT:      -7.6      1.969      2.393
REMARK  Name = *****
REMARK                            x       y       z     vdW  Elec       q    Type
REMARK                         _______ _______ _______ _____ _____    ______ ____
ROOT
ATOM      1  O   LIG    1       26.775 -20.503   5.324  0.00  0.00    -0.488 OA
ENDROOT
BRANCH   1   5
ATOM      2  C   LIG    1       22.298 -18.812   4.493  0.00  0.00    +0.044 C 
ATOM      3  C   LIG    1       23.192 -19.891   5.031  0.00  0.00    -0.047 A 
ATOM      4  C   LIG    1       24.586 -19.757   4.955  0.00  0.00    +0.049 A 
ATOM      5  C   LIG    1       25.431 -20.749   5.457  0.00  0.00    +0.121 A 
ATOM      6  C   LIG    1       24.872 -21.891   6.035  0.00  0.00    +0.049 A 
ATOM      7  C   LIG    1       23.481 -22.046   6.118  0.00  0.00    -0.047 A 
ATOM      8  C   LIG    1       22.913 -23.297   6.722  0.00  0.00    +0.044 C 
ATOM      9  C   LIG    1       22.648 -21.041   5.617  0.00  0.00    +0.007 A 
ENDBRANCH   1   5
BRANCH   1  10
ATOM     10  C   LIG    1       27.446 -20.056   6.503  0.00  0.00    +0.275 C 
BRANCH  10  11
ATOM     11  C   LIG    1       28.932 -20.378   6.415  0.00  0.00    +0.232 C 
ATOM     12  O   LIG    1       29.701 -19.159   6.441  0.00  0.00    -0.442 OA
ATOM     13  C   LIG    1       30.803 -19.370   7.220  0.00  0.00    +0.401 C 
ATOM     14  O   LIG    1       31.685 -18.555   7.412  0.00  0.00    -0.227 OA
ATOM     15  N   LIG    1       30.745 -20.615   7.779  0.00  0.00    -0.278 N 
ATOM     16  H   LIG    1       31.392 -20.847   8.522  0.00  0.00    +0.152 HD
ATOM     17  C   LIG    1       29.449 -21.174   7.595  0.00  0.00    +0.155 C 
ENDBRANCH  10  11
ENDBRANCH   1  10
TORSDOF 3
ENDMDL
MODEL 8
REMARK VINA RESULT:      -7.5      3.869      6.033
REMARK  Name = *****
REMARK                            x       y       z     vdW  Elec       q    Type
REMARK                         _______ _______ _______ _____ _____    ______ ____
ROOT
ATOM      1  O   LIG    1       25.178 -24.578   7.039  0.00  0.00    -0.488 OA
ENDROOT
BRANCH   1   5
ATOM      2  C   LIG    1       23.013 -20.367   5.956  0.00  0.00    +0.044 C 
ATOM      3  C   LIG    1       24.221 -21.108   6.450  0.00  0.00    -0.047 A 
ATOM      4  C   LIG    1       24.202 -22.508   6.542  0.00  0.00    +0.049 A 
ATOM      5  C   LIG    1       25.320 -23.213   6.994  0.00  0.00    +0.121 A 
ATOM      6  C   LIG    1       26.466 -22.507   7.363  0.00  0.00    +0.049 A 
ATOM      7  C   LIG    1       26.505 -21.108   7.282  0.00  0.00    -0.047 A 
ATOM      8  C   LIG    1       27.745 -20.378   7.710  0.00  0.00    +0.044 C 
ATOM      9  C   LIG    1       25.381 -20.416   6.821  0.00  0.00    +0.007 A 
ENDBRANCH   1   5
BRANCH   1  10
ATOM     10  C   LIG    1       24.041 -25.109   6.357  0.00  0.00    +0.275 C 
BRANCH  10  11
ATOM     11  C   LIG    1       24.465 -26.245   5.436  0.00  0.00    +0.232 C 
ATOM     12  O   LIG    1       25.787 -25.993   4.920  0.00  0.00    -0.442 OA
ATOM     13  C   LIG    1       26.474 -27.173   4.917  0.00  0.00    +0.401 C 
ATOM     14  O   LIG    1       27.606 -27.319   4.497  0.00  0.00    -0.227 OA
ATOM     15  N   LIG    1       25.713 -28.154   5.488  0.00  0.00    -0.278 N 
ATOM     16  H   LIG    1       26.150 -29.036   5.724  0.00  0.00    +0.152 HD
ATOM     17  C   LIG    1       24.585 -27.581   6.139  0.00  0.00    +0.155 C 
ENDBRANCH  10  11
ENDBRANCH   1  10
TORSDOF 3
ENDMDL
MODEL 9
REMARK VINA RESULT:      -7.5      4.550      6.905
REMARK  Name = *****
REMARK                            x       y       z     vdW  Elec       q    Type
REMARK                         _______ _______ _______ _____ _____    ______ ____
ROOT
ATOM      1  O   LIG    1       23.702 -24.753   6.605  0.00  0.00    -0.488 OA
ENDROOT
BRANCH   1   5
ATOM      2  C   LIG    1       26.948 -21.506   8.192  0.00  0.00    +0.044 C 
ATOM      3  C   LIG    1       25.646 -21.802   7.504  0.00  0.00    -0.047 A 
ATOM      4  C   LIG    1       25.220 -23.128   7.339  0.00  0.00    +0.049 A 
ATOM      5  C   LIG    1       24.008 -23.418   6.707  0.00  0.00    +0.121 A 
ATOM      6  C   LIG    1       23.220 -22.369   6.231  0.00  0.00    +0.049 A 
ATOM      7  C   LIG    1       23.630 -21.037   6.383  0.00  0.00    -0.047 A 
ATOM      8  C   LIG    1       22.771 -19.934   5.837  0.00  0.00    +0.044 C 
ATOM      9  C   LIG    1       24.841 -20.761   7.023  0.00  0.00    +0.007 A 
ENDBRANCH   1   5
BRANCH   1  10
ATOM     10  C   LIG    1       24.395 -25.476   5.587  0.00  0.00    +0.275 C 
BRANCH  10  11
ATOM     11  C   LIG    1       24.958 -26.772   6.155  0.00  0.00    +0.232 C 
ATOM     12  O   LIG    1       23.888 -27.700   6.417  0.00  0.00    -0.442 OA
ATOM     13  C   LIG    1       24.305 -28.945   6.042  0.00  0.00    +0.401 C 
ATOM     14  O   LIG    1       23.656 -29.966   6.174  0.00  0.00    -0.227 OA
ATOM     15  N   LIG    1       25.540 -28.866   5.464  0.00  0.00    -0.278 N 
ATOM     16  H   LIG    1       25.902 -29.674   4.972  0.00  0.00    +0.152 HD
ATOM     17  C   LIG    1       25.868 -27.508   5.194  0.00  0.00    +0.155 C 
ENDBRANCH  10  11
ENDBRANCH   1  10
TORSDOF 3
ENDMDL
