MODEL 1
REMARK VINA RESULT:      -6.4      0.000      0.000
REMARK  Name = *****
REMARK                            x       y       z     vdW  Elec       q    Type
REMARK                         _______ _______ _______ _____ _____    ______ ____
ROOT
ATOM      1  C   LIG    1       29.523 -18.178   7.280  0.00  0.00    +0.015 C 
ATOM      2  C   LIG    1       29.676 -19.373   8.232  0.00  0.00    +0.009 C 
ATOM      3  C   LIG    1       31.040 -19.310   8.997  0.00  0.00    +0.132 C 
ATOM      4  C   LIG    1       31.220 -20.725   9.554  0.00  0.00    +0.043 C 
ATOM      5  C   LIG    1       30.477 -21.643   8.567  0.00  0.00    +0.007 C 
ATOM      6  C   LIG    1       29.859 -20.721   7.487  0.00  0.00    +0.002 C 
ATOM      7  C   LIG    1       28.609 -21.328   6.817  0.00  0.00    -0.001 C 
ATOM      8  C   LIG    1       28.390 -20.762   5.392  0.00  0.00    +0.008 C 
ATOM      9  C   LIG    1       26.994 -20.260   5.013  0.00  0.00    +0.032 C 
ATOM     10  C   LIG    1       25.817 -20.794   5.791  0.00  0.00    -0.060 C 
ATOM     11  C   LIG    1       26.084 -21.825   6.877  0.00  0.00    -0.005 C 
ATOM     12  C   LIG    1       26.387 -23.187   6.181  0.00  0.00    +0.016 C 
ATOM     13  C   LIG    1       24.837 -22.121   7.775  0.00  0.00    +0.019 C 
ATOM     14  C   LIG    1       23.753 -21.052   7.804  0.00  0.00    +0.080 C 
ATOM     15  C   LIG    1       23.451 -20.556   6.419  0.00  0.00    +0.156 C 
ATOM     16  O   LIG    1       22.315 -20.277   6.043  0.00  0.00    -0.293 OA
ATOM     17  C   LIG    1       24.606 -20.263   5.547  0.00  0.00    +0.046 C 
ATOM     18  C   LIG    1       27.341 -21.346   7.708  0.00  0.00    +0.031 C 
ATOM     19  C   LIG    1       27.159 -19.996   8.444  0.00  0.00    +0.119 C 
ATOM     20  C   LIG    1       28.430 -19.485   9.136  0.00  0.00    +0.042 C 
ENDROOT
BRANCH   3  21
ATOM     21  C   LIG    1       31.327 -18.211  10.040  0.00  0.00    +0.190 C 
ATOM     22  O   LIG    1       30.626 -18.141  11.061  0.00  0.00    -0.292 OA
BRANCH  21  23
ATOM     23  C   LIG    1       32.443 -17.208   9.844  0.00  0.00    +0.233 C 
BRANCH  23  24
ATOM     24  O   LIG    1       32.278 -16.505   8.626  0.00  0.00    -0.387 OA
ATOM     25  H   LIG    1       32.118 -17.174   7.933  0.00  0.00    +0.210 HD
ENDBRANCH  23  24
ENDBRANCH  21  23
ENDBRANCH   3  21
BRANCH   3  26
ATOM     26  O   LIG    1       32.093 -19.153   8.006  0.00  0.00    -0.380 OA
ATOM     27  H   LIG    1       31.695 -19.356   7.133  0.00  0.00    +0.211 HD
ENDBRANCH   3  26
BRANCH  19  28
ATOM     28  O   LIG    1       26.175 -20.125   9.472  0.00  0.00    -0.392 OA
ATOM     29  H   LIG    1       25.322 -20.341   9.060  0.00  0.00    +0.210 HD
ENDBRANCH  19  28
TORSDOF 5
ENDMDL
MODEL 2
REMARK VINA RESULT:      -5.9      5.064      7.810
REMARK  Name = *****
REMARK                            x       y       z     vdW  Elec       q    Type
REMARK                         _______ _______ _______ _____ _____    ______ ____
ROOT
ATOM      1  C   LIG    1       23.313 -25.351   6.729  0.00  0.00    +0.015 C 
ATOM      2  C   LIG    1       24.713 -25.317   6.098  0.00  0.00    +0.009 C 
ATOM      3  C   LIG    1       25.385 -26.729   6.148  0.00  0.00    +0.132 C 
ATOM      4  C   LIG    1       26.867 -26.445   5.886  0.00  0.00    +0.043 C 
ATOM      5  C   LIG    1       27.103 -25.021   6.419  0.00  0.00    +0.007 C 
ATOM      6  C   LIG    1       25.736 -24.512   6.941  0.00  0.00    +0.002 C 
ATOM      7  C   LIG    1       25.613 -22.975   6.916  0.00  0.00    -0.001 C 
ATOM      8  C   LIG    1       24.598 -22.464   7.967  0.00  0.00    +0.008 C 
ATOM      9  C   LIG    1       23.534 -21.454   7.525  0.00  0.00    +0.032 C 
ATOM     10  C   LIG    1       23.817 -20.623   6.298  0.00  0.00    -0.060 C 
ATOM     11  C   LIG    1       25.155 -20.810   5.599  0.00  0.00    -0.005 C 
ATOM     12  C   LIG    1       26.250 -20.114   6.463  0.00  0.00    +0.016 C 
ATOM     13  C   LIG    1       25.241 -20.088   4.213  0.00  0.00    +0.019 C 
ATOM     14  C   LIG    1       23.917 -19.759   3.538  0.00  0.00    +0.080 C 
ATOM     15  C   LIG    1       22.945 -19.167   4.518  0.00  0.00    +0.156 C 
ATOM     16  O   LIG    1       22.173 -18.257   4.227  0.00  0.00    -0.293 OA
ATOM     17  C   LIG    1       22.837 -19.829   5.834  0.00  0.00    +0.046 C 
ATOM     18  C   LIG    1       25.443 -22.363   5.502  0.00  0.00    +0.031 C 
ATOM     19  C   LIG    1       24.416 -23.165   4.667  0.00  0.00    +0.119 C 
ATOM     20  C   LIG    1       24.638 -24.683   4.692  0.00  0.00    +0.042 C 
ENDROOT
BRANCH   3  21
ATOM     21  C   LIG    1       24.842 -27.909   5.315  0.00  0.00    +0.190 C 
ATOM     22  O   LIG    1       24.915 -27.866   4.077  0.00  0.00    -0.292 OA
BRANCH  21  23
ATOM     23  C   LIG    1       24.214 -29.117   5.975  0.00  0.00    +0.233 C 
BRANCH  23  24
ATOM     24  O   LIG    1       23.019 -29.488   5.311  0.00  0.00    -0.387 OA
ATOM     25  H   LIG    1       23.226 -30.279   4.777  0.00  0.00    +0.210 HD
ENDBRANCH  23  24
ENDBRANCH  21  23
ENDBRANCH   3  21
BRANCH   3  26
ATOM     26  O   LIG    1       25.324 -27.197   7.524  0.00  0.00    -0.380 OA
ATOM     27  H   LIG    1       25.697 -26.484   8.084  0.00  0.00    +0.211 HD
ENDBRANCH   3  26
BRANCH  19  28
ATOM     28  O   LIG    1       24.488 -22.779   3.293  0.00  0.00    -0.392 OA
ATOM     29  H   LIG    1       24.816 -21.865   3.244  0.00  0.00    +0.210 HD
ENDBRANCH  19  28
TORSDOF 5
ENDMDL
MODEL 3
REMARK VINA RESULT:      -5.6      9.026     12.179
REMARK  Name = *****
REMARK                            x       y       z     vdW  Elec       q    Type
REMARK                         _______ _______ _______ _____ _____    ______ ____
ROOT
ATOM      1  C   LIG    1       23.279 -30.071   9.254  0.00  0.00    +0.015 C 
ATOM      2  C   LIG    1       24.561 -30.833   9.623  0.00  0.00    +0.009 C 
ATOM      3  C   LIG    1       24.726 -32.113   8.738  0.00  0.00    +0.132 C 
ATOM      4  C   LIG    1       25.770 -32.949   9.485  0.00  0.00    +0.043 C 
ATOM      5  C   LIG    1       25.604 -32.568  10.966  0.00  0.00    +0.007 C 
ATOM      6  C   LIG    1       24.490 -31.493  11.024  0.00  0.00    +0.002 C 
ATOM      7  C   LIG    1       24.613 -30.561  12.247  0.00  0.00    -0.001 C 
ATOM      8  C   LIG    1       23.244 -29.957  12.647  0.00  0.00    +0.008 C 
ATOM      9  C   LIG    1       23.153 -28.448  12.890  0.00  0.00    +0.032 C 
ATOM     10  C   LIG    1       24.423 -27.714  13.246  0.00  0.00    -0.060 C 
ATOM     11  C   LIG    1       25.705 -28.522  13.379  0.00  0.00    -0.005 C 
ATOM     12  C   LIG    1       25.643 -29.302  14.727  0.00  0.00    +0.016 C 
ATOM     13  C   LIG    1       26.990 -27.637  13.504  0.00  0.00    +0.019 C 
ATOM     14  C   LIG    1       26.882 -26.210  12.987  0.00  0.00    +0.080 C 
ATOM     15  C   LIG    1       25.605 -25.566  13.445  0.00  0.00    +0.156 C 
ATOM     16  O   LIG    1       25.534 -24.387  13.781  0.00  0.00    -0.293 OA
ATOM     17  C   LIG    1       24.373 -26.373  13.336  0.00  0.00    +0.046 C 
ATOM     18  C   LIG    1       25.772 -29.535  12.166  0.00  0.00    +0.031 C 
ATOM     19  C   LIG    1       25.834 -28.874  10.767  0.00  0.00    +0.119 C 
ATOM     20  C   LIG    1       25.767 -29.869   9.601  0.00  0.00    +0.042 C 
ENDROOT
BRANCH   3  21
ATOM     21  C   LIG    1       25.004 -32.015   7.224  0.00  0.00    +0.190 C 
ATOM     22  O   LIG    1       26.163 -31.812   6.829  0.00  0.00    -0.292 OA
BRANCH  21  23
ATOM     23  C   LIG    1       23.893 -32.153   6.206  0.00  0.00    +0.233 C 
BRANCH  23  24
ATOM     24  O   LIG    1       23.393 -30.882   5.833  0.00  0.00    -0.387 OA
ATOM     25  H   LIG    1       23.265 -30.901   4.865  0.00  0.00    +0.210 HD
ENDBRANCH  23  24
ENDBRANCH  21  23
ENDBRANCH   3  21
BRANCH   3  26
ATOM     26  O   LIG    1       23.490 -32.875   8.831  0.00  0.00    -0.380 OA
ATOM     27  H   LIG    1       23.340 -33.281   7.951  0.00  0.00    +0.211 HD
ENDBRANCH   3  26
BRANCH  19  28
ATOM     28  O   LIG    1       27.065 -28.166  10.611  0.00  0.00    -0.392 OA
ATOM     29  H   LIG    1       27.795 -28.748  10.883  0.00  0.00    +0.210 HD
ENDBRANCH  19  28
TORSDOF 5
ENDMDL
MODEL 4
REMARK VINA RESULT:      -5.6      8.667     10.657
REMARK  Name = *****
REMARK                            x       y       z     vdW  Elec       q    Type
REMARK                         _______ _______ _______ _____ _____    ______ ____
ROOT
ATOM      1  C   LIG    1       27.394 -28.885  13.759  0.00  0.00    +0.015 C 
ATOM      2  C   LIG    1       26.390 -27.853  13.224  0.00  0.00    +0.009 C 
ATOM      3  C   LIG    1       26.360 -26.578  14.129  0.00  0.00    +0.132 C 
ATOM      4  C   LIG    1       25.065 -25.866  13.727  0.00  0.00    +0.043 C 
ATOM      5  C   LIG    1       24.121 -26.986  13.258  0.00  0.00    +0.007 C 
ATOM      6  C   LIG    1       24.916 -28.311  13.371  0.00  0.00    +0.002 C 
ATOM      7  C   LIG    1       24.418 -29.399  12.399  0.00  0.00    -0.001 C 
ATOM      8  C   LIG    1       24.736 -30.823  12.920  0.00  0.00    +0.008 C 
ATOM      9  C   LIG    1       25.392 -31.822  11.962  0.00  0.00    +0.032 C 
ATOM     10  C   LIG    1       25.223 -31.592  10.481  0.00  0.00    -0.060 C 
ATOM     11  C   LIG    1       24.383 -30.407  10.030  0.00  0.00    -0.005 C 
ATOM     12  C   LIG    1       22.884 -30.766  10.260  0.00  0.00    +0.016 C 
ATOM     13  C   LIG    1       24.480 -30.123   8.493  0.00  0.00    +0.019 C 
ATOM     14  C   LIG    1       25.705 -30.674   7.778  0.00  0.00    +0.080 C 
ATOM     15  C   LIG    1       25.978 -32.091   8.194  0.00  0.00    +0.156 C 
ATOM     16  O   LIG    1       26.373 -32.952   7.411  0.00  0.00    -0.293 OA
ATOM     17  C   LIG    1       25.900 -32.392   9.637  0.00  0.00    +0.046 C 
ATOM     18  C   LIG    1       24.787 -29.158  10.912  0.00  0.00    +0.031 C 
ATOM     19  C   LIG    1       26.261 -28.708  10.770  0.00  0.00    +0.119 C 
ATOM     20  C   LIG    1       26.666 -27.581  11.729  0.00  0.00    +0.042 C 
ENDROOT
BRANCH   3  21
ATOM     21  C   LIG    1       27.569 -25.623  14.217  0.00  0.00    +0.190 C 
ATOM     22  O   LIG    1       27.772 -24.810  13.301  0.00  0.00    -0.292 OA
BRANCH  21  23
ATOM     23  C   LIG    1       28.521 -25.660  15.392  0.00  0.00    +0.233 C 
BRANCH  23  24
ATOM     24  O   LIG    1       29.644 -26.473  15.104  0.00  0.00    -0.387 OA
ATOM     25  H   LIG    1       29.614 -26.668  14.147  0.00  0.00    +0.210 HD
ENDBRANCH  23  24
ENDBRANCH  21  23
ENDBRANCH   3  21
BRANCH   3  26
ATOM     26  O   LIG    1       26.145 -27.016  15.500  0.00  0.00    -0.380 OA
ATOM     27  H   LIG    1       26.859 -27.655  15.710  0.00  0.00    +0.211 HD
ENDBRANCH   3  26
BRANCH  19  28
ATOM     28  O   LIG    1       26.498 -28.210   9.453  0.00  0.00    -0.392 OA
ATOM     29  H   LIG    1       27.389 -28.482   9.173  0.00  0.00    +0.210 HD
ENDBRANCH  19  28
TORSDOF 5
ENDMDL
MODEL 5
REMARK VINA RESULT:      -5.4      9.838     12.563
REMARK  Name = *****
REMARK                            x       y       z     vdW  Elec       q    Type
REMARK                         _______ _______ _______ _____ _____    ______ ____
ROOT
ATOM      1  C   LIG    1       24.738 -29.726   8.223  0.00  0.00    +0.015 C 
ATOM      2  C   LIG    1       25.375 -31.044   8.689  0.00  0.00    +0.009 C 
ATOM      3  C   LIG    1       25.326 -32.121   7.555  0.00  0.00    +0.132 C 
ATOM      4  C   LIG    1       25.595 -33.441   8.284  0.00  0.00    +0.043 C 
ATOM      5  C   LIG    1       25.064 -33.226   9.712  0.00  0.00    +0.007 C 
ATOM      6  C   LIG    1       24.537 -31.770   9.773  0.00  0.00    +0.002 C 
ATOM      7  C   LIG    1       24.563 -31.177  11.196  0.00  0.00    -0.001 C 
ATOM      8  C   LIG    1       23.508 -30.057  11.370  0.00  0.00    +0.008 C 
ATOM      9  C   LIG    1       23.947 -28.731  11.999  0.00  0.00    +0.032 C 
ATOM     10  C   LIG    1       25.176 -28.739  12.874  0.00  0.00    -0.060 C 
ATOM     11  C   LIG    1       25.880 -30.066  13.109  0.00  0.00    -0.005 C 
ATOM     12  C   LIG    1       25.021 -30.895  14.113  0.00  0.00    +0.016 C 
ATOM     13  C   LIG    1       27.267 -29.919  13.820  0.00  0.00    +0.019 C 
ATOM     14  C   LIG    1       27.937 -28.556  13.721  0.00  0.00    +0.080 C 
ATOM     15  C   LIG    1       26.954 -27.452  13.984  0.00  0.00    +0.156 C 
ATOM     16  O   LIG    1       27.242 -26.435  14.610  0.00  0.00    -0.293 OA
ATOM     17  C   LIG    1       25.637 -27.559  13.325  0.00  0.00    +0.046 C 
ATOM     18  C   LIG    1       25.977 -30.821  11.723  0.00  0.00    +0.031 C 
ATOM     19  C   LIG    1       26.807 -30.090  10.640  0.00  0.00    +0.119 C 
ATOM     20  C   LIG    1       26.781 -30.771   9.265  0.00  0.00    +0.042 C 
ENDROOT
BRANCH   3  21
ATOM     21  C   LIG    1       26.156 -31.967   6.263  0.00  0.00    +0.190 C 
ATOM     22  O   LIG    1       27.319 -32.397   6.231  0.00  0.00    -0.292 OA
BRANCH  21  23
ATOM     23  C   LIG    1       25.584 -31.296   5.033  0.00  0.00    +0.233 C 
BRANCH  23  24
ATOM     24  O   LIG    1       24.828 -32.215   4.265  0.00  0.00    -0.387 OA
ATOM     25  H   LIG    1       25.371 -32.447   3.487  0.00  0.00    +0.210 HD
ENDBRANCH  23  24
ENDBRANCH  21  23
ENDBRANCH   3  21
BRANCH   3  26
ATOM     26  O   LIG    1       23.950 -32.213   7.093  0.00  0.00    -0.380 OA
ATOM     27  H   LIG    1       23.869 -31.615   6.320  0.00  0.00    +0.211 HD
ENDBRANCH   3  26
BRANCH  19  28
ATOM     28  O   LIG    1       28.181 -30.034  11.027  0.00  0.00    -0.392 OA
ATOM     29  H   LIG    1       28.691 -30.628  10.450  0.00  0.00    +0.210 HD
ENDBRANCH  19  28
TORSDOF 5
ENDMDL
MODEL 6
REMARK VINA RESULT:      -5.3      9.080     11.094
REMARK  Name = *****
REMARK                            x       y       z     vdW  Elec       q    Type
REMARK                         _______ _______ _______ _____ _____    ______ ____
ROOT
ATOM      1  C   LIG    1       27.551 -29.910  11.915  0.00  0.00    +0.015 C 
ATOM      2  C   LIG    1       26.222 -29.153  11.771  0.00  0.00    +0.009 C 
ATOM      3  C   LIG    1       25.973 -28.218  13.000  0.00  0.00    +0.132 C 
ATOM      4  C   LIG    1       24.481 -27.880  12.913  0.00  0.00    +0.043 C 
ATOM      5  C   LIG    1       23.835 -29.091  12.219  0.00  0.00    +0.007 C 
ATOM      6  C   LIG    1       24.983 -30.078  11.892  0.00  0.00    +0.002 C 
ATOM      7  C   LIG    1       24.670 -30.994  10.692  0.00  0.00    -0.001 C 
ATOM      8  C   LIG    1       25.460 -32.324  10.764  0.00  0.00    +0.008 C 
ATOM      9  C   LIG    1       26.214 -32.795   9.516  0.00  0.00    +0.032 C 
ATOM     10  C   LIG    1       25.754 -32.274   8.177  0.00  0.00    -0.060 C 
ATOM     11  C   LIG    1       24.549 -31.345   8.144  0.00  0.00    -0.005 C 
ATOM     12  C   LIG    1       23.271 -32.208   8.375  0.00  0.00    +0.016 C 
ATOM     13  C   LIG    1       24.316 -30.676   6.748  0.00  0.00    +0.019 C 
ATOM     14  C   LIG    1       25.517 -30.615   5.817  0.00  0.00    +0.080 C 
ATOM     15  C   LIG    1       26.247 -31.927   5.792  0.00  0.00    +0.156 C 
ATOM     16  O   LIG    1       26.741 -32.398   4.771  0.00  0.00    -0.293 OA
ATOM     17  C   LIG    1       26.488 -32.583   7.093  0.00  0.00    +0.046 C 
ATOM     18  C   LIG    1       24.713 -30.291   9.311  0.00  0.00    +0.031 C 
ATOM     19  C   LIG    1       25.955 -29.374   9.192  0.00  0.00    +0.119 C 
ATOM     20  C   LIG    1       26.168 -28.449  10.398  0.00  0.00    +0.042 C 
ENDROOT
BRANCH   3  21
ATOM     21  C   LIG    1       26.856 -26.981  13.263  0.00  0.00    +0.190 C 
ATOM     22  O   LIG    1       26.841 -26.039  12.455  0.00  0.00    -0.292 OA
BRANCH  21  23
ATOM     23  C   LIG    1       27.749 -26.892  14.481  0.00  0.00    +0.233 C 
BRANCH  23  24
ATOM     24  O   LIG    1       28.819 -27.814  14.388  0.00  0.00    -0.387 OA
ATOM     25  H   LIG    1       28.844 -28.305  15.232  0.00  0.00    +0.210 HD
ENDBRANCH  23  24
ENDBRANCH  21  23
ENDBRANCH   3  21
BRANCH   3  26
ATOM     26  O   LIG    1       26.112 -29.025  14.202  0.00  0.00    -0.380 OA
ATOM     27  H   LIG    1       25.509 -29.792  14.101  0.00  0.00    +0.211 HD
ENDBRANCH   3  26
BRANCH  19  28
ATOM     28  O   LIG    1       25.828 -28.518   8.056  0.00  0.00    -0.392 OA
ATOM     29  H   LIG    1       26.708 -28.179   7.822  0.00  0.00    +0.210 HD
ENDBRANCH  19  28
TORSDOF 5
ENDMDL
MODEL 7
REMARK VINA RESULT:      -5.2     10.546     12.909
REMARK  Name = *****
REMARK                            x       y       z     vdW  Elec       q    Type
REMARK                         _______ _______ _______ _____ _____    ______ ____
ROOT
ATOM      1  C   LIG    1       25.266 -32.716  10.028  0.00  0.00    +0.015 C 
ATOM      2  C   LIG    1       24.892 -31.445   9.250  0.00  0.00    +0.009 C 
ATOM      3  C   LIG    1       25.621 -31.399   7.868  0.00  0.00    +0.132 C 
ATOM      4  C   LIG    1       25.487 -29.939   7.424  0.00  0.00    +0.043 C 
ATOM      5  C   LIG    1       25.410 -29.129   8.730  0.00  0.00    +0.007 C 
ATOM      6  C   LIG    1       25.465 -30.154   9.890  0.00  0.00    +0.002 C 
ATOM      7  C   LIG    1       24.786 -29.647  11.179  0.00  0.00    -0.001 C 
ATOM      8  C   LIG    1       25.369 -30.330  12.441  0.00  0.00    +0.008 C 
ATOM      9  C   LIG    1       24.396 -30.912  13.471  0.00  0.00    +0.032 C 
ATOM     10  C   LIG    1       22.991 -30.362  13.503  0.00  0.00    -0.060 C 
ATOM     11  C   LIG    1       22.639 -29.240  12.539  0.00  0.00    -0.005 C 
ATOM     12  C   LIG    1       23.287 -27.926  13.073  0.00  0.00    +0.016 C 
ATOM     13  C   LIG    1       21.107 -28.920  12.487  0.00  0.00    +0.019 C 
ATOM     14  C   LIG    1       20.169 -30.022  12.959  0.00  0.00    +0.080 C 
ATOM     15  C   LIG    1       20.660 -30.636  14.238  0.00  0.00    +0.156 C 
ATOM     16  O   LIG    1       19.908 -30.985  15.144  0.00  0.00    -0.293 OA
ATOM     17  C   LIG    1       22.100 -30.954  14.318  0.00  0.00    +0.046 C 
ATOM     18  C   LIG    1       23.238 -29.607  11.122  0.00  0.00    +0.031 C 
ATOM     19  C   LIG    1       22.670 -30.900  10.489  0.00  0.00    +0.119 C 
ATOM     20  C   LIG    1       23.356 -31.309   9.179  0.00  0.00    +0.042 C 
ENDROOT
BRANCH   3  21
ATOM     21  C   LIG    1       25.284 -32.402   6.745  0.00  0.00    +0.190 C 
ATOM     22  O   LIG    1       25.563 -33.602   6.895  0.00  0.00    -0.292 OA
BRANCH  21  23
ATOM     23  C   LIG    1       24.625 -31.955   5.458  0.00  0.00    +0.233 C 
BRANCH  23  24
ATOM     24  O   LIG    1       23.235 -31.767   5.644  0.00  0.00    -0.387 OA
ATOM     25  H   LIG    1       23.033 -30.853   5.365  0.00  0.00    +0.210 HD
ENDBRANCH  23  24
ENDBRANCH  21  23
ENDBRANCH   3  21
BRANCH   3  26
ATOM     26  O   LIG    1       27.042 -31.594   8.112  0.00  0.00    -0.380 OA
ATOM     27  H   LIG    1       27.130 -31.915   9.035  0.00  0.00    +0.211 HD
ENDBRANCH   3  26
BRANCH  19  28
ATOM     28  O   LIG    1       21.287 -30.728  10.174  0.00  0.00    -0.392 OA
ATOM     29  H   LIG    1       20.960 -29.935  10.631  0.00  0.00    +0.210 HD
ENDBRANCH  19  28
TORSDOF 5
ENDMDL
MODEL 8
REMARK VINA RESULT:      -5.2     10.549     12.879
REMARK  Name = *****
REMARK                            x       y       z     vdW  Elec       q    Type
REMARK                         _______ _______ _______ _____ _____    ______ ____
ROOT
ATOM      1  C   LIG    1       25.391 -32.763   8.809  0.00  0.00    +0.015 C 
ATOM      2  C   LIG    1       24.819 -31.454   8.245  0.00  0.00    +0.009 C 
ATOM      3  C   LIG    1       25.121 -31.324   6.715  0.00  0.00    +0.132 C 
ATOM      4  C   LIG    1       24.878 -29.843   6.412  0.00  0.00    +0.043 C 
ATOM      5  C   LIG    1       25.186 -29.108   7.729  0.00  0.00    +0.007 C 
ATOM      6  C   LIG    1       25.564 -30.196   8.764  0.00  0.00    +0.002 C 
ATOM      7  C   LIG    1       25.288 -29.768  10.220  0.00  0.00    -0.001 C 
ATOM      8  C   LIG    1       26.202 -30.516  11.221  0.00  0.00    +0.008 C 
ATOM      9  C   LIG    1       25.562 -31.162  12.453  0.00  0.00    +0.032 C 
ATOM     10  C   LIG    1       24.230 -30.626  12.918  0.00  0.00    -0.060 C 
ATOM     11  C   LIG    1       23.625 -29.454  12.160  0.00  0.00    -0.005 C 
ATOM     12  C   LIG    1       24.410 -28.168  12.558  0.00  0.00    +0.016 C 
ATOM     13  C   LIG    1       22.146 -29.145  12.569  0.00  0.00    +0.019 C 
ATOM     14  C   LIG    1       21.374 -30.279  13.228  0.00  0.00    +0.080 C 
ATOM     15  C   LIG    1       22.206 -30.960  14.275  0.00  0.00    +0.156 C 
ATOM     16  O   LIG    1       21.743 -31.365  15.338  0.00  0.00    -0.293 OA
ATOM     17  C   LIG    1       23.605 -31.270  13.920  0.00  0.00    +0.046 C 
ATOM     18  C   LIG    1       23.789 -29.736  10.612  0.00  0.00    +0.031 C 
ATOM     19  C   LIG    1       23.052 -30.997  10.098  0.00  0.00    +0.119 C 
ATOM     20  C   LIG    1       23.329 -31.326   8.625  0.00  0.00    +0.042 C 
ENDROOT
BRANCH   3  21
ATOM     21  C   LIG    1       24.467 -32.265   5.683  0.00  0.00    +0.190 C 
ATOM     22  O   LIG    1       23.247 -32.482   5.743  0.00  0.00    -0.292 OA
BRANCH  21  23
ATOM     23  C   LIG    1       25.282 -32.938   4.600  0.00  0.00    +0.233 C 
BRANCH  23  24
ATOM     24  O   LIG    1       25.557 -32.036   3.544  0.00  0.00    -0.387 OA
ATOM     25  H   LIG    1       24.940 -32.253   2.818  0.00  0.00    +0.210 HD
ENDBRANCH  23  24
ENDBRANCH  21  23
ENDBRANCH   3  21
BRANCH   3  26
ATOM     26  O   LIG    1       26.551 -31.521   6.530  0.00  0.00    -0.380 OA
ATOM     27  H   LIG    1       26.718 -31.499   5.564  0.00  0.00    +0.211 HD
ENDBRANCH   3  26
BRANCH  19  28
ATOM     28  O   LIG    1       21.638 -30.818  10.204  0.00  0.00    -0.392 OA
ATOM     29  H   LIG    1       21.198 -31.486   9.651  0.00  0.00    +0.210 HD
ENDBRANCH  19  28
TORSDOF 5
ENDMDL
MODEL 9
REMARK VINA RESULT:      -5.1      9.295     12.199
REMARK  Name = *****
REMARK                            x       y       z     vdW  Elec       q    Type
REMARK                         _______ _______ _______ _____ _____    ______ ____
ROOT
ATOM      1  C   LIG    1       23.602 -27.940  12.966  0.00  0.00    +0.015 C 
ATOM      2  C   LIG    1       23.416 -29.464  12.980  0.00  0.00    +0.009 C 
ATOM      3  C   LIG    1       22.807 -29.941  14.340  0.00  0.00    +0.132 C 
ATOM      4  C   LIG    1       23.073 -31.450  14.358  0.00  0.00    +0.043 C 
ATOM      5  C   LIG    1       24.349 -31.642  13.520  0.00  0.00    +0.007 C 
ATOM      6  C   LIG    1       24.760 -30.237  13.012  0.00  0.00    +0.002 C 
ATOM      7  C   LIG    1       25.576 -30.282  11.704  0.00  0.00    -0.001 C 
ATOM      8  C   LIG    1       26.488 -29.039  11.555  0.00  0.00    +0.008 C 
ATOM      9  C   LIG    1       26.473 -28.279  10.225  0.00  0.00    +0.032 C 
ATOM     10  C   LIG    1       26.019 -29.022   8.993  0.00  0.00    -0.060 C 
ATOM     11  C   LIG    1       25.641 -30.488   9.139  0.00  0.00    -0.005 C 
ATOM     12  C   LIG    1       26.956 -31.311   9.289  0.00  0.00    +0.016 C 
ATOM     13  C   LIG    1       24.956 -31.085   7.864  0.00  0.00    +0.019 C 
ATOM     14  C   LIG    1       24.319 -30.088   6.908  0.00  0.00    +0.080 C 
ATOM     15  C   LIG    1       25.227 -28.916   6.667  0.00  0.00    +0.156 C 
ATOM     16  O   LIG    1       25.341 -28.373   5.571  0.00  0.00    -0.293 OA
ATOM     17  C   LIG    1       25.885 -28.326   7.850  0.00  0.00    +0.046 C 
ATOM     18  C   LIG    1       24.753 -30.637  10.440  0.00  0.00    +0.031 C 
ATOM     19  C   LIG    1       23.416 -29.857  10.408  0.00  0.00    +0.119 C 
ATOM     20  C   LIG    1       22.632 -29.908  11.726  0.00  0.00    +0.042 C 
ENDROOT
BRANCH   3  21
ATOM     21  C   LIG    1       21.363 -29.580  14.746  0.00  0.00    +0.190 C 
ATOM     22  O   LIG    1       21.165 -28.613  15.498  0.00  0.00    -0.292 OA
BRANCH  21  23
ATOM     23  C   LIG    1       20.180 -30.384  14.254  0.00  0.00    +0.233 C 
BRANCH  23  24
ATOM     24  O   LIG    1       19.437 -29.652  13.297  0.00  0.00    -0.387 OA
ATOM     25  H   LIG    1       20.078 -29.303  12.648  0.00  0.00    +0.210 HD
ENDBRANCH  23  24
ENDBRANCH  21  23
ENDBRANCH   3  21
BRANCH   3  26
ATOM     26  O   LIG    1       23.631 -29.396  15.408  0.00  0.00    -0.380 OA
ATOM     27  H   LIG    1       24.034 -30.159  15.874  0.00  0.00    +0.211 HD
ENDBRANCH   3  26
BRANCH  19  28
ATOM     28  O   LIG    1       22.550 -30.405   9.413  0.00  0.00    -0.392 OA
ATOM     29  H   LIG    1       22.966 -31.202   9.043  0.00  0.00    +0.210 HD
ENDBRANCH  19  28
TORSDOF 5
ENDMDL
