MODEL 1
REMARK VINA RESULT:      -9.6      0.000      0.000
REMARK  Name = *****
REMARK                            x       y       z     vdW  Elec       q    Type
REMARK                         _______ _______ _______ _____ _____    ______ ____
ROOT
ATOM      1  C   LIG    1       24.429 -21.702   7.284  0.00  0.00    +0.213 C 
ENDROOT
BRANCH   1   2
ATOM      2  C   LIG    1       24.657 -23.185   6.944  0.00  0.00    -0.001 A 
ATOM      3  C   LIG    1       23.578 -24.016   6.587  0.00  0.00    +0.007 A 
ATOM      4  C   LIG    1       23.779 -25.360   6.258  0.00  0.00    +0.000 A 
ATOM      5  C   LIG    1       25.061 -25.904   6.291  0.00  0.00    +0.000 A 
ATOM      6  C   LIG    1       26.141 -25.106   6.656  0.00  0.00    +0.000 A 
ATOM      7  C   LIG    1       25.941 -23.761   6.980  0.00  0.00    +0.007 A 
ENDBRANCH   1   2
BRANCH   1   8
ATOM      8  C   LIG    1       24.183 -20.850   6.023  0.00  0.00    -0.001 A 
ATOM      9  C   LIG    1       23.019 -20.056   5.933  0.00  0.00    +0.007 A 
ATOM     10  C   LIG    1       22.756 -19.274   4.804  0.00  0.00    +0.000 A 
ATOM     11  C   LIG    1       23.640 -19.276   3.732  0.00  0.00    +0.000 A 
ATOM     12  C   LIG    1       24.780 -20.068   3.783  0.00  0.00    +0.000 A 
ATOM     13  C   LIG    1       25.041 -20.853   4.908  0.00  0.00    +0.007 A 
ENDBRANCH   1   8
BRANCH   1  14
ATOM     14  C   LIG    1       25.604 -21.198   8.201  0.00  0.00    +0.349 C 
ATOM     15  O   LIG    1       25.513 -20.724   9.322  0.00  0.00    -0.247 OA
BRANCH  14  16
ATOM     16  O   LIG    1       26.816 -21.278   7.551  0.00  0.00    -0.453 OA
BRANCH  16  20
ATOM     17  C   LIG    1       30.464 -19.147   9.407  0.00  0.00    +0.192 C 
ATOM     18  N   LIG    1       29.695 -19.537   8.157  0.00  0.00    +0.244 N 
ATOM     19  C   LIG    1       28.174 -19.481   8.436  0.00  0.00    +0.178 C 
ATOM     20  C   LIG    1       27.406 -20.012   7.207  0.00  0.00    +0.225 C 
ATOM     21  C   LIG    1       28.390 -20.201   6.032  0.00  0.00    +0.045 C 
ATOM     22  C   LIG    1       29.142 -18.884   5.811  0.00  0.00    +0.058 C 
ATOM     23  C   LIG    1       29.418 -21.284   6.396  0.00  0.00    +0.058 C 
ATOM     24  C   LIG    1       30.034 -18.570   7.013  0.00  0.00    +0.133 C 
ATOM     25  C   LIG    1       30.065 -20.973   7.746  0.00  0.00    +0.133 C 
ENDBRANCH  16  20
ENDBRANCH  14  16
ENDBRANCH   1  14
BRANCH   1  26
ATOM     26  O   LIG    1       23.241 -21.582   8.113  0.00  0.00    -0.370 OA
ATOM     27  H   LIG    1       22.913 -20.673   7.996  0.00  0.00    +0.212 HD
ENDBRANCH   1  26
TORSDOF 6
ENDMDL
MODEL 2
REMARK VINA RESULT:      -9.3      0.754      1.583
REMARK  Name = *****
REMARK                            x       y       z     vdW  Elec       q    Type
REMARK                         _______ _______ _______ _____ _____    ______ ____
ROOT
ATOM      1  C   LIG    1       24.309 -21.669   7.273  0.00  0.00    +0.213 C 
ENDROOT
BRANCH   1   2
ATOM      2  C   LIG    1       24.561 -23.150   6.946  0.00  0.00    -0.001 A 
ATOM      3  C   LIG    1       23.493 -24.006   6.615  0.00  0.00    +0.007 A 
ATOM      4  C   LIG    1       23.716 -25.350   6.297  0.00  0.00    +0.000 A 
ATOM      5  C   LIG    1       25.009 -25.868   6.316  0.00  0.00    +0.000 A 
ATOM      6  C   LIG    1       26.078 -25.045   6.655  0.00  0.00    +0.000 A 
ATOM      7  C   LIG    1       25.857 -23.700   6.968  0.00  0.00    +0.007 A 
ENDBRANCH   1   2
BRANCH   1   8
ATOM      8  C   LIG    1       24.057 -20.830   6.004  0.00  0.00    -0.001 A 
ATOM      9  C   LIG    1       22.951 -19.954   5.955  0.00  0.00    +0.007 A 
ATOM     10  C   LIG    1       22.684 -19.180   4.822  0.00  0.00    +0.000 A 
ATOM     11  C   LIG    1       23.504 -19.273   3.704  0.00  0.00    +0.000 A 
ATOM     12  C   LIG    1       24.584 -20.146   3.715  0.00  0.00    +0.000 A 
ATOM     13  C   LIG    1       24.849 -20.923   4.846  0.00  0.00    +0.007 A 
ENDBRANCH   1   8
BRANCH   1  14
ATOM     14  C   LIG    1       25.472 -21.140   8.192  0.00  0.00    +0.349 C 
ATOM     15  O   LIG    1       25.626 -21.356   9.384  0.00  0.00    -0.247 OA
BRANCH  14  16
ATOM     16  O   LIG    1       26.313 -20.296   7.500  0.00  0.00    -0.453 OA
BRANCH  16  20
ATOM     17  C   LIG    1       29.951 -18.316   5.468  0.00  0.00    +0.192 C 
ATOM     18  N   LIG    1       29.424 -19.278   6.517  0.00  0.00    +0.244 N 
ATOM     19  C   LIG    1       28.173 -20.012   5.979  0.00  0.00    +0.178 C 
ATOM     20  C   LIG    1       27.565 -20.882   7.099  0.00  0.00    +0.225 C 
ATOM     21  C   LIG    1       28.531 -20.914   8.303  0.00  0.00    +0.045 C 
ATOM     22  C   LIG    1       29.910 -21.362   7.807  0.00  0.00    +0.058 C 
ATOM     23  C   LIG    1       28.669 -19.498   8.886  0.00  0.00    +0.058 C 
ATOM     24  C   LIG    1       30.505 -20.314   6.865  0.00  0.00    +0.133 C 
ATOM     25  C   LIG    1       29.029 -18.501   7.785  0.00  0.00    +0.133 C 
ENDBRANCH  16  20
ENDBRANCH  14  16
ENDBRANCH   1  14
BRANCH   1  26
ATOM     26  O   LIG    1       23.115 -21.560   8.095  0.00  0.00    -0.370 OA
ATOM     27  H   LIG    1       23.296 -20.869   8.756  0.00  0.00    +0.212 HD
ENDBRANCH   1  26
TORSDOF 6
ENDMDL
MODEL 3
REMARK VINA RESULT:      -8.3      1.347      4.159
REMARK  Name = *****
REMARK                            x       y       z     vdW  Elec       q    Type
REMARK                         _______ _______ _______ _____ _____    ______ ____
ROOT
ATOM      1  C   LIG    1       25.899 -21.110   5.862  0.00  0.00    +0.213 C 
ENDROOT
BRANCH   1   2
ATOM      2  C   LIG    1       24.688 -20.314   5.345  0.00  0.00    -0.001 A 
ATOM      3  C   LIG    1       24.784 -19.537   4.176  0.00  0.00    +0.007 A 
ATOM      4  C   LIG    1       23.682 -18.825   3.689  0.00  0.00    +0.000 A 
ATOM      5  C   LIG    1       22.467 -18.868   4.367  0.00  0.00    +0.000 A 
ATOM      6  C   LIG    1       22.352 -19.617   5.534  0.00  0.00    +0.000 A 
ATOM      7  C   LIG    1       23.452 -20.333   6.018  0.00  0.00    +0.007 A 
ENDBRANCH   1   2
BRANCH   1   8
ATOM      8  C   LIG    1       25.590 -22.616   5.988  0.00  0.00    -0.001 A 
ATOM      9  C   LIG    1       26.067 -23.334   7.107  0.00  0.00    +0.007 A 
ATOM     10  C   LIG    1       25.814 -24.700   7.257  0.00  0.00    +0.000 A 
ATOM     11  C   LIG    1       25.093 -25.388   6.288  0.00  0.00    +0.000 A 
ATOM     12  C   LIG    1       24.635 -24.712   5.165  0.00  0.00    +0.000 A 
ATOM     13  C   LIG    1       24.891 -23.347   5.012  0.00  0.00    +0.007 A 
ENDBRANCH   1   8
BRANCH   1  14
ATOM     14  C   LIG    1       26.434 -20.435   7.178  0.00  0.00    +0.349 C 
ATOM     15  O   LIG    1       25.822 -20.262   8.220  0.00  0.00    -0.247 OA
BRANCH  14  16
ATOM     16  O   LIG    1       27.717 -19.959   7.011  0.00  0.00    -0.453 OA
BRANCH  16  20
ATOM     17  C   LIG    1       31.648 -21.672   8.714  0.00  0.00    +0.192 C 
ATOM     18  N   LIG    1       30.777 -20.457   8.449  0.00  0.00    +0.244 N 
ATOM     19  C   LIG    1       29.287 -20.826   8.636  0.00  0.00    +0.178 C 
ATOM     20  C   LIG    1       28.404 -19.626   8.231  0.00  0.00    +0.225 C 
ATOM     21  C   LIG    1       29.299 -18.389   8.000  0.00  0.00    +0.045 C 
ATOM     22  C   LIG    1       30.160 -18.172   9.248  0.00  0.00    +0.058 C 
ATOM     23  C   LIG    1       30.238 -18.652   6.811  0.00  0.00    +0.058 C 
ATOM     24  C   LIG    1       31.143 -19.329   9.428  0.00  0.00    +0.133 C 
ATOM     25  C   LIG    1       30.985 -19.972   7.004  0.00  0.00    +0.133 C 
ENDBRANCH  16  20
ENDBRANCH  14  16
ENDBRANCH   1  14
BRANCH   1  26
ATOM     26  O   LIG    1       26.992 -20.981   4.913  0.00  0.00    -0.370 OA
ATOM     27  H   LIG    1       26.620 -20.559   4.119  0.00  0.00    +0.212 HD
ENDBRANCH   1  26
TORSDOF 6
ENDMDL
MODEL 4
REMARK VINA RESULT:      -8.3      0.963      3.934
REMARK  Name = *****
REMARK                            x       y       z     vdW  Elec       q    Type
REMARK                         _______ _______ _______ _____ _____    ______ ____
ROOT
ATOM      1  C   LIG    1       25.757 -21.543   6.508  0.00  0.00    +0.213 C 
ENDROOT
BRANCH   1   2
ATOM      2  C   LIG    1       24.775 -20.636   5.746  0.00  0.00    -0.001 A 
ATOM      3  C   LIG    1       25.164 -19.995   4.555  0.00  0.00    +0.007 A 
ATOM      4  C   LIG    1       24.272 -19.184   3.846  0.00  0.00    +0.000 A 
ATOM      5  C   LIG    1       22.976 -18.990   4.319  0.00  0.00    +0.000 A 
ATOM      6  C   LIG    1       22.574 -19.601   5.502  0.00  0.00    +0.000 A 
ATOM      7  C   LIG    1       23.464 -20.416   6.209  0.00  0.00    +0.007 A 
ENDBRANCH   1   2
BRANCH   1   8
ATOM      8  C   LIG    1       25.269 -23.005   6.565  0.00  0.00    -0.001 A 
ATOM      9  C   LIG    1       26.213 -24.051   6.663  0.00  0.00    +0.007 A 
ATOM     10  C   LIG    1       25.813 -25.390   6.712  0.00  0.00    +0.000 A 
ATOM     11  C   LIG    1       24.465 -25.719   6.648  0.00  0.00    +0.000 A 
ATOM     12  C   LIG    1       23.517 -24.711   6.524  0.00  0.00    +0.000 A 
ATOM     13  C   LIG    1       23.916 -23.373   6.471  0.00  0.00    +0.007 A 
ENDBRANCH   1   8
BRANCH   1  14
ATOM     14  C   LIG    1       26.070 -20.898   7.909  0.00  0.00    +0.349 C 
ATOM     15  O   LIG    1       25.276 -20.374   8.674  0.00  0.00    -0.247 OA
BRANCH  14  16
ATOM     16  O   LIG    1       27.422 -20.915   8.177  0.00  0.00    -0.453 OA
BRANCH  16  20
ATOM     17  C   LIG    1       30.909 -18.469   9.950  0.00  0.00    +0.192 C 
ATOM     18  N   LIG    1       30.315 -19.188   8.752  0.00  0.00    +0.244 N 
ATOM     19  C   LIG    1       28.781 -18.990   8.727  0.00  0.00    +0.178 C 
ATOM     20  C   LIG    1       28.171 -19.836   7.589  0.00  0.00    +0.225 C 
ATOM     21  C   LIG    1       29.307 -20.411   6.714  0.00  0.00    +0.045 C 
ATOM     22  C   LIG    1       30.201 -19.254   6.258  0.00  0.00    +0.058 C 
ATOM     23  C   LIG    1       30.162 -21.373   7.555  0.00  0.00    +0.058 C 
ATOM     24  C   LIG    1       30.917 -18.627   7.455  0.00  0.00    +0.133 C 
ATOM     25  C   LIG    1       30.613 -20.695   8.849  0.00  0.00    +0.133 C 
ENDBRANCH  16  20
ENDBRANCH  14  16
ENDBRANCH   1  14
BRANCH   1  26
ATOM     26  O   LIG    1       27.033 -21.550   5.814  0.00  0.00    -0.370 OA
ATOM     27  H   LIG    1       27.661 -22.015   6.394  0.00  0.00    +0.212 HD
ENDBRANCH   1  26
TORSDOF 6
ENDMDL
MODEL 5
REMARK VINA RESULT:      -8.0      2.504      6.361
REMARK  Name = *****
REMARK                            x       y       z     vdW  Elec       q    Type
REMARK                         _______ _______ _______ _____ _____    ______ ____
ROOT
ATOM      1  C   LIG    1       25.101 -21.701   6.344  0.00  0.00    +0.213 C 
ENDROOT
BRANCH   1   2
ATOM      2  C   LIG    1       24.293 -20.648   5.567  0.00  0.00    -0.001 A 
ATOM      3  C   LIG    1       24.798 -20.087   4.378  0.00  0.00    +0.007 A 
ATOM      4  C   LIG    1       24.061 -19.143   3.655  0.00  0.00    +0.000 A 
ATOM      5  C   LIG    1       22.811 -18.733   4.111  0.00  0.00    +0.000 A 
ATOM      6  C   LIG    1       22.298 -19.262   5.291  0.00  0.00    +0.000 A 
ATOM      7  C   LIG    1       23.032 -20.210   6.012  0.00  0.00    +0.007 A 
ENDBRANCH   1   2
BRANCH   1   8
ATOM      8  C   LIG    1       26.549 -21.241   6.608  0.00  0.00    -0.001 A 
ATOM      9  C   LIG    1       27.272 -21.795   7.687  0.00  0.00    +0.007 A 
ATOM     10  C   LIG    1       28.585 -21.401   7.963  0.00  0.00    +0.000 A 
ATOM     11  C   LIG    1       29.204 -20.435   7.179  0.00  0.00    +0.000 A 
ATOM     12  C   LIG    1       28.506 -19.854   6.127  0.00  0.00    +0.000 A 
ATOM     13  C   LIG    1       27.193 -20.243   5.854  0.00  0.00    +0.007 A 
ENDBRANCH   1   8
BRANCH   1  14
ATOM     14  C   LIG    1       24.974 -23.089   5.615  0.00  0.00    +0.349 C 
ATOM     15  O   LIG    1       24.674 -23.284   4.447  0.00  0.00    -0.247 OA
BRANCH  14  16
ATOM     16  O   LIG    1       25.171 -24.135   6.489  0.00  0.00    -0.453 OA
BRANCH  16  20
ATOM     17  C   LIG    1       25.692 -28.457   8.020  0.00  0.00    +0.192 C 
ATOM     18  N   LIG    1       25.570 -27.512   6.838  0.00  0.00    +0.244 N 
ATOM     19  C   LIG    1       26.286 -26.178   7.153  0.00  0.00    +0.178 C 
ATOM     20  C   LIG    1       26.039 -25.177   6.005  0.00  0.00    +0.225 C 
ATOM     21  C   LIG    1       25.361 -25.908   4.826  0.00  0.00    +0.045 C 
ATOM     22  C   LIG    1       26.214 -27.126   4.455  0.00  0.00    +0.058 C 
ATOM     23  C   LIG    1       23.976 -26.410   5.265  0.00  0.00    +0.058 C 
ATOM     24  C   LIG    1       26.211 -28.147   5.594  0.00  0.00    +0.133 C 
ATOM     25  C   LIG    1       24.085 -27.218   6.559  0.00  0.00    +0.133 C 
ENDBRANCH  16  20
ENDBRANCH  14  16
ENDBRANCH   1  14
BRANCH   1  26
ATOM     26  O   LIG    1       24.482 -21.911   7.642  0.00  0.00    -0.370 OA
ATOM     27  H   LIG    1       23.682 -21.359   7.659  0.00  0.00    +0.212 HD
ENDBRANCH   1  26
TORSDOF 6
ENDMDL
MODEL 6
REMARK VINA RESULT:      -8.0      1.334      2.025
REMARK  Name = *****
REMARK                            x       y       z     vdW  Elec       q    Type
REMARK                         _______ _______ _______ _____ _____    ______ ____
ROOT
ATOM      1  C   LIG    1       25.730 -20.864   6.503  0.00  0.00    +0.213 C 
ENDROOT
BRANCH   1   2
ATOM      2  C   LIG    1       25.611 -22.395   6.411  0.00  0.00    -0.001 A 
ATOM      3  C   LIG    1       26.072 -23.217   7.458  0.00  0.00    +0.007 A 
ATOM      4  C   LIG    1       25.950 -24.609   7.391  0.00  0.00    +0.000 A 
ATOM      5  C   LIG    1       25.375 -25.207   6.273  0.00  0.00    +0.000 A 
ATOM      6  C   LIG    1       24.926 -24.417   5.219  0.00  0.00    +0.000 A 
ATOM      7  C   LIG    1       25.043 -23.025   5.288  0.00  0.00    +0.007 A 
ENDBRANCH   1   2
BRANCH   1   8
ATOM      8  C   LIG    1       24.669 -20.149   5.642  0.00  0.00    -0.001 A 
ATOM      9  C   LIG    1       23.326 -20.116   6.076  0.00  0.00    +0.007 A 
ATOM     10  C   LIG    1       22.332 -19.483   5.323  0.00  0.00    +0.000 A 
ATOM     11  C   LIG    1       22.651 -18.880   4.113  0.00  0.00    +0.000 A 
ATOM     12  C   LIG    1       23.960 -18.919   3.650  0.00  0.00    +0.000 A 
ATOM     13  C   LIG    1       24.953 -19.556   4.399  0.00  0.00    +0.007 A 
ENDBRANCH   1   8
BRANCH   1  14
ATOM     14  C   LIG    1       27.216 -20.445   6.199  0.00  0.00    +0.349 C 
ATOM     15  O   LIG    1       27.782 -20.467   5.118  0.00  0.00    -0.247 OA
BRANCH  14  16
ATOM     16  O   LIG    1       27.885 -20.100   7.353  0.00  0.00    -0.453 OA
BRANCH  16  20
ATOM     17  C   LIG    1       30.620 -18.119  10.497  0.00  0.00    +0.192 C 
ATOM     18  N   LIG    1       30.495 -18.856   9.176  0.00  0.00    +0.244 N 
ATOM     19  C   LIG    1       29.219 -18.395   8.433  0.00  0.00    +0.178 C 
ATOM     20  C   LIG    1       29.027 -19.246   7.161  0.00  0.00    +0.225 C 
ATOM     21  C   LIG    1       30.286 -20.110   6.929  0.00  0.00    +0.045 C 
ATOM     22  C   LIG    1       31.511 -19.190   6.918  0.00  0.00    +0.058 C 
ATOM     23  C   LIG    1       30.445 -21.104   8.092  0.00  0.00    +0.058 C 
ATOM     24  C   LIG    1       31.722 -18.564   8.298  0.00  0.00    +0.133 C 
ATOM     25  C   LIG    1       30.393 -20.370   9.432  0.00  0.00    +0.133 C 
ENDBRANCH  16  20
ENDBRANCH  14  16
ENDBRANCH   1  14
BRANCH   1  26
ATOM     26  O   LIG    1       25.507 -20.451   7.878  0.00  0.00    -0.370 OA
ATOM     27  H   LIG    1       25.189 -21.238   8.355  0.00  0.00    +0.212 HD
ENDBRANCH   1  26
TORSDOF 6
ENDMDL
MODEL 7
REMARK VINA RESULT:      -7.7      2.341      6.211
REMARK  Name = *****
REMARK                            x       y       z     vdW  Elec       q    Type
REMARK                         _______ _______ _______ _____ _____    ______ ____
ROOT
ATOM      1  C   LIG    1       24.230 -21.621   6.689  0.00  0.00    +0.213 C 
ENDROOT
BRANCH   1   2
ATOM      2  C   LIG    1       23.782 -20.688   5.551  0.00  0.00    -0.001 A 
ATOM      3  C   LIG    1       22.699 -19.806   5.728  0.00  0.00    +0.007 A 
ATOM      4  C   LIG    1       22.297 -18.940   4.706  0.00  0.00    +0.000 A 
ATOM      5  C   LIG    1       22.963 -18.947   3.482  0.00  0.00    +0.000 A 
ATOM      6  C   LIG    1       24.026 -19.820   3.279  0.00  0.00    +0.000 A 
ATOM      7  C   LIG    1       24.432 -20.682   4.302  0.00  0.00    +0.007 A 
ENDBRANCH   1   2
BRANCH   1   8
ATOM      8  C   LIG    1       25.740 -21.498   6.977  0.00  0.00    -0.001 A 
ATOM      9  C   LIG    1       26.294 -22.169   8.090  0.00  0.00    +0.007 A 
ATOM     10  C   LIG    1       27.657 -22.079   8.390  0.00  0.00    +0.000 A 
ATOM     11  C   LIG    1       28.497 -21.307   7.597  0.00  0.00    +0.000 A 
ATOM     12  C   LIG    1       27.974 -20.616   6.511  0.00  0.00    +0.000 A 
ATOM     13  C   LIG    1       26.611 -20.701   6.214  0.00  0.00    +0.007 A 
ENDBRANCH   1   8
BRANCH   1  14
ATOM     14  C   LIG    1       23.736 -23.083   6.379  0.00  0.00    +0.349 C 
ATOM     15  O   LIG    1       22.649 -23.567   6.654  0.00  0.00    -0.247 OA
BRANCH  14  16
ATOM     16  O   LIG    1       24.732 -23.836   5.797  0.00  0.00    -0.453 OA
BRANCH  16  20
ATOM     17  C   LIG    1       27.312 -27.269   4.110  0.00  0.00    +0.192 C 
ATOM     18  N   LIG    1       26.212 -26.827   5.059  0.00  0.00    +0.244 N 
ATOM     19  C   LIG    1       25.368 -25.709   4.403  0.00  0.00    +0.178 C 
ATOM     20  C   LIG    1       24.344 -25.171   5.424  0.00  0.00    +0.225 C 
ATOM     21  C   LIG    1       24.343 -26.078   6.674  0.00  0.00    +0.045 C 
ATOM     22  C   LIG    1       24.116 -27.525   6.224  0.00  0.00    +0.058 C 
ATOM     23  C   LIG    1       25.716 -26.002   7.362  0.00  0.00    +0.058 C 
ATOM     24  C   LIG    1       25.300 -28.018   5.391  0.00  0.00    +0.133 C 
ATOM     25  C   LIG    1       26.833 -26.277   6.355  0.00  0.00    +0.133 C 
ENDBRANCH  16  20
ENDBRANCH  14  16
ENDBRANCH   1  14
BRANCH   1  26
ATOM     26  O   LIG    1       23.535 -21.250   7.910  0.00  0.00    -0.370 OA
ATOM     27  H   LIG    1       23.790 -20.332   8.104  0.00  0.00    +0.212 HD
ENDBRANCH   1  26
TORSDOF 6
ENDMDL
MODEL 8
REMARK VINA RESULT:      -7.6      2.602      5.893
REMARK  Name = *****
REMARK                            x       y       z     vdW  Elec       q    Type
REMARK                         _______ _______ _______ _____ _____    ______ ____
ROOT
ATOM      1  C   LIG    1       24.812 -21.920   5.449  0.00  0.00    +0.213 C 
ENDROOT
BRANCH   1   2
ATOM      2  C   LIG    1       26.038 -21.509   6.282  0.00  0.00    -0.001 A 
ATOM      3  C   LIG    1       26.856 -20.438   5.877  0.00  0.00    +0.007 A 
ATOM      4  C   LIG    1       27.962 -20.045   6.639  0.00  0.00    +0.000 A 
ATOM      5  C   LIG    1       28.279 -20.724   7.813  0.00  0.00    +0.000 A 
ATOM      6  C   LIG    1       27.493 -21.796   8.225  0.00  0.00    +0.000 A 
ATOM      7  C   LIG    1       26.385 -22.185   7.467  0.00  0.00    +0.007 A 
ENDBRANCH   1   2
BRANCH   1   8
ATOM      8  C   LIG    1       23.959 -20.704   5.036  0.00  0.00    -0.001 A 
ATOM      9  C   LIG    1       24.254 -20.021   3.835  0.00  0.00    +0.007 A 
ATOM     10  C   LIG    1       23.509 -18.911   3.427  0.00  0.00    +0.000 A 
ATOM     11  C   LIG    1       22.462 -18.445   4.213  0.00  0.00    +0.000 A 
ATOM     12  C   LIG    1       22.167 -19.082   5.412  0.00  0.00    +0.000 A 
ATOM     13  C   LIG    1       22.914 -20.188   5.823  0.00  0.00    +0.007 A 
ENDBRANCH   1   8
BRANCH   1  14
ATOM     14  C   LIG    1       24.024 -23.047   6.215  0.00  0.00    +0.349 C 
ATOM     15  O   LIG    1       23.325 -22.914   7.206  0.00  0.00    -0.247 OA
BRANCH  14  16
ATOM     16  O   LIG    1       24.272 -24.289   5.672  0.00  0.00    -0.453 OA
BRANCH  16  20
ATOM     17  C   LIG    1       24.297 -28.854   4.997  0.00  0.00    +0.192 C 
ATOM     18  N   LIG    1       24.897 -27.650   5.701  0.00  0.00    +0.244 N 
ATOM     19  C   LIG    1       23.785 -26.630   6.042  0.00  0.00    +0.178 C 
ATOM     20  C   LIG    1       24.420 -25.352   6.630  0.00  0.00    +0.225 C 
ATOM     21  C   LIG    1       25.920 -25.604   6.898  0.00  0.00    +0.045 C 
ATOM     22  C   LIG    1       26.054 -26.858   7.768  0.00  0.00    +0.058 C 
ATOM     23  C   LIG    1       26.640 -25.867   5.565  0.00  0.00    +0.058 C 
ATOM     24  C   LIG    1       25.588 -28.095   6.999  0.00  0.00    +0.133 C 
ATOM     25  C   LIG    1       25.923 -26.966   4.779  0.00  0.00    +0.133 C 
ENDBRANCH  16  20
ENDBRANCH  14  16
ENDBRANCH   1  14
BRANCH   1  26
ATOM     26  O   LIG    1       25.262 -22.557   4.223  0.00  0.00    -0.370 OA
ATOM     27  H   LIG    1       25.735 -21.874   3.715  0.00  0.00    +0.212 HD
ENDBRANCH   1  26
TORSDOF 6
ENDMDL
MODEL 9
REMARK VINA RESULT:      -7.1      2.079      5.727
REMARK  Name = *****
REMARK                            x       y       z     vdW  Elec       q    Type
REMARK                         _______ _______ _______ _____ _____    ______ ____
ROOT
ATOM      1  C   LIG    1       25.819 -20.973   7.563  0.00  0.00    +0.213 C 
ENDROOT
BRANCH   1   2
ATOM      2  C   LIG    1       24.806 -20.789   6.420  0.00  0.00    -0.001 A 
ATOM      3  C   LIG    1       23.442 -20.574   6.694  0.00  0.00    +0.007 A 
ATOM      4  C   LIG    1       22.518 -20.387   5.662  0.00  0.00    +0.000 A 
ATOM      5  C   LIG    1       22.936 -20.423   4.334  0.00  0.00    +0.000 A 
ATOM      6  C   LIG    1       24.277 -20.650   4.037  0.00  0.00    +0.000 A 
ATOM      7  C   LIG    1       25.202 -20.832   5.069  0.00  0.00    +0.007 A 
ENDBRANCH   1   2
BRANCH   1   8
ATOM      8  C   LIG    1       27.183 -20.330   7.237  0.00  0.00    -0.001 A 
ATOM      9  C   LIG    1       27.500 -20.010   5.898  0.00  0.00    +0.007 A 
ATOM     10  C   LIG    1       28.727 -19.432   5.559  0.00  0.00    +0.000 A 
ATOM     11  C   LIG    1       29.673 -19.172   6.544  0.00  0.00    +0.000 A 
ATOM     12  C   LIG    1       29.397 -19.501   7.865  0.00  0.00    +0.000 A 
ATOM     13  C   LIG    1       28.173 -20.084   8.204  0.00  0.00    +0.007 A 
ENDBRANCH   1   8
BRANCH   1  14
ATOM     14  C   LIG    1       25.885 -22.496   7.951  0.00  0.00    +0.349 C 
ATOM     15  O   LIG    1       26.580 -23.008   8.815  0.00  0.00    -0.247 OA
BRANCH  14  16
ATOM     16  O   LIG    1       25.090 -23.259   7.125  0.00  0.00    -0.453 OA
BRANCH  16  20
ATOM     17  C   LIG    1       25.841 -27.804   7.389  0.00  0.00    +0.192 C 
ATOM     18  N   LIG    1       25.481 -26.603   6.533  0.00  0.00    +0.244 N 
ATOM     19  C   LIG    1       26.279 -25.364   7.002  0.00  0.00    +0.178 C 
ATOM     20  C   LIG    1       25.805 -24.120   6.220  0.00  0.00    +0.225 C 
ATOM     21  C   LIG    1       24.867 -24.563   5.076  0.00  0.00    +0.045 C 
ATOM     22  C   LIG    1       25.588 -25.623   4.238  0.00  0.00    +0.058 C 
ATOM     23  C   LIG    1       23.602 -25.204   5.671  0.00  0.00    +0.058 C 
ATOM     24  C   LIG    1       25.816 -26.892   5.061  0.00  0.00    +0.133 C 
ATOM     25  C   LIG    1       23.978 -26.299   6.669  0.00  0.00    +0.133 C 
ENDBRANCH  16  20
ENDBRANCH  14  16
ENDBRANCH   1  14
BRANCH   1  26
ATOM     26  O   LIG    1       25.315 -20.312   8.755  0.00  0.00    -0.370 OA
ATOM     27  H   LIG    1       24.898 -19.485   8.457  0.00  0.00    +0.212 HD
ENDBRANCH   1  26
TORSDOF 6
ENDMDL
