MODEL 1
REMARK VINA RESULT:      -9.4      0.000      0.000
REMARK  Name = *****
REMARK                            x       y       z     vdW  Elec       q    Type
REMARK                         _______ _______ _______ _____ _____    ______ ____
ROOT
ATOM      1  C   LIG    1       26.820 -21.886   7.309  0.00  0.00    +0.084 C 
ATOM      2  C   LIG    1       25.949 -21.622   8.547  0.00  0.00    +0.027 C 
ENDROOT
BRANCH   1   3
ATOM      3  N   LIG    1       26.100 -22.829   6.406  0.00  0.00    -0.308 NA
ATOM      4  H   LIG    1       25.812 -22.355   5.556  0.00  0.00    +0.122 HD
BRANCH   3   6
ATOM      5  C   LIG    1       25.397 -25.147   6.643  0.00  0.00    +0.024 C 
ATOM      6  C   LIG    1       24.995 -23.705   6.877  0.00  0.00    +0.051 C 
BRANCH   6   7
ATOM      7  C   LIG    1       23.536 -23.292   6.451  0.00  0.00    +0.023 C 
BRANCH   7   8
ATOM      8  C   LIG    1       23.051 -21.831   6.676  0.00  0.00    +0.036 C 
BRANCH   8   9
ATOM      9  C   LIG    1       23.181 -20.860   5.516  0.00  0.00    -0.047 A 
ATOM     10  C   LIG    1       22.451 -19.665   5.458  0.00  0.00    +0.003 A 
ATOM     11  C   LIG    1       22.712 -18.716   4.457  0.00  0.00    +0.000 A 
ATOM     12  C   LIG    1       23.731 -18.937   3.534  0.00  0.00    +0.000 A 
ATOM     13  C   LIG    1       24.416 -20.147   3.541  0.00  0.00    +0.000 A 
ATOM     14  C   LIG    1       24.092 -21.126   4.477  0.00  0.00    +0.003 A 
ENDBRANCH   8   9
ENDBRANCH   7   8
ENDBRANCH   6   7
ENDBRANCH   3   6
ENDBRANCH   1   3
BRANCH   1  15
ATOM     15  C   LIG    1       27.483 -20.541   6.741  0.00  0.00    +0.161 C 
BRANCH  15  16
ATOM     16  C   LIG    1       28.898 -20.196   7.190  0.00  0.00    -0.018 A 
ATOM     17  C   LIG    1       29.710 -21.100   7.895  0.00  0.00    +0.010 A 
ATOM     18  C   LIG    1       30.792 -20.706   8.645  0.00  0.00    +0.046 A 
ATOM     19  C   LIG    1       31.232 -19.381   8.562  0.00  0.00    +0.117 A 
ATOM     20  C   LIG    1       30.566 -18.489   7.720  0.00  0.00    +0.046 A 
ATOM     21  C   LIG    1       29.409 -18.888   7.059  0.00  0.00    +0.010 A 
BRANCH  19  22
ATOM     22  O   LIG    1       32.287 -19.033   9.330  0.00  0.00    -0.507 OA
ATOM     23  H   LIG    1       32.001 -19.047  10.262  0.00  0.00    +0.292 HD
ENDBRANCH  19  22
ENDBRANCH  15  16
BRANCH  15  24
ATOM     24  O   LIG    1       27.490 -20.534   5.312  0.00  0.00    -0.386 OA
ATOM     25  H   LIG    1       27.328 -21.444   5.015  0.00  0.00    +0.210 HD
ENDBRANCH  15  24
ENDBRANCH   1  15
TORSDOF 9
ENDMDL
MODEL 2
REMARK VINA RESULT:      -9.3      2.866      7.954
REMARK  Name = *****
REMARK                            x       y       z     vdW  Elec       q    Type
REMARK                         _______ _______ _______ _____ _____    ______ ____
ROOT
ATOM      1  C   LIG    1       27.585 -20.917   7.358  0.00  0.00    +0.084 C 
ATOM      2  C   LIG    1       27.723 -20.058   6.093  0.00  0.00    +0.027 C 
ENDROOT
BRANCH   1   3
ATOM      3  N   LIG    1       28.686 -20.567   8.300  0.00  0.00    -0.308 NA
ATOM      4  H   LIG    1       28.547 -19.634   8.677  0.00  0.00    +0.122 HD
BRANCH   3   6
ATOM      5  C   LIG    1       30.739 -21.682   8.982  0.00  0.00    +0.024 C 
ATOM      6  C   LIG    1       30.121 -20.750   7.960  0.00  0.00    +0.051 C 
BRANCH   6   7
ATOM      7  C   LIG    1       30.933 -19.450   7.597  0.00  0.00    +0.023 C 
BRANCH   7   8
ATOM      8  C   LIG    1       30.402 -18.058   8.047  0.00  0.00    +0.036 C 
BRANCH   8   9
ATOM      9  C   LIG    1       31.014 -17.440   9.290  0.00  0.00    -0.047 A 
ATOM     10  C   LIG    1       30.488 -17.660  10.570  0.00  0.00    +0.003 A 
ATOM     11  C   LIG    1       31.170 -17.208  11.711  0.00  0.00    +0.000 A 
ATOM     12  C   LIG    1       32.401 -16.570  11.582  0.00  0.00    +0.000 A 
ATOM     13  C   LIG    1       32.900 -16.288  10.315  0.00  0.00    +0.000 A 
ATOM     14  C   LIG    1       32.177 -16.654   9.184  0.00  0.00    +0.003 A 
ENDBRANCH   8   9
ENDBRANCH   7   8
ENDBRANCH   6   7
ENDBRANCH   3   6
ENDBRANCH   1   3
BRANCH   1  15
ATOM     15  C   LIG    1       26.064 -21.008   7.861  0.00  0.00    +0.161 C 
BRANCH  15  16
ATOM     16  C   LIG    1       25.292 -22.290   7.574  0.00  0.00    -0.018 A 
ATOM     17  C   LIG    1       25.926 -23.528   7.374  0.00  0.00    +0.010 A 
ATOM     18  C   LIG    1       25.322 -24.583   6.735  0.00  0.00    +0.046 A 
ATOM     19  C   LIG    1       23.958 -24.507   6.433  0.00  0.00    +0.117 A 
ATOM     20  C   LIG    1       23.241 -23.365   6.789  0.00  0.00    +0.046 A 
ATOM     21  C   LIG    1       23.902 -22.269   7.335  0.00  0.00    +0.010 A 
BRANCH  19  22
ATOM     22  O   LIG    1       23.410 -25.560   5.788  0.00  0.00    -0.507 OA
ATOM     23  H   LIG    1       22.737 -25.219   5.171  0.00  0.00    +0.292 HD
ENDBRANCH  19  22
ENDBRANCH  15  16
BRANCH  15  24
ATOM     24  O   LIG    1       25.972 -20.777   9.268  0.00  0.00    -0.386 OA
ATOM     25  H   LIG    1       25.432 -19.981   9.398  0.00  0.00    +0.210 HD
ENDBRANCH  15  24
ENDBRANCH   1  15
TORSDOF 9
ENDMDL
MODEL 3
REMARK VINA RESULT:      -9.2      2.120      3.521
REMARK  Name = *****
REMARK                            x       y       z     vdW  Elec       q    Type
REMARK                         _______ _______ _______ _____ _____    ______ ____
ROOT
ATOM      1  C   LIG    1       29.075 -19.677   7.858  0.00  0.00    +0.084 C 
ATOM      2  C   LIG    1       29.070 -19.416   6.344  0.00  0.00    +0.027 C 
ENDROOT
BRANCH   1   3
ATOM      3  N   LIG    1       28.199 -20.848   8.147  0.00  0.00    -0.308 NA
ATOM      4  H   LIG    1       28.674 -21.714   7.911  0.00  0.00    +0.122 HD
BRANCH   3   6
ATOM      5  C   LIG    1       25.890 -20.525   8.846  0.00  0.00    +0.024 C 
ATOM      6  C   LIG    1       26.786 -20.925   7.692  0.00  0.00    +0.051 C 
BRANCH   6   7
ATOM      7  C   LIG    1       26.374 -22.210   6.880  0.00  0.00    +0.023 C 
BRANCH   7   8
ATOM      8  C   LIG    1       24.959 -22.296   6.239  0.00  0.00    +0.036 C 
BRANCH   8   9
ATOM      9  C   LIG    1       24.422 -21.055   5.550  0.00  0.00    -0.047 A 
ATOM     10  C   LIG    1       25.078 -20.463   4.461  0.00  0.00    +0.003 A 
ATOM     11  C   LIG    1       24.475 -19.416   3.747  0.00  0.00    +0.000 A 
ATOM     12  C   LIG    1       23.197 -18.981   4.089  0.00  0.00    +0.000 A 
ATOM     13  C   LIG    1       22.565 -19.515   5.208  0.00  0.00    +0.000 A 
ATOM     14  C   LIG    1       23.205 -20.489   5.971  0.00  0.00    +0.003 A 
ENDBRANCH   8   9
ENDBRANCH   7   8
ENDBRANCH   6   7
ENDBRANCH   3   6
ENDBRANCH   1   3
BRANCH   1  15
ATOM     15  C   LIG    1       30.549 -19.573   8.482  0.00  0.00    +0.161 C 
BRANCH  15  16
ATOM     16  C   LIG    1       30.933 -18.284   9.198  0.00  0.00    -0.018 A 
ATOM     17  C   LIG    1       32.053 -17.519   8.832  0.00  0.00    +0.010 A 
ATOM     18  C   LIG    1       32.645 -16.609   9.674  0.00  0.00    +0.046 A 
ATOM     19  C   LIG    1       32.010 -16.279  10.876  0.00  0.00    +0.117 A 
ATOM     20  C   LIG    1       30.790 -16.877  11.193  0.00  0.00    +0.046 A 
ATOM     21  C   LIG    1       30.270 -17.875  10.374  0.00  0.00    +0.010 A 
BRANCH  19  22
ATOM     22  O   LIG    1       32.637 -15.394  11.682  0.00  0.00    -0.507 OA
ATOM     23  H   LIG    1       32.336 -14.500  11.440  0.00  0.00    +0.292 HD
ENDBRANCH  19  22
ENDBRANCH  15  16
BRANCH  15  24
ATOM     24  O   LIG    1       30.798 -20.643   9.396  0.00  0.00    -0.386 OA
ATOM     25  H   LIG    1       29.943 -20.915   9.767  0.00  0.00    +0.210 HD
ENDBRANCH  15  24
ENDBRANCH   1  15
TORSDOF 9
ENDMDL
MODEL 4
REMARK VINA RESULT:      -8.9      1.368      3.925
REMARK  Name = *****
REMARK                            x       y       z     vdW  Elec       q    Type
REMARK                         _______ _______ _______ _____ _____    ______ ____
ROOT
ATOM      1  C   LIG    1       25.990 -20.702   6.784  0.00  0.00    +0.084 C 
ATOM      2  C   LIG    1       25.677 -20.664   8.286  0.00  0.00    +0.027 C 
ENDROOT
BRANCH   1   3
ATOM      3  N   LIG    1       24.752 -20.365   6.025  0.00  0.00    -0.308 NA
ATOM      4  H   LIG    1       24.367 -19.483   6.349  0.00  0.00    +0.122 HD
BRANCH   3   6
ATOM      5  C   LIG    1       22.492 -20.615   5.158  0.00  0.00    +0.024 C 
ATOM      6  C   LIG    1       23.647 -21.337   5.821  0.00  0.00    +0.051 C 
BRANCH   6   7
ATOM      7  C   LIG    1       23.299 -22.277   7.036  0.00  0.00    +0.023 C 
BRANCH   7   8
ATOM      8  C   LIG    1       22.972 -23.777   6.782  0.00  0.00    +0.036 C 
BRANCH   8   9
ATOM      9  C   LIG    1       24.118 -24.687   6.378  0.00  0.00    -0.047 A 
ATOM     10  C   LIG    1       25.444 -24.426   6.748  0.00  0.00    +0.003 A 
ATOM     11  C   LIG    1       26.455 -25.368   6.497  0.00  0.00    +0.000 A 
ATOM     12  C   LIG    1       26.140 -26.592   5.914  0.00  0.00    +0.000 A 
ATOM     13  C   LIG    1       24.839 -26.835   5.482  0.00  0.00    +0.000 A 
ATOM     14  C   LIG    1       23.858 -25.861   5.647  0.00  0.00    +0.003 A 
ENDBRANCH   8   9
ENDBRANCH   7   8
ENDBRANCH   6   7
ENDBRANCH   3   6
ENDBRANCH   1   3
BRANCH   1  15
ATOM     15  C   LIG    1       27.388 -19.993   6.442  0.00  0.00    +0.161 C 
BRANCH  15  16
ATOM     16  C   LIG    1       28.528 -20.140   7.443  0.00  0.00    -0.018 A 
ATOM     17  C   LIG    1       29.224 -19.037   7.965  0.00  0.00    +0.010 A 
ATOM     18  C   LIG    1       30.473 -19.140   8.530  0.00  0.00    +0.046 A 
ATOM     19  C   LIG    1       31.006 -20.409   8.776  0.00  0.00    +0.117 A 
ATOM     20  C   LIG    1       30.261 -21.542   8.447  0.00  0.00    +0.046 A 
ATOM     21  C   LIG    1       29.050 -21.407   7.776  0.00  0.00    +0.010 A 
BRANCH  19  22
ATOM     22  O   LIG    1       32.244 -20.463   9.316  0.00  0.00    -0.507 OA
ATOM     23  H   LIG    1       32.188 -20.140  10.234  0.00  0.00    +0.292 HD
ENDBRANCH  19  22
ENDBRANCH  15  16
BRANCH  15  24
ATOM     24  O   LIG    1       27.890 -20.429   5.177  0.00  0.00    -0.386 OA
ATOM     25  H   LIG    1       28.056 -21.383   5.241  0.00  0.00    +0.210 HD
ENDBRANCH  15  24
ENDBRANCH   1  15
TORSDOF 9
ENDMDL
MODEL 5
REMARK VINA RESULT:      -8.9      2.501      6.534
REMARK  Name = *****
REMARK                            x       y       z     vdW  Elec       q    Type
REMARK                         _______ _______ _______ _____ _____    ______ ____
ROOT
ATOM      1  C   LIG    1       23.021 -21.154   5.464  0.00  0.00    +0.084 C 
ATOM      2  C   LIG    1       22.437 -19.750   5.677  0.00  0.00    +0.027 C 
ENDROOT
BRANCH   1   3
ATOM      3  N   LIG    1       24.198 -21.052   4.554  0.00  0.00    -0.308 NA
ATOM      4  H   LIG    1       24.711 -21.929   4.538  0.00  0.00    +0.122 HD
BRANCH   3   6
ATOM      5  C   LIG    1       25.005 -19.097   3.352  0.00  0.00    +0.024 C 
ATOM      6  C   LIG    1       25.162 -19.922   4.612  0.00  0.00    +0.051 C 
BRANCH   6   7
ATOM      7  C   LIG    1       26.631 -20.269   5.061  0.00  0.00    +0.023 C 
BRANCH   7   8
ATOM      8  C   LIG    1       27.004 -20.240   6.571  0.00  0.00    +0.036 C 
BRANCH   8   9
ATOM      9  C   LIG    1       28.478 -20.222   6.932  0.00  0.00    -0.047 A 
ATOM     10  C   LIG    1       29.346 -19.222   6.474  0.00  0.00    +0.003 A 
ATOM     11  C   LIG    1       30.663 -19.143   6.954  0.00  0.00    +0.000 A 
ATOM     12  C   LIG    1       31.107 -20.038   7.924  0.00  0.00    +0.000 A 
ATOM     13  C   LIG    1       30.276 -21.074   8.337  0.00  0.00    +0.000 A 
ATOM     14  C   LIG    1       29.003 -21.206   7.790  0.00  0.00    +0.003 A 
ENDBRANCH   8   9
ENDBRANCH   7   8
ENDBRANCH   6   7
ENDBRANCH   3   6
ENDBRANCH   1   3
BRANCH   1  15
ATOM     15  C   LIG    1       23.103 -21.988   6.832  0.00  0.00    +0.161 C 
BRANCH  15  16
ATOM     16  C   LIG    1       23.981 -23.232   6.860  0.00  0.00    -0.018 A 
ATOM     17  C   LIG    1       25.352 -23.185   7.161  0.00  0.00    +0.010 A 
ATOM     18  C   LIG    1       26.230 -24.183   6.811  0.00  0.00    +0.046 A 
ATOM     19  C   LIG    1       25.727 -25.386   6.304  0.00  0.00    +0.117 A 
ATOM     20  C   LIG    1       24.348 -25.549   6.167  0.00  0.00    +0.046 A 
ATOM     21  C   LIG    1       23.492 -24.482   6.425  0.00  0.00    +0.010 A 
BRANCH  19  22
ATOM     22  O   LIG    1       26.627 -26.332   5.956  0.00  0.00    -0.507 OA
ATOM     23  H   LIG    1       27.283 -25.921   5.364  0.00  0.00    +0.292 HD
ENDBRANCH  19  22
ENDBRANCH  15  16
BRANCH  15  24
ATOM     24  O   LIG    1       23.526 -21.158   7.916  0.00  0.00    -0.386 OA
ATOM     25  H   LIG    1       24.444 -20.895   7.740  0.00  0.00    +0.210 HD
ENDBRANCH  15  24
ENDBRANCH   1  15
TORSDOF 9
ENDMDL
MODEL 6
REMARK VINA RESULT:      -8.8      2.178      4.883
REMARK  Name = *****
REMARK                            x       y       z     vdW  Elec       q    Type
REMARK                         _______ _______ _______ _____ _____    ______ ____
ROOT
ATOM      1  C   LIG    1       26.245 -21.241   7.057  0.00  0.00    +0.084 C 
ATOM      2  C   LIG    1       25.799 -20.824   8.466  0.00  0.00    +0.027 C 
ENDROOT
BRANCH   1   3
ATOM      3  N   LIG    1       25.056 -21.723   6.298  0.00  0.00    -0.308 NA
ATOM      4  H   LIG    1       24.253 -21.130   6.484  0.00  0.00    +0.122 HD
BRANCH   3   6
ATOM      5  C   LIG    1       23.205 -23.214   6.821  0.00  0.00    +0.024 C 
ATOM      6  C   LIG    1       24.626 -23.146   6.300  0.00  0.00    +0.051 C 
BRANCH   6   7
ATOM      7  C   LIG    1       25.650 -24.193   6.881  0.00  0.00    +0.023 C 
BRANCH   7   8
ATOM      8  C   LIG    1       26.039 -25.441   6.037  0.00  0.00    +0.036 C 
BRANCH   8   9
ATOM      9  C   LIG    1       25.458 -26.780   6.453  0.00  0.00    -0.047 A 
ATOM     10  C   LIG    1       24.486 -27.442   5.689  0.00  0.00    +0.003 A 
ATOM     11  C   LIG    1       24.088 -28.748   6.015  0.00  0.00    +0.000 A 
ATOM     12  C   LIG    1       24.688 -29.416   7.080  0.00  0.00    +0.000 A 
ATOM     13  C   LIG    1       25.605 -28.746   7.884  0.00  0.00    +0.000 A 
ATOM     14  C   LIG    1       25.928 -27.419   7.615  0.00  0.00    +0.003 A 
ENDBRANCH   8   9
ENDBRANCH   7   8
ENDBRANCH   6   7
ENDBRANCH   3   6
ENDBRANCH   1   3
BRANCH   1  15
ATOM     15  C   LIG    1       27.267 -20.186   6.412  0.00  0.00    +0.161 C 
BRANCH  15  16
ATOM     16  C   LIG    1       28.703 -20.177   6.921  0.00  0.00    -0.018 A 
ATOM     17  C   LIG    1       29.249 -21.236   7.665  0.00  0.00    +0.010 A 
ATOM     18  C   LIG    1       30.362 -21.096   8.460  0.00  0.00    +0.046 A 
ATOM     19  C   LIG    1       31.104 -19.913   8.389  0.00  0.00    +0.117 A 
ATOM     20  C   LIG    1       30.703 -18.903   7.514  0.00  0.00    +0.046 A 
ATOM     21  C   LIG    1       29.513 -19.028   6.806  0.00  0.00    +0.010 A 
BRANCH  19  22
ATOM     22  O   LIG    1       32.180 -19.812   9.201  0.00  0.00    -0.507 OA
ATOM     23  H   LIG    1       32.914 -19.432   8.684  0.00  0.00    +0.292 HD
ENDBRANCH  19  22
ENDBRANCH  15  16
BRANCH  15  24
ATOM     24  O   LIG    1       27.332 -20.335   4.992  0.00  0.00    -0.386 OA
ATOM     25  H   LIG    1       27.412 -21.283   4.801  0.00  0.00    +0.210 HD
ENDBRANCH  15  24
ENDBRANCH   1  15
TORSDOF 9
ENDMDL
MODEL 7
REMARK VINA RESULT:      -8.7      2.241      5.514
REMARK  Name = *****
REMARK                            x       y       z     vdW  Elec       q    Type
REMARK                         _______ _______ _______ _____ _____    ______ ____
ROOT
ATOM      1  C   LIG    1       24.400 -21.361   5.381  0.00  0.00    +0.084 C 
ATOM      2  C   LIG    1       23.069 -20.874   4.791  0.00  0.00    +0.027 C 
ENDROOT
BRANCH   1   3
ATOM      3  N   LIG    1       24.625 -22.774   4.959  0.00  0.00    -0.308 NA
ATOM      4  H   LIG    1       24.150 -22.961   4.081  0.00  0.00    +0.122 HD
BRANCH   3   6
ATOM      5  C   LIG    1       23.255 -23.624   6.781  0.00  0.00    +0.024 C 
ATOM      6  C   LIG    1       24.432 -23.926   5.877  0.00  0.00    +0.051 C 
BRANCH   6   7
ATOM      7  C   LIG    1       25.726 -24.509   6.560  0.00  0.00    +0.023 C 
BRANCH   7   8
ATOM      8  C   LIG    1       26.305 -25.871   6.079  0.00  0.00    +0.036 C 
BRANCH   8   9
ATOM      9  C   LIG    1       25.553 -27.131   6.465  0.00  0.00    -0.047 A 
ATOM     10  C   LIG    1       24.577 -27.701   5.636  0.00  0.00    +0.003 A 
ATOM     11  C   LIG    1       24.016 -28.950   5.947  0.00  0.00    +0.000 A 
ATOM     12  C   LIG    1       24.457 -29.656   7.064  0.00  0.00    +0.000 A 
ATOM     13  C   LIG    1       25.376 -29.071   7.929  0.00  0.00    +0.000 A 
ATOM     14  C   LIG    1       25.861 -27.792   7.669  0.00  0.00    +0.003 A 
ENDBRANCH   8   9
ENDBRANCH   7   8
ENDBRANCH   6   7
ENDBRANCH   3   6
ENDBRANCH   1   3
BRANCH   1  15
ATOM     15  C   LIG    1       25.559 -20.262   5.242  0.00  0.00    +0.161 C 
BRANCH  15  16
ATOM     16  C   LIG    1       26.759 -20.366   6.175  0.00  0.00    -0.018 A 
ATOM     17  C   LIG    1       28.027 -19.863   5.838  0.00  0.00    +0.010 A 
ATOM     18  C   LIG    1       29.184 -20.282   6.449  0.00  0.00    +0.046 A 
ATOM     19  C   LIG    1       29.100 -21.097   7.583  0.00  0.00    +0.117 A 
ATOM     20  C   LIG    1       27.846 -21.466   8.070  0.00  0.00    +0.046 A 
ATOM     21  C   LIG    1       26.696 -21.119   7.366  0.00  0.00    +0.010 A 
BRANCH  19  22
ATOM     22  O   LIG    1       30.263 -21.499   8.140  0.00  0.00    -0.507 OA
ATOM     23  H   LIG    1       30.444 -22.408   7.840  0.00  0.00    +0.292 HD
ENDBRANCH  19  22
ENDBRANCH  15  16
BRANCH  15  24
ATOM     24  O   LIG    1       26.074 -20.221   3.910  0.00  0.00    -0.386 OA
ATOM     25  H   LIG    1       25.680 -19.452   3.468  0.00  0.00    +0.210 HD
ENDBRANCH  15  24
ENDBRANCH   1  15
TORSDOF 9
ENDMDL
MODEL 8
REMARK VINA RESULT:      -8.7      2.525      6.836
REMARK  Name = *****
REMARK                            x       y       z     vdW  Elec       q    Type
REMARK                         _______ _______ _______ _____ _____    ______ ____
ROOT
ATOM      1  C   LIG    1       25.489 -23.555   6.792  0.00  0.00    +0.084 C 
ATOM      2  C   LIG    1       25.733 -25.068   6.895  0.00  0.00    +0.027 C 
ENDROOT
BRANCH   1   3
ATOM      3  N   LIG    1       26.801 -22.851   6.852  0.00  0.00    -0.308 NA
ATOM      4  H   LIG    1       27.545 -23.506   7.071  0.00  0.00    +0.122 HD
BRANCH   3   6
ATOM      5  C   LIG    1       25.877 -21.469   8.629  0.00  0.00    +0.024 C 
ATOM      6  C   LIG    1       27.006 -21.599   7.627  0.00  0.00    +0.051 C 
BRANCH   6   7
ATOM      7  C   LIG    1       27.381 -20.310   6.803  0.00  0.00    +0.023 C 
BRANCH   7   8
ATOM      8  C   LIG    1       28.856 -20.077   6.365  0.00  0.00    +0.036 C 
BRANCH   8   9
ATOM      9  C   LIG    1       29.782 -19.394   7.354  0.00  0.00    -0.047 A 
ATOM     10  C   LIG    1       31.161 -19.281   7.129  0.00  0.00    +0.003 A 
ATOM     11  C   LIG    1       31.964 -18.506   7.981  0.00  0.00    +0.000 A 
ATOM     12  C   LIG    1       31.387 -17.805   9.037  0.00  0.00    +0.000 A 
ATOM     13  C   LIG    1       30.032 -17.961   9.309  0.00  0.00    +0.000 A 
ATOM     14  C   LIG    1       29.256 -18.805   8.519  0.00  0.00    +0.003 A 
ENDBRANCH   8   9
ENDBRANCH   7   8
ENDBRANCH   6   7
ENDBRANCH   3   6
ENDBRANCH   1   3
BRANCH   1  15
ATOM     15  C   LIG    1       24.407 -23.194   5.665  0.00  0.00    +0.161 C 
BRANCH  15  16
ATOM     16  C   LIG    1       24.106 -21.723   5.407  0.00  0.00    -0.018 A 
ATOM     17  C   LIG    1       23.166 -20.999   6.159  0.00  0.00    +0.010 A 
ATOM     18  C   LIG    1       22.590 -19.833   5.715  0.00  0.00    +0.046 A 
ATOM     19  C   LIG    1       23.086 -19.227   4.556  0.00  0.00    +0.117 A 
ATOM     20  C   LIG    1       24.154 -19.815   3.878  0.00  0.00    +0.046 A 
ATOM     21  C   LIG    1       24.643 -21.051   4.289  0.00  0.00    +0.010 A 
BRANCH  19  22
ATOM     22  O   LIG    1       22.478 -18.092   4.146  0.00  0.00    -0.507 OA
ATOM     23  H   LIG    1       21.528 -18.167   4.351  0.00  0.00    +0.292 HD
ENDBRANCH  19  22
ENDBRANCH  15  16
BRANCH  15  24
ATOM     24  O   LIG    1       24.763 -23.770   4.406  0.00  0.00    -0.386 OA
ATOM     25  H   LIG    1       25.465 -23.220   4.022  0.00  0.00    +0.210 HD
ENDBRANCH  15  24
ENDBRANCH   1  15
TORSDOF 9
ENDMDL
MODEL 9
REMARK VINA RESULT:      -8.5      1.581      4.101
REMARK  Name = *****
REMARK                            x       y       z     vdW  Elec       q    Type
REMARK                         _______ _______ _______ _____ _____    ______ ____
ROOT
ATOM      1  C   LIG    1       26.405 -20.768   6.369  0.00  0.00    +0.084 C 
ATOM      2  C   LIG    1       27.222 -19.893   5.407  0.00  0.00    +0.027 C 
ENDROOT
BRANCH   1   3
ATOM      3  N   LIG    1       25.488 -21.633   5.573  0.00  0.00    -0.308 NA
ATOM      4  H   LIG    1       25.585 -21.434   4.582  0.00  0.00    +0.122 HD
BRANCH   3   6
ATOM      5  C   LIG    1       23.429 -20.415   6.019  0.00  0.00    +0.024 C 
ATOM      6  C   LIG    1       24.048 -21.793   5.902  0.00  0.00    +0.051 C 
BRANCH   6   7
ATOM      7  C   LIG    1       23.692 -22.833   7.031  0.00  0.00    +0.023 C 
BRANCH   7   8
ATOM      8  C   LIG    1       23.214 -24.262   6.640  0.00  0.00    +0.036 C 
BRANCH   8   9
ATOM      9  C   LIG    1       24.278 -25.298   6.328  0.00  0.00    -0.047 A 
ATOM     10  C   LIG    1       23.992 -26.468   5.610  0.00  0.00    +0.003 A 
ATOM     11  C   LIG    1       25.025 -27.325   5.199  0.00  0.00    +0.000 A 
ATOM     12  C   LIG    1       26.352 -26.998   5.466  0.00  0.00    +0.000 A 
ATOM     13  C   LIG    1       26.643 -25.875   6.234  0.00  0.00    +0.000 A 
ATOM     14  C   LIG    1       25.611 -25.077   6.720  0.00  0.00    +0.003 A 
ENDBRANCH   8   9
ENDBRANCH   7   8
ENDBRANCH   6   7
ENDBRANCH   3   6
ENDBRANCH   1   3
BRANCH   1  15
ATOM     15  C   LIG    1       27.311 -21.382   7.541  0.00  0.00    +0.161 C 
BRANCH  15  16
ATOM     16  C   LIG    1       28.686 -20.770   7.778  0.00  0.00    -0.018 A 
ATOM     17  C   LIG    1       29.823 -21.546   8.053  0.00  0.00    +0.010 A 
ATOM     18  C   LIG    1       30.950 -21.036   8.652  0.00  0.00    +0.046 A 
ATOM     19  C   LIG    1       31.061 -19.653   8.829  0.00  0.00    +0.117 A 
ATOM     20  C   LIG    1       30.030 -18.821   8.392  0.00  0.00    +0.046 A 
ATOM     21  C   LIG    1       28.855 -19.374   7.891  0.00  0.00    +0.010 A 
BRANCH  19  22
ATOM     22  O   LIG    1       32.178 -19.198   9.439  0.00  0.00    -0.507 OA
ATOM     23  H   LIG    1       32.794 -18.890   8.750  0.00  0.00    +0.292 HD
ENDBRANCH  19  22
ENDBRANCH  15  16
BRANCH  15  24
ATOM     24  O   LIG    1       26.623 -21.350   8.794  0.00  0.00    -0.386 OA
ATOM     25  H   LIG    1       25.812 -20.831   8.668  0.00  0.00    +0.210 HD
ENDBRANCH  15  24
ENDBRANCH   1  15
TORSDOF 9
ENDMDL
