MODEL 1
REMARK VINA RESULT:       1.6      0.000      0.000
REMARK  Name = *****
REMARK                            x       y       z     vdW  Elec       q    Type
REMARK                         _______ _______ _______ _____ _____    ______ ____
ROOT
ATOM      1  C   LIG    1       23.312 -20.982   5.337  0.00  0.00    +0.002 C 
ATOM      2  C   LIG    1       23.134 -19.751   4.375  0.00  0.00    -0.022 C 
ATOM      3  C   LIG    1       23.425 -18.562   5.320  0.00  0.00    +0.021 C 
ATOM      4  C   LIG    1       23.050 -17.234   4.698  0.00  0.00    -0.066 C 
ATOM      5  C   LIG    1       21.613 -17.143   4.284  0.00  0.00    +0.031 C 
ATOM      6  C   LIG    1       21.257 -18.288   3.329  0.00  0.00    +0.005 C 
ATOM      7  C   LIG    1       24.046 -16.356   4.417  0.00  0.00    -0.001 C 
ATOM      8  C   LIG    1       22.732 -18.943   6.629  0.00  0.00    +0.009 C 
ATOM      9  C   LIG    1       24.052 -19.722   3.139  0.00  0.00    +0.012 C 
ATOM     10  C   LIG    1       21.652 -19.669   3.875  0.00  0.00    +0.008 C 
ATOM     11  C   LIG    1       22.687 -20.476   6.660  0.00  0.00    +0.005 C 
ENDROOT
BRANCH   7  12
ATOM     12  C   LIG    1       23.964 -15.144   3.646  0.00  0.00    -0.001 C 
ATOM     13  C   LIG    1       25.040 -14.492   3.126  0.00  0.00    -0.064 C 
ATOM     14  C   LIG    1       24.953 -13.244   2.244  0.00  0.00    +0.012 C 
ATOM     15  C   LIG    1       23.549 -12.682   1.977  0.00  0.00    +0.012 C 
ATOM     16  C   LIG    1       25.856 -12.131   2.795  0.00  0.00    +0.010 C 
ATOM     17  C   LIG    1       27.300 -12.598   2.958  0.00  0.00    +0.032 C 
ATOM     18  C   LIG    1       27.386 -13.848   3.827  0.00  0.00    +0.118 C 
ATOM     19  C   LIG    1       26.474 -14.960   3.297  0.00  0.00    +0.062 C 
BRANCH  18  20
ATOM     20  O   LIG    1       28.739 -14.298   3.841  0.00  0.00    -0.392 OA
ATOM     21  H   LIG    1       29.162 -13.923   4.633  0.00  0.00    +0.210 HD
ENDBRANCH  18  20
ENDBRANCH   7  12
BRANCH   1  22
ATOM     22  C   LIG    1       24.751 -21.572   5.568  0.00  0.00    +0.012 C 
ATOM     23  C   LIG    1       25.224 -21.344   7.013  0.00  0.00    +0.012 C 
BRANCH  22  25
ATOM     24  C   LIG    1       26.809 -20.327   4.447  0.00  0.00    -0.027 C 
ATOM     25  C   LIG    1       25.775 -21.187   4.510  0.00  0.00    -0.027 C 
BRANCH  24  26
ATOM     26  C   LIG    1       27.418 -19.390   5.475  0.00  0.00    +0.011 C 
ATOM     27  C   LIG    1       27.773 -18.039   4.830  0.00  0.00    +0.012 C 
BRANCH  26  29
ATOM     28  C   LIG    1       29.475 -18.934   6.926  0.00  0.00    +0.008 C 
ATOM     29  C   LIG    1       28.694 -19.998   6.140  0.00  0.00    -0.011 C 
ATOM     30  C   LIG    1       28.388 -21.183   7.060  0.00  0.00    +0.008 C 
ENDBRANCH  26  29
ENDBRANCH  24  26
ENDBRANCH  22  25
ENDBRANCH   1  22
TORSDOF 6
ENDMDL
