MODEL 1
REMARK VINA RESULT:      -3.1      0.000      0.000
REMARK  Name = *****
REMARK                            x       y       z     vdW  Elec       q    Type
REMARK                         _______ _______ _______ _____ _____    ______ ____
ROOT
ATOM      1 CL   LIG    1       26.091 -17.305   3.313  0.00  0.00    -0.119 Cl
ATOM      2  C   LIG    1       25.491 -18.961   3.699  0.00  0.00    +0.119 C 
ATOM      3  C   LIG    1       23.957 -19.034   3.547  0.00  0.00    +0.119 C 
ATOM      4 CL   LIG    1       23.118 -17.768   4.512  0.00  0.00    -0.119 Cl
ATOM      5  C   LIG    1       23.410 -20.431   3.900  0.00  0.00    +0.119 C 
ATOM      6 CL   LIG    1       23.852 -21.572   2.565  0.00  0.00    -0.119 Cl
ATOM      7  C   LIG    1       23.938 -21.009   5.228  0.00  0.00    +0.119 C 
ATOM      8 CL   LIG    1       23.093 -20.251   6.624  0.00  0.00    -0.119 Cl
ATOM      9  C   LIG    1       25.472 -20.889   5.339  0.00  0.00    +0.119 C 
ATOM     10 CL   LIG    1       26.050 -21.541   6.918  0.00  0.00    -0.119 Cl
ATOM     11  C   LIG    1       25.991 -19.461   5.070  0.00  0.00    +0.119 C 
ATOM     12 CL   LIG    1       27.801 -19.468   5.083  0.00  0.00    -0.119 Cl
ENDROOT
TORSDOF 0
ENDMDL
MODEL 2
REMARK VINA RESULT:      -2.5      0.752      2.030
REMARK  Name = *****
REMARK                            x       y       z     vdW  Elec       q    Type
REMARK                         _______ _______ _______ _____ _____    ______ ____
ROOT
ATOM      1 CL   LIG    1       27.743 -19.180   4.847  0.00  0.00    -0.119 Cl
ATOM      2  C   LIG    1       26.140 -19.955   4.563  0.00  0.00    +0.119 C 
ATOM      3  C   LIG    1       25.371 -19.224   3.443  0.00  0.00    +0.119 C 
ATOM      4 CL   LIG    1       25.223 -17.459   3.761  0.00  0.00    -0.119 Cl
ATOM      5  C   LIG    1       23.982 -19.846   3.198  0.00  0.00    +0.119 C 
ATOM      6 CL   LIG    1       24.208 -21.434   2.357  0.00  0.00    -0.119 Cl
ATOM      7  C   LIG    1       23.153 -20.086   4.475  0.00  0.00    +0.119 C 
ATOM      8 CL   LIG    1       22.434 -18.542   5.058  0.00  0.00    -0.119 Cl
ATOM      9  C   LIG    1       23.975 -20.796   5.570  0.00  0.00    +0.119 C 
ATOM     10 CL   LIG    1       22.987 -21.028   7.060  0.00  0.00    -0.119 Cl
ATOM     11  C   LIG    1       25.323 -20.106   5.864  0.00  0.00    +0.119 C 
ATOM     12 CL   LIG    1       26.262 -21.100   7.050  0.00  0.00    -0.119 Cl
ENDROOT
TORSDOF 0
ENDMDL
MODEL 3
REMARK VINA RESULT:      -1.1      0.969      2.801
REMARK  Name = *****
REMARK                            x       y       z     vdW  Elec       q    Type
REMARK                         _______ _______ _______ _____ _____    ______ ____
ROOT
ATOM      1 CL   LIG    1       21.977 -17.602   4.429  0.00  0.00    -0.119 Cl
ATOM      2  C   LIG    1       23.307 -18.739   3.992  0.00  0.00    +0.119 C 
ATOM      3  C   LIG    1       23.049 -20.137   4.591  0.00  0.00    +0.119 C 
ATOM      4 CL   LIG    1       22.769 -20.074   6.368  0.00  0.00    -0.119 Cl
ATOM      5  C   LIG    1       24.185 -21.124   4.260  0.00  0.00    +0.119 C 
ATOM      6 CL   LIG    1       24.060 -21.571   2.509  0.00  0.00    -0.119 Cl
ATOM      7  C   LIG    1       25.603 -20.580   4.523  0.00  0.00    +0.119 C 
ATOM      8 CL   LIG    1       25.980 -20.632   6.282  0.00  0.00    -0.119 Cl
ATOM      9  C   LIG    1       25.800 -19.172   3.925  0.00  0.00    +0.119 C 
ATOM     10 CL   LIG    1       27.456 -18.553   4.282  0.00  0.00    -0.119 Cl
ATOM     11  C   LIG    1       24.700 -18.175   4.342  0.00  0.00    +0.119 C 
ATOM     12 CL   LIG    1       24.949 -16.607   3.472  0.00  0.00    -0.119 Cl
ENDROOT
TORSDOF 0
ENDMDL
MODEL 4
REMARK VINA RESULT:      -1.1      1.352      3.684
REMARK  Name = *****
REMARK                            x       y       z     vdW  Elec       q    Type
REMARK                         _______ _______ _______ _____ _____    ______ ____
ROOT
ATOM      1 CL   LIG    1       22.691 -21.571   7.061  0.00  0.00    -0.119 Cl
ATOM      2  C   LIG    1       23.230 -20.204   6.016  0.00  0.00    +0.119 C 
ATOM      3  C   LIG    1       22.240 -19.982   4.854  0.00  0.00    +0.119 C 
ATOM      4 CL   LIG    1       21.955 -21.487   3.908  0.00  0.00    -0.119 Cl
ATOM      5  C   LIG    1       22.690 -18.838   3.924  0.00  0.00    +0.119 C 
ATOM      6 CL   LIG    1       22.429 -17.266   4.785  0.00  0.00    -0.119 Cl
ATOM      7  C   LIG    1       24.166 -18.913   3.486  0.00  0.00    +0.119 C 
ATOM      8 CL   LIG    1       24.376 -20.141   2.188  0.00  0.00    -0.119 Cl
ATOM      9  C   LIG    1       25.110 -19.160   4.681  0.00  0.00    +0.119 C 
ATOM     10 CL   LIG    1       26.822 -19.277   4.127  0.00  0.00    -0.119 Cl
ATOM     11  C   LIG    1       24.692 -20.365   5.548  0.00  0.00    +0.119 C 
ATOM     12 CL   LIG    1       25.777 -20.472   6.993  0.00  0.00    -0.119 Cl
ENDROOT
TORSDOF 0
ENDMDL
MODEL 5
REMARK VINA RESULT:      -0.7      4.856      6.303
REMARK  Name = *****
REMARK                            x       y       z     vdW  Elec       q    Type
REMARK                         _______ _______ _______ _____ _____    ______ ____
ROOT
ATOM      1 CL   LIG    1       27.989 -12.573   5.276  0.00  0.00    -0.119 Cl
ATOM      2  C   LIG    1       26.662 -13.195   4.226  0.00  0.00    +0.119 C 
ATOM      3  C   LIG    1       25.383 -12.350   4.405  0.00  0.00    +0.119 C 
ATOM      4 CL   LIG    1       24.883 -12.233   6.130  0.00  0.00    -0.119 Cl
ATOM      5  C   LIG    1       24.220 -12.876   3.541  0.00  0.00    +0.119 C 
ATOM      6 CL   LIG    1       24.559 -12.459   1.812  0.00  0.00    -0.119 Cl
ATOM      7  C   LIG    1       23.987 -14.396   3.638  0.00  0.00    +0.119 C 
ATOM      8 CL   LIG    1       23.127 -14.805   5.165  0.00  0.00    -0.119 Cl
ATOM      9  C   LIG    1       25.298 -15.191   3.477  0.00  0.00    +0.119 C 
ATOM     10 CL   LIG    1       24.994 -16.962   3.631  0.00  0.00    -0.119 Cl
ATOM     11  C   LIG    1       26.423 -14.707   4.415  0.00  0.00    +0.119 C 
ATOM     12 CL   LIG    1       27.948 -15.607   4.039  0.00  0.00    -0.119 Cl
ENDROOT
TORSDOF 0
ENDMDL
MODEL 6
REMARK VINA RESULT:      -0.3      4.891      7.077
REMARK  Name = *****
REMARK                            x       y       z     vdW  Elec       q    Type
REMARK                         _______ _______ _______ _____ _____    ______ ____
ROOT
ATOM      1 CL   LIG    1       23.244 -11.952   4.390  0.00  0.00    -0.119 Cl
ATOM      2  C   LIG    1       24.691 -13.014   4.562  0.00  0.00    +0.119 C 
ATOM      3  C   LIG    1       25.968 -12.273   4.116  0.00  0.00    +0.119 C 
ATOM      4 CL   LIG    1       25.817 -11.599   2.454  0.00  0.00    -0.119 Cl
ATOM      5  C   LIG    1       27.220 -13.167   4.223  0.00  0.00    +0.119 C 
ATOM      6 CL   LIG    1       27.636 -13.358   5.975  0.00  0.00    -0.119 Cl
ATOM      7  C   LIG    1       27.059 -14.570   3.605  0.00  0.00    +0.119 C 
ATOM      8 CL   LIG    1       27.189 -14.486   1.812  0.00  0.00    -0.119 Cl
ATOM      9  C   LIG    1       25.756 -15.256   4.064  0.00  0.00    +0.119 C 
ATOM     10 CL   LIG    1       25.584 -16.878   3.295  0.00  0.00    -0.119 Cl
ATOM     11  C   LIG    1       24.503 -14.378   3.865  0.00  0.00    +0.119 C 
ATOM     12 CL   LIG    1       23.063 -15.219   4.567  0.00  0.00    -0.119 Cl
ENDROOT
TORSDOF 0
ENDMDL
MODEL 7
REMARK VINA RESULT:      -0.1      4.241      6.047
REMARK  Name = *****
REMARK                            x       y       z     vdW  Elec       q    Type
REMARK                         _______ _______ _______ _____ _____    ______ ____
ROOT
ATOM      1 CL   LIG    1       28.165 -15.252   3.907  0.00  0.00    -0.119 Cl
ATOM      2  C   LIG    1       26.478 -14.781   3.481  0.00  0.00    +0.119 C 
ATOM      3  C   LIG    1       26.188 -13.331   3.924  0.00  0.00    +0.119 C 
ATOM      4 CL   LIG    1       26.544 -13.070   5.669  0.00  0.00    -0.119 Cl
ATOM      5  C   LIG    1       24.741 -12.909   3.601  0.00  0.00    +0.119 C 
ATOM      6 CL   LIG    1       24.605 -12.660   1.812  0.00  0.00    -0.119 Cl
ATOM      7  C   LIG    1       23.666 -13.925   4.033  0.00  0.00    +0.119 C 
ATOM      8 CL   LIG    1       23.373 -13.816   5.805  0.00  0.00    -0.119 Cl
ATOM      9  C   LIG    1       24.016 -15.359   3.587  0.00  0.00    +0.119 C 
ATOM     10 CL   LIG    1       22.756 -16.525   4.140  0.00  0.00    -0.119 Cl
ATOM     11  C   LIG    1       25.437 -15.795   4.000  0.00  0.00    +0.119 C 
ATOM     12 CL   LIG    1       25.792 -17.428   3.303  0.00  0.00    -0.119 Cl
ENDROOT
TORSDOF 0
ENDMDL
MODEL 8
REMARK VINA RESULT:      -0.1      4.377      6.728
REMARK  Name = *****
REMARK                            x       y       z     vdW  Elec       q    Type
REMARK                         _______ _______ _______ _____ _____    ______ ____
ROOT
ATOM      1 CL   LIG    1       25.336 -17.450   3.307  0.00  0.00    -0.119 Cl
ATOM      2  C   LIG    1       25.583 -15.664   3.335  0.00  0.00    +0.119 C 
ATOM      3  C   LIG    1       27.086 -15.322   3.392  0.00  0.00    +0.119 C 
ATOM      4 CL   LIG    1       27.917 -16.141   4.762  0.00  0.00    -0.119 Cl
ATOM      5  C   LIG    1       27.328 -13.800   3.447  0.00  0.00    +0.119 C 
ATOM      6 CL   LIG    1       26.972 -13.106   1.813  0.00  0.00    -0.119 Cl
ATOM      7  C   LIG    1       26.474 -13.053   4.490  0.00  0.00    +0.119 C 
ATOM      8 CL   LIG    1       27.148 -13.288   6.142  0.00  0.00    -0.119 Cl
ATOM      9  C   LIG    1       24.985 -13.449   4.405  0.00  0.00    +0.119 C 
ATOM     10 CL   LIG    1       24.023 -12.584   5.661  0.00  0.00    -0.119 Cl
ATOM     11  C   LIG    1       24.759 -14.975   4.443  0.00  0.00    +0.119 C 
ATOM     12 CL   LIG    1       23.001 -15.328   4.191  0.00  0.00    -0.119 Cl
ENDROOT
TORSDOF 0
ENDMDL
