MODEL 1
REMARK VINA RESULT:      -8.4      0.000      0.000
REMARK  Name = *****
REMARK                            x       y       z     vdW  Elec       q    Type
REMARK                         _______ _______ _______ _____ _____    ______ ____
ROOT
ATOM      1  C   LIG    1       25.737 -26.183   6.192  0.00  0.00    +0.143 A 
ATOM      2  C   LIG    1       24.362 -26.485   6.056  0.00  0.00    +0.076 A 
ATOM      3  C   LIG    1       23.430 -25.478   6.254  0.00  0.00    +0.029 A 
ATOM      4  C   LIG    1       23.820 -24.182   6.565  0.00  0.00    +0.025 A 
ATOM      5  C   LIG    1       25.171 -23.821   6.705  0.00  0.00    +0.033 A 
ATOM      6  C   LIG    1       26.093 -24.878   6.573  0.00  0.00    +0.070 A 
ENDROOT
BRANCH   5   7
ATOM      7  N   LIG    1       25.594 -22.508   7.011  0.00  0.00    -0.330 N 
ATOM      8  C   LIG    1       26.394 -21.794   5.989  0.00  0.00    +0.106 C 
ATOM      9  C   LIG    1       26.624 -20.325   6.374  0.00  0.00    +0.037 C 
ATOM     10  C   LIG    1       27.203 -20.102   7.798  0.00  0.00    +0.060 C 
ATOM     11  C   LIG    1       26.262 -20.892   8.733  0.00  0.00    +0.037 C 
ATOM     12  C   LIG    1       26.191 -22.367   8.354  0.00  0.00    +0.106 C 
BRANCH  10  13
ATOM     13  N   LIG    1       28.638 -20.462   7.991  0.00  0.00    -0.297 NA
ATOM     14  C   LIG    1       29.494 -20.296   6.789  0.00  0.00    +0.100 C 
ATOM     15  C   LIG    1       29.936 -18.846   6.448  0.00  0.00    +0.099 C 
ATOM     16  N   LIG    1       30.510 -18.062   7.560  0.00  0.00    -0.303 NA
ATOM     17  C   LIG    1       31.905 -18.406   7.840  0.00  0.00    +0.105 C 
ATOM     18  C   LIG    1       29.662 -18.227   8.753  0.00  0.00    +0.099 C 
ATOM     19  C   LIG    1       29.303 -19.699   9.085  0.00  0.00    +0.100 C 
ENDBRANCH  10  13
ENDBRANCH   5   7
BRANCH   1  21
ATOM     20  C   LIG    1       27.212 -27.230   4.662  0.00  0.00    +0.277 C 
ATOM     21  O   LIG    1       26.628 -27.195   5.981  0.00  0.00    -0.493 OA
ENDBRANCH   1  21
BRANCH   2  22
ATOM     22  N   LIG    1       23.969 -27.786   5.689  0.00  0.00    -0.281 N 
ATOM     23  H   LIG    1       23.236 -27.866   5.012  0.00  0.00    +0.155 HD
BRANCH  22  24
ATOM     24  C   LIG    1       24.341 -29.025   6.200  0.00  0.00    +0.221 A 
ATOM     25  N   LIG    1       24.109 -29.335   7.485  0.00  0.00    -0.198 NA
ATOM     26  C   LIG    1       24.304 -30.606   7.918  0.00  0.00    +0.146 A 
ATOM     27  C   LIG    1       24.837 -31.546   7.037  0.00  0.00    +0.099 A 
ATOM     28 CL   LIG    1       25.075 -33.214   7.464  0.00  0.00    -0.078 Cl
ATOM     29  C   LIG    1       25.101 -31.118   5.756  0.00  0.00    +0.138 A 
ATOM     30  N   LIG    1       24.865 -29.868   5.318  0.00  0.00    -0.221 NA
BRANCH  26  31
ATOM     31  N   LIG    1       23.969 -31.021   9.247  0.00  0.00    -0.298 N 
ATOM     32  H   LIG    1       23.879 -32.039   9.322  0.00  0.00    +0.154 HD
BRANCH  31  33
ATOM     33  C   LIG    1       23.620 -30.310  10.407  0.00  0.00    +0.043 A 
ATOM     34  C   LIG    1       24.593 -29.737  11.256  0.00  0.00    +0.033 A 
ATOM     35  C   LIG    1       24.196 -29.052  12.424  0.00  0.00    +0.013 A 
ATOM     36  C   LIG    1       22.855 -28.846  12.729  0.00  0.00    +0.001 A 
ATOM     37  C   LIG    1       21.894 -29.348  11.879  0.00  0.00    +0.002 A 
ATOM     38  C   LIG    1       22.262 -30.081  10.743  0.00  0.00    +0.024 A 
BRANCH  34  39
ATOM     39  P   LIG    1       26.347 -29.756  10.928  0.00  0.00    +0.112 P 
ATOM     40  O   LIG    1       26.923 -31.054  10.422  0.00  0.00    -0.317 OA
ATOM     41  C   LIG    1       27.220 -29.279  12.427  0.00  0.00    +0.085 C 
ATOM     42  C   LIG    1       26.723 -28.422   9.758  0.00  0.00    +0.085 C 
ENDBRANCH  34  39
ENDBRANCH  31  33
ENDBRANCH  26  31
ENDBRANCH  22  24
ENDBRANCH   2  22
TORSDOF 8
ENDMDL
MODEL 2
REMARK VINA RESULT:      -8.2      1.227      2.079
REMARK  Name = *****
REMARK                            x       y       z     vdW  Elec       q    Type
REMARK                         _______ _______ _______ _____ _____    ______ ____
ROOT
ATOM      1  C   LIG    1       25.765 -26.068   6.188  0.00  0.00    +0.143 A 
ATOM      2  C   LIG    1       24.387 -26.379   6.124  0.00  0.00    +0.076 A 
ATOM      3  C   LIG    1       23.460 -25.377   6.369  0.00  0.00    +0.029 A 
ATOM      4  C   LIG    1       23.857 -24.078   6.658  0.00  0.00    +0.025 A 
ATOM      5  C   LIG    1       25.212 -23.709   6.727  0.00  0.00    +0.033 A 
ATOM      6  C   LIG    1       26.132 -24.760   6.549  0.00  0.00    +0.070 A 
ENDROOT
BRANCH   5   7
ATOM      7  N   LIG    1       25.642 -22.392   7.009  0.00  0.00    -0.330 N 
ATOM      8  C   LIG    1       26.517 -21.733   6.012  0.00  0.00    +0.106 C 
ATOM      9  C   LIG    1       26.753 -20.255   6.355  0.00  0.00    +0.037 C 
ATOM     10  C   LIG    1       27.249 -19.988   7.803  0.00  0.00    +0.060 C 
ATOM     11  C   LIG    1       26.237 -20.723   8.707  0.00  0.00    +0.037 C 
ATOM     12  C   LIG    1       26.160 -22.211   8.380  0.00  0.00    +0.106 C 
BRANCH  10  13
ATOM     13  N   LIG    1       28.662 -20.366   8.097  0.00  0.00    -0.297 NA
ATOM     14  C   LIG    1       29.581 -20.317   6.931  0.00  0.00    +0.100 C 
ATOM     15  C   LIG    1       30.080 -18.910   6.500  0.00  0.00    +0.099 C 
ATOM     16  N   LIG    1       30.620 -18.054   7.575  0.00  0.00    -0.303 NA
ATOM     17  C   LIG    1       31.990 -18.408   7.952  0.00  0.00    +0.105 C 
ATOM     18  C   LIG    1       29.710 -18.103   8.732  0.00  0.00    +0.099 C 
ATOM     19  C   LIG    1       29.293 -19.534   9.160  0.00  0.00    +0.100 C 
ENDBRANCH  10  13
ENDBRANCH   5   7
BRANCH   1  21
ATOM     20  C   LIG    1       26.924 -27.308   4.536  0.00  0.00    +0.277 C 
ATOM     21  O   LIG    1       26.649 -27.075   5.933  0.00  0.00    -0.493 OA
ENDBRANCH   1  21
BRANCH   2  22
ATOM     22  N   LIG    1       23.982 -27.683   5.780  0.00  0.00    -0.281 N 
ATOM     23  H   LIG    1       23.352 -27.775   5.008  0.00  0.00    +0.155 HD
BRANCH  22  24
ATOM     24  C   LIG    1       24.210 -28.900   6.413  0.00  0.00    +0.221 A 
ATOM     25  N   LIG    1       24.732 -28.945   7.648  0.00  0.00    -0.198 NA
ATOM     26  C   LIG    1       24.772 -30.122   8.321  0.00  0.00    +0.146 A 
ATOM     27  C   LIG    1       24.356 -31.285   7.674  0.00  0.00    +0.099 A 
ATOM     28 CL   LIG    1       24.309 -32.837   8.456  0.00  0.00    -0.078 Cl
ATOM     29  C   LIG    1       23.894 -31.149   6.385  0.00  0.00    +0.138 A 
ATOM     30  N   LIG    1       23.815 -29.972   5.736  0.00  0.00    -0.221 NA
BRANCH  26  31
ATOM     31  N   LIG    1       25.214 -30.211   9.680  0.00  0.00    -0.298 N 
ATOM     32  H   LIG    1       25.256 -31.180  10.009  0.00  0.00    +0.154 HD
BRANCH  31  33
ATOM     33  C   LIG    1       25.468 -29.241  10.664  0.00  0.00    +0.043 A 
ATOM     34  C   LIG    1       24.572 -29.003  11.731  0.00  0.00    +0.033 A 
ATOM     35  C   LIG    1       24.859 -28.001  12.682  0.00  0.00    +0.013 A 
ATOM     36  C   LIG    1       26.051 -27.285  12.653  0.00  0.00    +0.001 A 
ATOM     37  C   LIG    1       26.960 -27.548  11.652  0.00  0.00    +0.002 A 
ATOM     38  C   LIG    1       26.675 -28.497  10.663  0.00  0.00    +0.024 A 
BRANCH  34  39
ATOM     39  P   LIG    1       23.084 -29.943  12.019  0.00  0.00    +0.112 P 
ATOM     40  O   LIG    1       22.557 -30.743  10.855  0.00  0.00    -0.317 OA
ATOM     41  C   LIG    1       21.794 -28.822  12.583  0.00  0.00    +0.085 C 
ATOM     42  C   LIG    1       23.365 -31.036  13.438  0.00  0.00    +0.085 C 
ENDBRANCH  34  39
ENDBRANCH  31  33
ENDBRANCH  26  31
ENDBRANCH  22  24
ENDBRANCH   2  22
TORSDOF 8
ENDMDL
MODEL 3
REMARK VINA RESULT:      -7.3      1.871      2.771
REMARK  Name = *****
REMARK                            x       y       z     vdW  Elec       q    Type
REMARK                         _______ _______ _______ _____ _____    ______ ____
ROOT
ATOM      1  C   LIG    1       25.595 -26.794   6.865  0.00  0.00    +0.143 A 
ATOM      2  C   LIG    1       24.423 -27.104   6.138  0.00  0.00    +0.076 A 
ATOM      3  C   LIG    1       23.623 -26.069   5.677  0.00  0.00    +0.029 A 
ATOM      4  C   LIG    1       23.959 -24.741   5.900  0.00  0.00    +0.025 A 
ATOM      5  C   LIG    1       25.116 -24.371   6.609  0.00  0.00    +0.033 A 
ATOM      6  C   LIG    1       25.870 -25.440   7.130  0.00  0.00    +0.070 A 
ENDROOT
BRANCH   5   7
ATOM      7  N   LIG    1       25.485 -23.027   6.840  0.00  0.00    -0.330 N 
ATOM      8  C   LIG    1       25.663 -22.154   5.657  0.00  0.00    +0.106 C 
ATOM      9  C   LIG    1       25.880 -20.689   6.060  0.00  0.00    +0.037 C 
ATOM     10  C   LIG    1       27.006 -20.455   7.104  0.00  0.00    +0.060 C 
ATOM     11  C   LIG    1       26.673 -21.418   8.264  0.00  0.00    +0.037 C 
ATOM     12  C   LIG    1       26.601 -22.868   7.795  0.00  0.00    +0.106 C 
BRANCH  10  13
ATOM     13  N   LIG    1       28.406 -20.612   6.612  0.00  0.00    -0.297 NA
ATOM     14  C   LIG    1       28.961 -19.426   5.911  0.00  0.00    +0.100 C 
ATOM     15  C   LIG    1       29.441 -18.252   6.809  0.00  0.00    +0.099 C 
ATOM     16  N   LIG    1       30.335 -18.612   7.927  0.00  0.00    -0.303 NA
ATOM     17  C   LIG    1       31.718 -18.836   7.504  0.00  0.00    +0.105 C 
ATOM     18  C   LIG    1       29.786 -19.789   8.623  0.00  0.00    +0.099 C 
ATOM     19  C   LIG    1       29.381 -20.956   7.685  0.00  0.00    +0.100 C 
ENDBRANCH  10  13
ENDBRANCH   5   7
BRANCH   1  21
ATOM     20  C   LIG    1       26.542 -27.915   8.724  0.00  0.00    +0.277 C 
ATOM     21  O   LIG    1       26.364 -27.835   7.295  0.00  0.00    -0.493 OA
ENDBRANCH   1  21
BRANCH   2  22
ATOM     22  N   LIG    1       24.109 -28.450   5.865  0.00  0.00    -0.281 N 
ATOM     23  H   LIG    1       23.514 -28.629   5.082  0.00  0.00    +0.155 HD
BRANCH  22  24
ATOM     24  C   LIG    1       24.386 -29.609   6.583  0.00  0.00    +0.221 A 
ATOM     25  N   LIG    1       23.866 -29.801   7.805  0.00  0.00    -0.198 NA
ATOM     26  C   LIG    1       23.991 -31.009   8.409  0.00  0.00    +0.146 A 
ATOM     27  C   LIG    1       24.744 -32.003   7.784  0.00  0.00    +0.099 A 
ATOM     28 CL   LIG    1       24.923 -33.604   8.436  0.00  0.00    -0.078 Cl
ATOM     29  C   LIG    1       25.290 -31.692   6.560  0.00  0.00    +0.138 A 
ATOM     30  N   LIG    1       25.128 -30.506   5.944  0.00  0.00    -0.221 NA
BRANCH  26  31
ATOM     31  N   LIG    1       23.363 -31.306   9.661  0.00  0.00    -0.298 N 
ATOM     32  H   LIG    1       23.232 -32.314   9.797  0.00  0.00    +0.154 HD
BRANCH  31  33
ATOM     33  C   LIG    1       22.789 -30.496  10.654  0.00  0.00    +0.043 A 
ATOM     34  C   LIG    1       21.448 -30.657  11.071  0.00  0.00    +0.033 A 
ATOM     35  C   LIG    1       20.908 -29.803  12.055  0.00  0.00    +0.013 A 
ATOM     36  C   LIG    1       21.685 -28.847  12.700  0.00  0.00    +0.001 A 
ATOM     37  C   LIG    1       23.011 -28.718  12.346  0.00  0.00    +0.002 A 
ATOM     38  C   LIG    1       23.556 -29.515  11.331  0.00  0.00    +0.024 A 
BRANCH  34  39
ATOM     39  P   LIG    1       20.361 -31.940  10.475  0.00  0.00    +0.112 P 
ATOM     40  O   LIG    1       20.828 -32.712   9.268  0.00  0.00    -0.317 OA
ATOM     41  C   LIG    1       18.755 -31.213  10.113  0.00  0.00    +0.085 C 
ATOM     42  C   LIG    1       20.026 -33.083  11.843  0.00  0.00    +0.085 C 
ENDBRANCH  34  39
ENDBRANCH  31  33
ENDBRANCH  26  31
ENDBRANCH  22  24
ENDBRANCH   2  22
TORSDOF 8
ENDMDL
MODEL 4
REMARK VINA RESULT:      -7.2      3.195      5.615
REMARK  Name = *****
REMARK                            x       y       z     vdW  Elec       q    Type
REMARK                         _______ _______ _______ _____ _____    ______ ____
ROOT
ATOM      1  C   LIG    1       23.970 -31.247   7.876  0.00  0.00    +0.143 A 
ATOM      2  C   LIG    1       24.656 -31.406   9.102  0.00  0.00    +0.076 A 
ATOM      3  C   LIG    1       25.567 -30.436   9.493  0.00  0.00    +0.029 A 
ATOM      4  C   LIG    1       25.805 -29.311   8.716  0.00  0.00    +0.025 A 
ATOM      5  C   LIG    1       25.148 -29.095   7.492  0.00  0.00    +0.033 A 
ATOM      6  C   LIG    1       24.284 -30.129   7.083  0.00  0.00    +0.070 A 
ENDROOT
BRANCH   5   7
ATOM      7  N   LIG    1       25.364 -27.953   6.688  0.00  0.00    -0.330 N 
ATOM      8  C   LIG    1       26.395 -26.988   7.135  0.00  0.00    +0.106 C 
ATOM      9  C   LIG    1       26.650 -25.902   6.080  0.00  0.00    +0.037 C 
ATOM     10  C   LIG    1       25.379 -25.170   5.570  0.00  0.00    +0.060 C 
ATOM     11  C   LIG    1       24.421 -26.301   5.137  0.00  0.00    +0.037 C 
ATOM     12  C   LIG    1       24.123 -27.262   6.283  0.00  0.00    +0.106 C 
BRANCH  10  13
ATOM     13  N   LIG    1       24.743 -24.211   6.520  0.00  0.00    -0.297 NA
ATOM     14  C   LIG    1       25.682 -23.533   7.449  0.00  0.00    +0.100 C 
ATOM     15  C   LIG    1       26.508 -22.354   6.863  0.00  0.00    +0.099 C 
ATOM     16  N   LIG    1       25.745 -21.333   6.118  0.00  0.00    -0.303 NA
ATOM     17  C   LIG    1       25.048 -20.390   6.994  0.00  0.00    +0.105 C 
ATOM     18  C   LIG    1       24.813 -22.005   5.197  0.00  0.00    +0.099 C 
ATOM     19  C   LIG    1       23.968 -23.131   5.848  0.00  0.00    +0.100 C 
ENDBRANCH  10  13
ENDBRANCH   5   7
BRANCH   1  21
ATOM     20  C   LIG    1       23.258 -32.770   6.208  0.00  0.00    +0.277 C 
ATOM     21  O   LIG    1       23.073 -32.213   7.526  0.00  0.00    -0.493 OA
ENDBRANCH   1  21
BRANCH   2  22
ATOM     22  N   LIG    1       24.377 -32.520   9.916  0.00  0.00    -0.281 N 
ATOM     23  H   LIG    1       24.611 -33.421   9.551  0.00  0.00    +0.155 HD
BRANCH  22  24
ATOM     24  C   LIG    1       23.700 -32.611  11.128  0.00  0.00    +0.221 A 
ATOM     25  N   LIG    1       23.669 -31.573  11.978  0.00  0.00    -0.198 NA
ATOM     26  C   LIG    1       22.854 -31.612  13.061  0.00  0.00    +0.146 A 
ATOM     27  C   LIG    1       22.132 -32.776  13.322  0.00  0.00    +0.099 A 
ATOM     28 CL   LIG    1       21.014 -32.918  14.646  0.00  0.00    -0.078 Cl
ATOM     29  C   LIG    1       22.276 -33.811  12.427  0.00  0.00    +0.138 A 
ATOM     30  N   LIG    1       23.052 -33.753  11.330  0.00  0.00    -0.221 NA
BRANCH  26  31
ATOM     31  N   LIG    1       22.696 -30.492  13.939  0.00  0.00    -0.298 N 
ATOM     32  H   LIG    1       22.728 -30.768  14.926  0.00  0.00    +0.154 HD
BRANCH  31  33
ATOM     33  C   LIG    1       22.382 -29.142  13.714  0.00  0.00    +0.043 A 
ATOM     34  C   LIG    1       23.356 -28.121  13.797  0.00  0.00    +0.033 A 
ATOM     35  C   LIG    1       22.989 -26.776  13.586  0.00  0.00    +0.013 A 
ATOM     36  C   LIG    1       21.698 -26.422  13.210  0.00  0.00    +0.001 A 
ATOM     37  C   LIG    1       20.751 -27.412  13.067  0.00  0.00    +0.002 A 
ATOM     38  C   LIG    1       21.076 -28.750  13.327  0.00  0.00    +0.024 A 
BRANCH  34  39
ATOM     39  P   LIG    1       25.091 -28.414  14.098  0.00  0.00    +0.112 P 
ATOM     40  O   LIG    1       25.455 -29.751  14.689  0.00  0.00    -0.317 OA
ATOM     41  C   LIG    1       25.716 -27.114  15.174  0.00  0.00    +0.085 C 
ATOM     42  C   LIG    1       25.989 -28.165  12.542  0.00  0.00    +0.085 C 
ENDBRANCH  34  39
ENDBRANCH  31  33
ENDBRANCH  26  31
ENDBRANCH  22  24
ENDBRANCH   2  22
TORSDOF 8
ENDMDL
MODEL 5
REMARK VINA RESULT:      -6.8      3.603      6.086
REMARK  Name = *****
REMARK                            x       y       z     vdW  Elec       q    Type
REMARK                         _______ _______ _______ _____ _____    ______ ____
ROOT
ATOM      1  C   LIG    1       24.187 -30.975   7.916  0.00  0.00    +0.143 A 
ATOM      2  C   LIG    1       24.969 -31.136   9.083  0.00  0.00    +0.076 A 
ATOM      3  C   LIG    1       25.861 -30.135   9.437  0.00  0.00    +0.029 A 
ATOM      4  C   LIG    1       25.990 -28.979   8.680  0.00  0.00    +0.025 A 
ATOM      5  C   LIG    1       25.235 -28.760   7.515  0.00  0.00    +0.033 A 
ATOM      6  C   LIG    1       24.391 -29.823   7.137  0.00  0.00    +0.070 A 
ENDROOT
BRANCH   5   7
ATOM      7  N   LIG    1       25.339 -27.588   6.733  0.00  0.00    -0.330 N 
ATOM      8  C   LIG    1       26.406 -26.624   7.087  0.00  0.00    +0.106 C 
ATOM      9  C   LIG    1       26.519 -25.498   6.049  0.00  0.00    +0.037 C 
ATOM     10  C   LIG    1       25.188 -24.767   5.724  0.00  0.00    +0.060 C 
ATOM     11  C   LIG    1       24.196 -25.896   5.369  0.00  0.00    +0.037 C 
ATOM     12  C   LIG    1       24.051 -26.902   6.507  0.00  0.00    +0.106 C 
BRANCH  10  13
ATOM     13  N   LIG    1       24.662 -23.852   6.779  0.00  0.00    -0.297 NA
ATOM     14  C   LIG    1       25.489 -22.646   7.033  0.00  0.00    +0.100 C 
ATOM     15  C   LIG    1       25.357 -21.486   6.006  0.00  0.00    +0.099 C 
ATOM     16  N   LIG    1       23.981 -21.066   5.673  0.00  0.00    -0.303 NA
ATOM     17  C   LIG    1       23.383 -20.208   6.697  0.00  0.00    +0.105 C 
ATOM     18  C   LIG    1       23.160 -22.263   5.422  0.00  0.00    +0.099 C 
ATOM     19  C   LIG    1       23.281 -23.362   6.509  0.00  0.00    +0.100 C 
ENDBRANCH  10  13
ENDBRANCH   5   7
BRANCH   1  21
ATOM     20  C   LIG    1       23.615 -32.694   6.389  0.00  0.00    +0.277 C 
ATOM     21  O   LIG    1       23.312 -31.974   7.602  0.00  0.00    -0.493 OA
ENDBRANCH   1  21
BRANCH   2  22
ATOM     22  N   LIG    1       24.801 -32.284   9.881  0.00  0.00    -0.281 N 
ATOM     23  H   LIG    1       24.698 -33.158   9.404  0.00  0.00    +0.155 HD
BRANCH  22  24
ATOM     24  C   LIG    1       24.624 -32.417  11.254  0.00  0.00    +0.221 A 
ATOM     25  N   LIG    1       24.189 -31.385  11.994  0.00  0.00    -0.198 NA
ATOM     26  C   LIG    1       23.844 -31.584  13.290  0.00  0.00    +0.146 A 
ATOM     27  C   LIG    1       24.041 -32.842  13.858  0.00  0.00    +0.099 A 
ATOM     28 CL   LIG    1       23.583 -33.226  15.490  0.00  0.00    -0.078 Cl
ATOM     29  C   LIG    1       24.551 -33.822  13.037  0.00  0.00    +0.138 A 
ATOM     30  N   LIG    1       24.851 -33.632  11.738  0.00  0.00    -0.221 NA
BRANCH  26  31
ATOM     31  N   LIG    1       23.270 -30.549  14.095  0.00  0.00    -0.298 N 
ATOM     32  H   LIG    1       23.124 -30.849  15.064  0.00  0.00    +0.154 HD
BRANCH  31  33
ATOM     33  C   LIG    1       22.759 -29.276  13.788  0.00  0.00    +0.043 A 
ATOM     34  C   LIG    1       21.403 -29.075  13.445  0.00  0.00    +0.033 A 
ATOM     35  C   LIG    1       20.942 -27.782  13.121  0.00  0.00    +0.013 A 
ATOM     36  C   LIG    1       21.769 -26.667  13.210  0.00  0.00    +0.001 A 
ATOM     37  C   LIG    1       23.079 -26.840  13.600  0.00  0.00    +0.002 A 
ATOM     38  C   LIG    1       23.577 -28.121  13.872  0.00  0.00    +0.024 A 
BRANCH  34  39
ATOM     39  P   LIG    1       20.167 -30.361  13.449  0.00  0.00    +0.112 P 
ATOM     40  O   LIG    1       20.485 -31.598  14.249  0.00  0.00    -0.317 OA
ATOM     41  C   LIG    1       19.830 -30.842  11.748  0.00  0.00    +0.085 C 
ATOM     42  C   LIG    1       18.602 -29.646  14.021  0.00  0.00    +0.085 C 
ENDBRANCH  34  39
ENDBRANCH  31  33
ENDBRANCH  26  31
ENDBRANCH  22  24
ENDBRANCH   2  22
TORSDOF 8
ENDMDL
MODEL 6
REMARK VINA RESULT:      -6.7      2.594      4.720
REMARK  Name = *****
REMARK                            x       y       z     vdW  Elec       q    Type
REMARK                         _______ _______ _______ _____ _____    ______ ____
ROOT
ATOM      1  C   LIG    1       26.262 -21.419   6.267  0.00  0.00    +0.143 A 
ATOM      2  C   LIG    1       26.278 -22.557   7.106  0.00  0.00    +0.076 A 
ATOM      3  C   LIG    1       27.276 -22.674   8.062  0.00  0.00    +0.029 A 
ATOM      4  C   LIG    1       28.244 -21.692   8.221  0.00  0.00    +0.025 A 
ATOM      5  C   LIG    1       28.275 -20.535   7.422  0.00  0.00    +0.033 A 
ATOM      6  C   LIG    1       27.296 -20.477   6.411  0.00  0.00    +0.070 A 
ENDROOT
BRANCH   5   7
ATOM      7  N   LIG    1       29.243 -19.516   7.571  0.00  0.00    -0.330 N 
ATOM      8  C   LIG    1       30.668 -19.914   7.503  0.00  0.00    +0.106 C 
ATOM      9  C   LIG    1       31.597 -18.692   7.494  0.00  0.00    +0.037 C 
ATOM     10  C   LIG    1       31.352 -17.672   8.640  0.00  0.00    +0.060 C 
ATOM     11  C   LIG    1       29.843 -17.356   8.569  0.00  0.00    +0.037 C 
ATOM     12  C   LIG    1       28.992 -18.614   8.712  0.00  0.00    +0.106 C 
BRANCH  10  13
ATOM     13  N   LIG    1       31.786 -18.094  10.004  0.00  0.00    -0.297 NA
ATOM     14  C   LIG    1       33.019 -17.433  10.503  0.00  0.00    +0.100 C 
ATOM     15  C   LIG    1       32.859 -15.982  11.037  0.00  0.00    +0.099 C 
ATOM     16  N   LIG    1       31.768 -15.763  12.007  0.00  0.00    -0.303 NA
ATOM     17  C   LIG    1       32.108 -16.208  13.359  0.00  0.00    +0.105 C 
ATOM     18  C   LIG    1       30.545 -16.420  11.513  0.00  0.00    +0.099 C 
ATOM     19  C   LIG    1       30.748 -17.886  11.052  0.00  0.00    +0.100 C 
ENDBRANCH  10  13
ENDBRANCH   5   7
BRANCH   1  21
ATOM     20  C   LIG    1       25.100 -20.031   4.739  0.00  0.00    +0.277 C 
ATOM     21  O   LIG    1       25.261 -21.331   5.344  0.00  0.00    -0.493 OA
ENDBRANCH   1  21
BRANCH   2  22
ATOM     22  N   LIG    1       25.266 -23.527   6.981  0.00  0.00    -0.281 N 
ATOM     23  H   LIG    1       24.374 -23.309   7.378  0.00  0.00    +0.155 HD
BRANCH  22  24
ATOM     24  C   LIG    1       25.313 -24.831   6.496  0.00  0.00    +0.221 A 
ATOM     25  N   LIG    1       25.862 -25.815   7.225  0.00  0.00    -0.198 NA
ATOM     26  C   LIG    1       25.733 -27.104   6.823  0.00  0.00    +0.146 A 
ATOM     27  C   LIG    1       25.110 -27.373   5.605  0.00  0.00    +0.099 A 
ATOM     28 CL   LIG    1       24.837 -28.987   5.018  0.00  0.00    -0.078 Cl
ATOM     29  C   LIG    1       24.633 -26.293   4.898  0.00  0.00    +0.138 A 
ATOM     30  N   LIG    1       24.725 -25.019   5.321  0.00  0.00    -0.221 NA
BRANCH  26  31
ATOM     31  N   LIG    1       26.200 -28.202   7.614  0.00  0.00    -0.298 N 
ATOM     32  H   LIG    1       26.682 -28.908   7.048  0.00  0.00    +0.154 HD
BRANCH  31  33
ATOM     33  C   LIG    1       26.015 -28.551   8.962  0.00  0.00    +0.043 A 
ATOM     34  C   LIG    1       25.257 -29.680   9.347  0.00  0.00    +0.033 A 
ATOM     35  C   LIG    1       25.079 -29.977  10.714  0.00  0.00    +0.013 A 
ATOM     36  C   LIG    1       25.701 -29.233  11.711  0.00  0.00    +0.001 A 
ATOM     37  C   LIG    1       26.491 -28.164  11.348  0.00  0.00    +0.002 A 
ATOM     38  C   LIG    1       26.638 -27.813  10.000  0.00  0.00    +0.024 A 
BRANCH  34  39
ATOM     39  P   LIG    1       24.533 -30.839   8.200  0.00  0.00    +0.112 P 
ATOM     40  O   LIG    1       23.559 -30.275   7.198  0.00  0.00    -0.317 OA
ATOM     41  C   LIG    1       23.714 -32.141   9.136  0.00  0.00    +0.085 C 
ATOM     42  C   LIG    1       25.875 -31.700   7.335  0.00  0.00    +0.085 C 
ENDBRANCH  34  39
ENDBRANCH  31  33
ENDBRANCH  26  31
ENDBRANCH  22  24
ENDBRANCH   2  22
TORSDOF 8
ENDMDL
MODEL 7
REMARK VINA RESULT:      -6.5      3.896     11.079
REMARK  Name = *****
REMARK                            x       y       z     vdW  Elec       q    Type
REMARK                         _______ _______ _______ _____ _____    ______ ____
ROOT
ATOM      1  C   LIG    1       25.882 -29.356  10.373  0.00  0.00    +0.143 A 
ATOM      2  C   LIG    1       25.401 -29.415   9.044  0.00  0.00    +0.076 A 
ATOM      3  C   LIG    1       24.201 -30.063   8.792  0.00  0.00    +0.029 A 
ATOM      4  C   LIG    1       23.460 -30.639   9.815  0.00  0.00    +0.025 A 
ATOM      5  C   LIG    1       23.884 -30.605  11.155  0.00  0.00    +0.033 A 
ATOM      6  C   LIG    1       25.140 -30.006  11.374  0.00  0.00    +0.070 A 
ENDROOT
BRANCH   5   7
ATOM      7  N   LIG    1       23.143 -31.173  12.216  0.00  0.00    -0.330 N 
ATOM      8  C   LIG    1       22.503 -32.487  11.975  0.00  0.00    +0.106 C 
ATOM      9  C   LIG    1       21.894 -33.064  13.261  0.00  0.00    +0.037 C 
ATOM     10  C   LIG    1       20.939 -32.106  14.023  0.00  0.00    +0.060 C 
ATOM     11  C   LIG    1       21.749 -30.804  14.202  0.00  0.00    +0.037 C 
ATOM     12  C   LIG    1       22.208 -30.232  12.865  0.00  0.00    +0.106 C 
BRANCH  10  13
ATOM     13  N   LIG    1       19.603 -31.870  13.399  0.00  0.00    -0.297 NA
ATOM     14  C   LIG    1       18.750 -33.078  13.269  0.00  0.00    +0.100 C 
ATOM     15  C   LIG    1       18.027 -33.559  14.558  0.00  0.00    +0.099 C 
ATOM     16  N   LIG    1       17.290 -32.527  15.314  0.00  0.00    -0.303 NA
ATOM     17  C   LIG    1       15.990 -32.207  14.722  0.00  0.00    +0.105 C 
ATOM     18  C   LIG    1       18.136 -31.329  15.443  0.00  0.00    +0.099 C 
ATOM     19  C   LIG    1       18.782 -30.854  14.115  0.00  0.00    +0.100 C 
ENDBRANCH  10  13
ENDBRANCH   5   7
BRANCH   1  21
ATOM     20  C   LIG    1       27.022 -27.698  11.622  0.00  0.00    +0.277 C 
ATOM     21  O   LIG    1       27.059 -28.702  10.587  0.00  0.00    -0.493 OA
ENDBRANCH   1  21
BRANCH   2  22
ATOM     22  N   LIG    1       26.125 -28.786   8.013  0.00  0.00    -0.281 N 
ATOM     23  H   LIG    1       27.097 -29.010   7.938  0.00  0.00    +0.155 HD
BRANCH  22  24
ATOM     24  C   LIG    1       25.753 -27.783   7.124  0.00  0.00    +0.221 A 
ATOM     25  N   LIG    1       25.871 -26.489   7.461  0.00  0.00    -0.198 NA
ATOM     26  C   LIG    1       25.684 -25.528   6.521  0.00  0.00    +0.146 A 
ATOM     27  C   LIG    1       25.275 -25.904   5.242  0.00  0.00    +0.099 A 
ATOM     28 CL   LIG    1       25.061 -24.766   3.945  0.00  0.00    -0.078 Cl
ATOM     29  C   LIG    1       25.119 -27.252   5.009  0.00  0.00    +0.138 A 
ATOM     30  N   LIG    1       25.349 -28.204   5.932  0.00  0.00    -0.221 NA
BRANCH  26  31
ATOM     31  N   LIG    1       25.905 -24.140   6.792  0.00  0.00    -0.298 N 
ATOM     32  H   LIG    1       26.888 -23.939   6.999  0.00  0.00    +0.154 HD
BRANCH  31  33
ATOM     33  C   LIG    1       25.033 -23.051   6.954  0.00  0.00    +0.043 A 
ATOM     34  C   LIG    1       25.506 -21.733   7.143  0.00  0.00    +0.033 A 
ATOM     35  C   LIG    1       24.591 -20.674   7.325  0.00  0.00    +0.013 A 
ATOM     36  C   LIG    1       23.218 -20.872   7.239  0.00  0.00    +0.001 A 
ATOM     37  C   LIG    1       22.742 -22.142   6.996  0.00  0.00    +0.002 A 
ATOM     38  C   LIG    1       23.628 -23.221   6.869  0.00  0.00    +0.024 A 
BRANCH  34  39
ATOM     39  P   LIG    1       27.229 -21.272   7.108  0.00  0.00    +0.112 P 
ATOM     40  O   LIG    1       28.228 -22.400   7.118  0.00  0.00    -0.317 OA
ATOM     41  C   LIG    1       27.565 -20.188   8.505  0.00  0.00    +0.085 C 
ATOM     42  C   LIG    1       27.508 -20.218   5.659  0.00  0.00    +0.085 C 
ENDBRANCH  34  39
ENDBRANCH  31  33
ENDBRANCH  26  31
ENDBRANCH  22  24
ENDBRANCH   2  22
TORSDOF 8
ENDMDL
MODEL 8
REMARK VINA RESULT:      -6.4      3.964     11.276
REMARK  Name = *****
REMARK                            x       y       z     vdW  Elec       q    Type
REMARK                         _______ _______ _______ _____ _____    ______ ____
ROOT
ATOM      1  C   LIG    1       26.050 -29.372   9.946  0.00  0.00    +0.143 A 
ATOM      2  C   LIG    1       25.555 -29.188   8.635  0.00  0.00    +0.076 A 
ATOM      3  C   LIG    1       24.386 -29.834   8.260  0.00  0.00    +0.029 A 
ATOM      4  C   LIG    1       23.689 -30.641   9.148  0.00  0.00    +0.025 A 
ATOM      5  C   LIG    1       24.128 -30.856  10.467  0.00  0.00    +0.033 A 
ATOM      6  C   LIG    1       25.355 -30.248  10.798  0.00  0.00    +0.070 A 
ENDROOT
BRANCH   5   7
ATOM      7  N   LIG    1       23.431 -31.663  11.393  0.00  0.00    -0.330 N 
ATOM      8  C   LIG    1       22.270 -32.433  10.890  0.00  0.00    +0.106 C 
ATOM      9  C   LIG    1       21.727 -33.400  11.952  0.00  0.00    +0.037 C 
ATOM     10  C   LIG    1       21.419 -32.755  13.331  0.00  0.00    +0.060 C 
ATOM     11  C   LIG    1       22.714 -32.009  13.715  0.00  0.00    +0.037 C 
ATOM     12  C   LIG    1       23.111 -30.979  12.662  0.00  0.00    +0.106 C 
BRANCH  10  13
ATOM     13  N   LIG    1       20.212 -31.879  13.395  0.00  0.00    -0.297 NA
ATOM     14  C   LIG    1       19.025 -32.392  12.666  0.00  0.00    +0.100 C 
ATOM     15  C   LIG    1       18.210 -33.513  13.369  0.00  0.00    +0.099 C 
ATOM     16  N   LIG    1       17.839 -33.262  14.776  0.00  0.00    -0.303 NA
ATOM     17  C   LIG    1       16.693 -32.362  14.913  0.00  0.00    +0.105 C 
ATOM     18  C   LIG    1       19.016 -32.752  15.500  0.00  0.00    +0.099 C 
ATOM     19  C   LIG    1       19.756 -31.592  14.784  0.00  0.00    +0.100 C 
ENDBRANCH  10  13
ENDBRANCH   5   7
BRANCH   1  21
ATOM     20  C   LIG    1       27.114 -27.925  11.490  0.00  0.00    +0.277 C 
ATOM     21  O   LIG    1       27.196 -28.714  10.285  0.00  0.00    -0.493 OA
ENDBRANCH   1  21
BRANCH   2  22
ATOM     22  N   LIG    1       26.233 -28.328   7.750  0.00  0.00    -0.281 N 
ATOM     23  H   LIG    1       27.231 -28.305   7.812  0.00  0.00    +0.155 HD
BRANCH  22  24
ATOM     24  C   LIG    1       25.747 -27.379   6.855  0.00  0.00    +0.221 A 
ATOM     25  N   LIG    1       25.300 -26.191   7.290  0.00  0.00    -0.198 NA
ATOM     26  C   LIG    1       25.008 -25.213   6.397  0.00  0.00    +0.146 A 
ATOM     27  C   LIG    1       25.087 -25.496   5.034  0.00  0.00    +0.099 A 
ATOM     28 CL   LIG    1       24.792 -24.305   3.802  0.00  0.00    -0.078 Cl
ATOM     29  C   LIG    1       25.495 -26.763   4.684  0.00  0.00    +0.138 A 
ATOM     30  N   LIG    1       25.826 -27.717   5.574  0.00  0.00    -0.221 NA
BRANCH  26  31
ATOM     31  N   LIG    1       24.635 -23.892   6.804  0.00  0.00    -0.298 N 
ATOM     32  H   LIG    1       23.618 -23.777   6.859  0.00  0.00    +0.154 HD
BRANCH  31  33
ATOM     33  C   LIG    1       25.374 -22.715   7.012  0.00  0.00    +0.043 A 
ATOM     34  C   LIG    1       24.992 -21.479   6.443  0.00  0.00    +0.033 A 
ATOM     35  C   LIG    1       25.779 -20.330   6.660  0.00  0.00    +0.013 A 
ATOM     36  C   LIG    1       26.891 -20.352   7.495  0.00  0.00    +0.001 A 
ATOM     37  C   LIG    1       27.242 -21.537   8.104  0.00  0.00    +0.002 A 
ATOM     38  C   LIG    1       26.510 -22.706   7.860  0.00  0.00    +0.024 A 
BRANCH  34  39
ATOM     39  P   LIG    1       23.505 -21.233   5.488  0.00  0.00    +0.112 P 
ATOM     40  O   LIG    1       22.441 -22.292   5.614  0.00  0.00    -0.317 OA
ATOM     41  C   LIG    1       23.955 -21.065   3.754  0.00  0.00    +0.085 C 
ATOM     42  C   LIG    1       22.812 -19.613   5.920  0.00  0.00    +0.085 C 
ENDBRANCH  34  39
ENDBRANCH  31  33
ENDBRANCH  26  31
ENDBRANCH  22  24
ENDBRANCH   2  22
TORSDOF 8
ENDMDL
MODEL 9
REMARK VINA RESULT:      -6.1      3.502      5.548
REMARK  Name = *****
REMARK                            x       y       z     vdW  Elec       q    Type
REMARK                         _______ _______ _______ _____ _____    ______ ____
ROOT
ATOM      1  C   LIG    1       25.471 -29.661   8.345  0.00  0.00    +0.143 A 
ATOM      2  C   LIG    1       24.614 -30.499   7.593  0.00  0.00    +0.076 A 
ATOM      3  C   LIG    1       24.045 -30.006   6.429  0.00  0.00    +0.029 A 
ATOM      4  C   LIG    1       24.311 -28.719   5.982  0.00  0.00    +0.025 A 
ATOM      5  C   LIG    1       25.159 -27.844   6.682  0.00  0.00    +0.033 A 
ATOM      6  C   LIG    1       25.665 -28.343   7.899  0.00  0.00    +0.070 A 
ENDROOT
BRANCH   5   7
ATOM      7  N   LIG    1       25.455 -26.534   6.243  0.00  0.00    -0.330 N 
ATOM      8  C   LIG    1       25.785 -25.525   7.276  0.00  0.00    +0.106 C 
ATOM      9  C   LIG    1       26.261 -24.207   6.650  0.00  0.00    +0.037 C 
ATOM     10  C   LIG    1       25.317 -23.615   5.568  0.00  0.00    +0.060 C 
ATOM     11  C   LIG    1       25.083 -24.773   4.574  0.00  0.00    +0.037 C 
ATOM     12  C   LIG    1       24.490 -25.999   5.261  0.00  0.00    +0.106 C 
BRANCH  10  13
ATOM     13  N   LIG    1       24.042 -23.015   6.060  0.00  0.00    -0.297 NA
ATOM     14  C   LIG    1       24.205 -21.935   7.067  0.00  0.00    +0.100 C 
ATOM     15  C   LIG    1       24.618 -20.538   6.525  0.00  0.00    +0.099 C 
ATOM     16  N   LIG    1       23.827 -20.022   5.389  0.00  0.00    -0.303 NA
ATOM     17  C   LIG    1       22.536 -19.467   5.797  0.00  0.00    +0.105 C 
ATOM     18  C   LIG    1       23.665 -21.093   4.390  0.00  0.00    +0.099 C 
ATOM     19  C   LIG    1       23.192 -22.449   4.976  0.00  0.00    +0.100 C 
ENDBRANCH  10  13
ENDBRANCH   5   7
BRANCH   1  21
ATOM     20  C   LIG    1       26.593 -29.211  10.382  0.00  0.00    +0.277 C 
ATOM     21  O   LIG    1       26.022 -30.181   9.480  0.00  0.00    -0.493 OA
ENDBRANCH   1  21
BRANCH   2  22
ATOM     22  N   LIG    1       24.386 -31.821   8.018  0.00  0.00    -0.281 N 
ATOM     23  H   LIG    1       24.948 -32.537   7.602  0.00  0.00    +0.155 HD
BRANCH  22  24
ATOM     24  C   LIG    1       23.404 -32.350   8.851  0.00  0.00    +0.221 A 
ATOM     25  N   LIG    1       23.156 -31.805  10.052  0.00  0.00    -0.198 NA
ATOM     26  C   LIG    1       22.077 -32.211  10.766  0.00  0.00    +0.146 A 
ATOM     27  C   LIG    1       21.299 -33.261  10.279  0.00  0.00    +0.099 A 
ATOM     28 CL   LIG    1       19.863 -33.825  11.080  0.00  0.00    -0.078 Cl
ATOM     29  C   LIG    1       21.669 -33.799   9.067  0.00  0.00    +0.138 A 
ATOM     30  N   LIG    1       22.715 -33.363   8.340  0.00  0.00    -0.221 NA
BRANCH  26  31
ATOM     31  N   LIG    1       21.699 -31.590  11.999  0.00  0.00    -0.298 N 
ATOM     32  H   LIG    1       21.262 -32.253  12.648  0.00  0.00    +0.154 HD
BRANCH  31  33
ATOM     33  C   LIG    1       21.693 -30.253  12.429  0.00  0.00    +0.043 A 
ATOM     34  C   LIG    1       20.572 -29.674  13.066  0.00  0.00    +0.033 A 
ATOM     35  C   LIG    1       20.605 -28.320  13.458  0.00  0.00    +0.013 A 
ATOM     36  C   LIG    1       21.750 -27.544  13.313  0.00  0.00    +0.001 A 
ATOM     37  C   LIG    1       22.871 -28.112  12.748  0.00  0.00    +0.002 A 
ATOM     38  C   LIG    1       22.846 -29.438  12.298  0.00  0.00    +0.024 A 
BRANCH  34  39
ATOM     39  P   LIG    1       19.086 -30.568  13.485  0.00  0.00    +0.112 P 
ATOM     40  O   LIG    1       18.375 -31.261  12.351  0.00  0.00    -0.317 OA
ATOM     41  C   LIG    1       17.938 -29.435  14.283  0.00  0.00    +0.085 C 
ATOM     42  C   LIG    1       19.490 -31.769  14.782  0.00  0.00    +0.085 C 
ENDBRANCH  34  39
ENDBRANCH  31  33
ENDBRANCH  26  31
ENDBRANCH  22  24
ENDBRANCH   2  22
TORSDOF 8
ENDMDL
