MODEL 1
REMARK VINA RESULT:      -9.1      0.000      0.000
REMARK  Name = *****
REMARK                            x       y       z     vdW  Elec       q    Type
REMARK                         _______ _______ _______ _____ _____    ______ ____
ROOT
ATOM      1  C   LIG    1       25.825 -22.921   6.652  0.00  0.00    +0.005 C 
ATOM      2  C   LIG    1       27.001 -22.663   7.272  0.00  0.00    -0.001 C 
ENDROOT
BRANCH   1   7
ATOM      3  C   LIG    1       25.021 -28.496   5.221  0.00  0.00    +0.044 C 
ATOM      4  C   LIG    1       25.184 -27.055   5.612  0.00  0.00    -0.050 A 
ATOM      5  C   LIG    1       25.743 -26.709   6.847  0.00  0.00    +0.004 A 
ATOM      6  C   LIG    1       25.941 -25.365   7.185  0.00  0.00    +0.009 A 
ATOM      7  C   LIG    1       25.586 -24.343   6.293  0.00  0.00    -0.016 A 
ATOM      8  C   LIG    1       25.033 -24.689   5.055  0.00  0.00    +0.009 A 
ATOM      9  C   LIG    1       24.837 -26.035   4.717  0.00  0.00    +0.004 A 
ENDBRANCH   1   7
BRANCH   1  10
ATOM     10  C   LIG    1       24.805 -21.871   6.416  0.00  0.00    +0.072 A 
ATOM     11  N   LIG    1       24.814 -21.266   5.196  0.00  0.00    -0.247 NA
ATOM     12  C   LIG    1       23.832 -20.372   4.923  0.00  0.00    +0.065 A 
ATOM     13  C   LIG    1       22.855 -20.028   5.851  0.00  0.00    +0.028 A 
ATOM     14  C   LIG    1       22.882 -20.626   7.106  0.00  0.00    +0.004 A 
ATOM     15  C   LIG    1       23.866 -21.566   7.394  0.00  0.00    +0.028 A 
BRANCH  12  16
ATOM     16  C   LIG    1       23.831 -19.740   3.597  0.00  0.00    +0.035 C 
ATOM     17  C   LIG    1       24.696 -18.887   3.024  0.00  0.00    +0.093 C 
BRANCH  17  18
ATOM     18  C   LIG    1       25.953 -18.254   3.475  0.00  0.00    +0.330 C 
ATOM     19  O   LIG    1       26.194 -17.094   3.196  0.00  0.00    -0.246 OA
BRANCH  18  20
ATOM     20  O   LIG    1       26.728 -18.978   4.293  0.00  0.00    -0.477 OA
ATOM     21  H   LIG    1       26.531 -19.941   4.243  0.00  0.00    +0.295 HD
ENDBRANCH  18  20
ENDBRANCH  17  18
ENDBRANCH  12  16
ENDBRANCH   1  10
BRANCH   2  22
ATOM     22  C   LIG    1       27.504 -21.356   7.828  0.00  0.00    +0.112 C 
BRANCH  22  23
ATOM     23  N   LIG    1       28.848 -21.025   7.332  0.00  0.00    -0.299 NA
ATOM     24  C   LIG    1       28.949 -19.628   6.895  0.00  0.00    +0.085 C 
ATOM     25  C   LIG    1       30.450 -19.439   6.754  0.00  0.00    +0.017 C 
ATOM     26  C   LIG    1       31.036 -20.277   7.880  0.00  0.00    +0.017 C 
ATOM     27  C   LIG    1       29.899 -21.183   8.341  0.00  0.00    +0.085 C 
ENDBRANCH  22  23
ENDBRANCH   2  22
TORSDOF 7
ENDMDL
MODEL 2
REMARK VINA RESULT:      -9.0      2.386      6.562
REMARK  Name = *****
REMARK                            x       y       z     vdW  Elec       q    Type
REMARK                         _______ _______ _______ _____ _____    ______ ____
ROOT
ATOM      1  C   LIG    1       25.359 -21.444   6.046  0.00  0.00    +0.005 C 
ATOM      2  C   LIG    1       25.130 -22.766   5.863  0.00  0.00    -0.001 C 
ENDROOT
BRANCH   1   7
ATOM      3  C   LIG    1       21.468 -17.966   3.490  0.00  0.00    +0.044 C 
ATOM      4  C   LIG    1       22.489 -18.826   4.177  0.00  0.00    -0.050 A 
ATOM      5  C   LIG    1       22.182 -19.483   5.374  0.00  0.00    +0.004 A 
ATOM      6  C   LIG    1       23.119 -20.325   5.983  0.00  0.00    +0.009 A 
ATOM      7  C   LIG    1       24.381 -20.528   5.404  0.00  0.00    -0.016 A 
ATOM      8  C   LIG    1       24.687 -19.876   4.205  0.00  0.00    +0.009 A 
ATOM      9  C   LIG    1       23.746 -19.035   3.595  0.00  0.00    +0.004 A 
ENDBRANCH   1   7
BRANCH   1  10
ATOM     10  C   LIG    1       26.464 -20.940   6.897  0.00  0.00    +0.072 A 
ATOM     11  N   LIG    1       27.643 -20.663   6.276  0.00  0.00    -0.247 NA
ATOM     12  C   LIG    1       28.636 -20.111   7.014  0.00  0.00    +0.065 A 
ATOM     13  C   LIG    1       28.505 -19.861   8.376  0.00  0.00    +0.028 A 
ATOM     14  C   LIG    1       27.308 -20.186   9.004  0.00  0.00    +0.004 A 
ATOM     15  C   LIG    1       26.268 -20.728   8.257  0.00  0.00    +0.028 A 
BRANCH  12  16
ATOM     16  C   LIG    1       29.899 -19.790   6.334  0.00  0.00    +0.035 C 
ATOM     17  C   LIG    1       31.056 -19.296   6.806  0.00  0.00    +0.093 C 
BRANCH  17  18
ATOM     18  C   LIG    1       31.516 -18.883   8.148  0.00  0.00    +0.330 C 
ATOM     19  O   LIG    1       31.921 -19.711   8.942  0.00  0.00    -0.246 OA
BRANCH  18  20
ATOM     20  O   LIG    1       31.574 -17.565   8.382  0.00  0.00    -0.477 OA
ATOM     21  H   LIG    1       31.153 -17.037   7.666  0.00  0.00    +0.295 HD
ENDBRANCH  18  20
ENDBRANCH  17  18
ENDBRANCH  12  16
ENDBRANCH   1  10
BRANCH   2  22
ATOM     22  C   LIG    1       25.882 -23.940   6.437  0.00  0.00    +0.112 C 
BRANCH  22  23
ATOM     23  N   LIG    1       25.572 -25.193   5.735  0.00  0.00    -0.299 NA
ATOM     24  C   LIG    1       26.496 -26.274   6.096  0.00  0.00    +0.085 C 
ATOM     25  C   LIG    1       25.799 -27.501   5.534  0.00  0.00    +0.017 C 
ATOM     26  C   LIG    1       24.320 -27.213   5.741  0.00  0.00    +0.017 C 
ATOM     27  C   LIG    1       24.238 -25.719   6.039  0.00  0.00    +0.085 C 
ENDBRANCH  22  23
ENDBRANCH   2  22
TORSDOF 7
ENDMDL
MODEL 3
REMARK VINA RESULT:      -8.9      2.162      4.772
REMARK  Name = *****
REMARK                            x       y       z     vdW  Elec       q    Type
REMARK                         _______ _______ _______ _____ _____    ______ ____
ROOT
ATOM      1  C   LIG    1       24.387 -23.163   6.640  0.00  0.00    +0.005 C 
ATOM      2  C   LIG    1       23.198 -22.782   6.116  0.00  0.00    -0.001 C 
ENDROOT
BRANCH   1   7
ATOM      3  C   LIG    1       25.658 -28.801   6.032  0.00  0.00    +0.044 C 
ATOM      4  C   LIG    1       25.358 -27.334   6.149  0.00  0.00    -0.050 A 
ATOM      5  C   LIG    1       24.254 -26.777   5.494  0.00  0.00    +0.004 A 
ATOM      6  C   LIG    1       23.947 -25.420   5.648  0.00  0.00    +0.009 A 
ATOM      7  C   LIG    1       24.737 -24.596   6.463  0.00  0.00    -0.016 A 
ATOM      8  C   LIG    1       25.837 -25.154   7.123  0.00  0.00    +0.009 A 
ATOM      9  C   LIG    1       26.142 -26.513   6.969  0.00  0.00    +0.004 A 
ENDBRANCH   1   7
BRANCH   1  10
ATOM     10  C   LIG    1       25.318 -22.201   7.277  0.00  0.00    +0.072 A 
ATOM     11  N   LIG    1       26.398 -21.811   6.544  0.00  0.00    -0.247 NA
ATOM     12  C   LIG    1       27.211 -20.860   7.067  0.00  0.00    +0.065 A 
ATOM     13  C   LIG    1       27.003 -20.309   8.327  0.00  0.00    +0.028 A 
ATOM     14  C   LIG    1       25.918 -20.746   9.078  0.00  0.00    +0.004 A 
ATOM     15  C   LIG    1       25.058 -21.701   8.547  0.00  0.00    +0.028 A 
BRANCH  12  16
ATOM     16  C   LIG    1       28.361 -20.424   6.262  0.00  0.00    +0.035 C 
ATOM     17  C   LIG    1       29.623 -20.127   6.614  0.00  0.00    +0.093 C 
BRANCH  17  18
ATOM     18  C   LIG    1       30.345 -20.112   7.903  0.00  0.00    +0.330 C 
ATOM     19  O   LIG    1       30.078 -19.280   8.750  0.00  0.00    -0.246 OA
BRANCH  18  20
ATOM     20  O   LIG    1       31.200 -21.121   8.122  0.00  0.00    -0.477 OA
ATOM     21  H   LIG    1       30.761 -21.904   8.527  0.00  0.00    +0.295 HD
ENDBRANCH  18  20
ENDBRANCH  17  18
ENDBRANCH  12  16
ENDBRANCH   1  10
BRANCH   2  22
ATOM     22  C   LIG    1       22.594 -21.402   6.059  0.00  0.00    +0.112 C 
BRANCH  22  23
ATOM     23  N   LIG    1       23.429 -20.463   5.296  0.00  0.00    -0.299 NA
ATOM     24  C   LIG    1       23.925 -21.052   4.047  0.00  0.00    +0.085 C 
ATOM     25  C   LIG    1       24.454 -19.838   3.302  0.00  0.00    +0.017 C 
ATOM     26  C   LIG    1       23.488 -18.724   3.677  0.00  0.00    +0.017 C 
ATOM     27  C   LIG    1       22.719 -19.249   4.886  0.00  0.00    +0.085 C 
ENDBRANCH  22  23
ENDBRANCH   2  22
TORSDOF 7
ENDMDL
MODEL 4
REMARK VINA RESULT:      -8.6      2.963      6.629
REMARK  Name = *****
REMARK                            x       y       z     vdW  Elec       q    Type
REMARK                         _______ _______ _______ _____ _____    ______ ____
ROOT
ATOM      1  C   LIG    1       25.738 -21.080   5.365  0.00  0.00    +0.005 C 
ATOM      2  C   LIG    1       25.512 -20.332   4.259  0.00  0.00    -0.001 C 
ENDROOT
BRANCH   1   7
ATOM      3  C   LIG    1       30.656 -19.872   8.216  0.00  0.00    +0.044 C 
ATOM      4  C   LIG    1       29.362 -20.151   7.508  0.00  0.00    -0.050 A 
ATOM      5  C   LIG    1       29.003 -19.427   6.365  0.00  0.00    +0.004 A 
ATOM      6  C   LIG    1       27.821 -19.725   5.677  0.00  0.00    +0.009 A 
ATOM      7  C   LIG    1       26.977 -20.755   6.118  0.00  0.00    -0.016 A 
ATOM      8  C   LIG    1       27.338 -21.483   7.257  0.00  0.00    +0.009 A 
ATOM      9  C   LIG    1       28.523 -21.184   7.943  0.00  0.00    +0.004 A 
ENDBRANCH   1   7
BRANCH   1  10
ATOM     10  C   LIG    1       24.776 -22.102   5.843  0.00  0.00    +0.072 A 
ATOM     11  N   LIG    1       24.887 -23.350   5.309  0.00  0.00    -0.247 NA
ATOM     12  C   LIG    1       24.083 -24.325   5.798  0.00  0.00    +0.065 A 
ATOM     13  C   LIG    1       23.133 -24.086   6.785  0.00  0.00    +0.028 A 
ATOM     14  C   LIG    1       23.006 -22.797   7.293  0.00  0.00    +0.004 A 
ATOM     15  C   LIG    1       23.841 -21.790   6.822  0.00  0.00    +0.028 A 
BRANCH  12  16
ATOM     16  C   LIG    1       24.223 -25.676   5.236  0.00  0.00    +0.035 C 
ATOM     17  C   LIG    1       25.147 -26.629   5.446  0.00  0.00    +0.093 C 
BRANCH  17  18
ATOM     18  C   LIG    1       26.357 -26.706   6.290  0.00  0.00    +0.330 C 
ATOM     19  O   LIG    1       26.261 -26.839   7.496  0.00  0.00    -0.246 OA
BRANCH  18  20
ATOM     20  O   LIG    1       27.534 -26.745   5.650  0.00  0.00    -0.477 OA
ATOM     21  H   LIG    1       27.905 -27.656   5.602  0.00  0.00    +0.295 HD
ENDBRANCH  18  20
ENDBRANCH  17  18
ENDBRANCH  12  16
ENDBRANCH   1  10
BRANCH   2  22
ATOM     22  C   LIG    1       24.323 -20.358   3.333  0.00  0.00    +0.112 C 
BRANCH  22  23
ATOM     23  N   LIG    1       23.518 -19.132   3.431  0.00  0.00    -0.299 NA
ATOM     24  C   LIG    1       22.546 -19.192   4.529  0.00  0.00    +0.085 C 
ATOM     25  C   LIG    1       22.091 -17.747   4.641  0.00  0.00    +0.017 C 
ATOM     26  C   LIG    1       23.343 -16.940   4.333  0.00  0.00    +0.017 C 
ATOM     27  C   LIG    1       24.314 -17.930   3.695  0.00  0.00    +0.085 C 
ENDBRANCH  22  23
ENDBRANCH   2  22
TORSDOF 7
ENDMDL
MODEL 5
REMARK VINA RESULT:      -8.3      1.554      1.998
REMARK  Name = *****
REMARK                            x       y       z     vdW  Elec       q    Type
REMARK                         _______ _______ _______ _____ _____    ______ ____
ROOT
ATOM      1  C   LIG    1       25.956 -23.182   6.718  0.00  0.00    +0.005 C 
ATOM      2  C   LIG    1       27.159 -22.938   7.290  0.00  0.00    -0.001 C 
ENDROOT
BRANCH   1   7
ATOM      3  C   LIG    1       24.843 -28.683   5.212  0.00  0.00    +0.044 C 
ATOM      4  C   LIG    1       25.176 -27.266   5.580  0.00  0.00    -0.050 A 
ATOM      5  C   LIG    1       24.881 -26.213   4.706  0.00  0.00    +0.004 A 
ATOM      6  C   LIG    1       25.145 -24.889   5.075  0.00  0.00    +0.009 A 
ATOM      7  C   LIG    1       25.704 -24.593   6.327  0.00  0.00    -0.016 A 
ATOM      8  C   LIG    1       25.993 -25.644   7.203  0.00  0.00    +0.009 A 
ATOM      9  C   LIG    1       25.727 -26.969   6.833  0.00  0.00    +0.004 A 
ENDBRANCH   1   7
BRANCH   1  10
ATOM     10  C   LIG    1       24.923 -22.129   6.564  0.00  0.00    +0.072 A 
ATOM     11  N   LIG    1       24.999 -21.349   5.450  0.00  0.00    -0.247 NA
ATOM     12  C   LIG    1       24.012 -20.445   5.239  0.00  0.00    +0.065 A 
ATOM     13  C   LIG    1       22.961 -20.263   6.131  0.00  0.00    +0.028 A 
ATOM     14  C   LIG    1       22.918 -21.041   7.283  0.00  0.00    +0.004 A 
ATOM     15  C   LIG    1       23.908 -21.992   7.503  0.00  0.00    +0.028 A 
BRANCH  12  16
ATOM     16  C   LIG    1       24.085 -19.622   4.024  0.00  0.00    +0.035 C 
ATOM     17  C   LIG    1       23.303 -18.621   3.585  0.00  0.00    +0.093 C 
BRANCH  17  18
ATOM     18  C   LIG    1       22.093 -17.965   4.121  0.00  0.00    +0.330 C 
ATOM     19  O   LIG    1       22.187 -16.977   4.824  0.00  0.00    -0.246 OA
BRANCH  18  20
ATOM     20  O   LIG    1       20.915 -18.439   3.692  0.00  0.00    -0.477 OA
ATOM     21  H   LIG    1       20.903 -18.593   2.720  0.00  0.00    +0.295 HD
ENDBRANCH  18  20
ENDBRANCH  17  18
ENDBRANCH  12  16
ENDBRANCH   1  10
BRANCH   2  22
ATOM     22  C   LIG    1       27.684 -21.647   7.861  0.00  0.00    +0.112 C 
BRANCH  22  23
ATOM     23  N   LIG    1       28.646 -20.994   6.961  0.00  0.00    -0.299 NA
ATOM     24  C   LIG    1       28.054 -19.853   6.252  0.00  0.00    +0.085 C 
ATOM     25  C   LIG    1       29.276 -19.163   5.669  0.00  0.00    +0.017 C 
ATOM     26  C   LIG    1       30.350 -19.353   6.730  0.00  0.00    +0.017 C 
ATOM     27  C   LIG    1       29.815 -20.445   7.652  0.00  0.00    +0.085 C 
ENDBRANCH  22  23
ENDBRANCH   2  22
TORSDOF 7
ENDMDL
MODEL 6
REMARK VINA RESULT:      -8.3      3.284      6.247
REMARK  Name = *****
REMARK                            x       y       z     vdW  Elec       q    Type
REMARK                         _______ _______ _______ _____ _____    ______ ____
ROOT
ATOM      1  C   LIG    1       25.130 -21.575   6.068  0.00  0.00    +0.005 C 
ATOM      2  C   LIG    1       26.335 -21.169   6.535  0.00  0.00    -0.001 C 
ENDROOT
BRANCH   1   7
ATOM      3  C   LIG    1       21.812 -17.549   3.508  0.00  0.00    +0.044 C 
ATOM      4  C   LIG    1       22.689 -18.553   4.198  0.00  0.00    -0.050 A 
ATOM      5  C   LIG    1       22.250 -19.211   5.352  0.00  0.00    +0.004 A 
ATOM      6  C   LIG    1       23.050 -20.185   5.963  0.00  0.00    +0.009 A 
ATOM      7  C   LIG    1       24.301 -20.521   5.427  0.00  0.00    -0.016 A 
ATOM      8  C   LIG    1       24.738 -19.868   4.269  0.00  0.00    +0.009 A 
ATOM      9  C   LIG    1       23.936 -18.895   3.659  0.00  0.00    +0.004 A 
ENDBRANCH   1   7
BRANCH   1  10
ATOM     10  C   LIG    1       24.696 -22.992   6.117  0.00  0.00    +0.072 A 
ATOM     11  N   LIG    1       25.561 -23.919   5.618  0.00  0.00    -0.247 NA
ATOM     12  C   LIG    1       25.229 -25.227   5.739  0.00  0.00    +0.065 A 
ATOM     13  C   LIG    1       24.032 -25.646   6.312  0.00  0.00    +0.028 A 
ATOM     14  C   LIG    1       23.143 -24.685   6.782  0.00  0.00    +0.004 A 
ATOM     15  C   LIG    1       23.479 -23.339   6.690  0.00  0.00    +0.028 A 
BRANCH  12  16
ATOM     16  C   LIG    1       26.176 -26.225   5.222  0.00  0.00    +0.035 C 
ATOM     17  C   LIG    1       26.108 -27.566   5.174  0.00  0.00    +0.093 C 
BRANCH  17  18
ATOM     18  C   LIG    1       25.097 -28.551   5.609  0.00  0.00    +0.330 C 
ATOM     19  O   LIG    1       25.175 -29.073   6.706  0.00  0.00    -0.246 OA
BRANCH  18  20
ATOM     20  O   LIG    1       24.049 -28.734   4.793  0.00  0.00    -0.477 OA
ATOM     21  H   LIG    1       23.620 -29.611   4.924  0.00  0.00    +0.295 HD
ENDBRANCH  18  20
ENDBRANCH  17  18
ENDBRANCH  12  16
ENDBRANCH   1  10
BRANCH   2  22
ATOM     22  C   LIG    1       27.428 -21.996   7.160  0.00  0.00    +0.112 C 
BRANCH  22  23
ATOM     23  N   LIG    1       28.757 -21.401   6.957  0.00  0.00    -0.299 NA
ATOM     24  C   LIG    1       28.677 -20.024   6.455  0.00  0.00    +0.085 C 
ATOM     25  C   LIG    1       30.101 -19.527   6.641  0.00  0.00    +0.017 C 
ATOM     26  C   LIG    1       30.561 -20.196   7.927  0.00  0.00    +0.017 C 
ATOM     27  C   LIG    1       29.552 -21.310   8.185  0.00  0.00    +0.085 C 
ENDBRANCH  22  23
ENDBRANCH   2  22
TORSDOF 7
ENDMDL
MODEL 7
REMARK VINA RESULT:      -8.2      2.360      5.517
REMARK  Name = *****
REMARK                            x       y       z     vdW  Elec       q    Type
REMARK                         _______ _______ _______ _____ _____    ______ ____
ROOT
ATOM      1  C   LIG    1       25.363 -22.574   6.666  0.00  0.00    +0.005 C 
ATOM      2  C   LIG    1       24.123 -22.105   6.944  0.00  0.00    -0.001 C 
ENDROOT
BRANCH   1   7
ATOM      3  C   LIG    1       25.529 -28.212   5.268  0.00  0.00    +0.044 C 
ATOM      4  C   LIG    1       25.532 -26.751   5.612  0.00  0.00    -0.050 A 
ATOM      5  C   LIG    1       25.112 -25.796   4.679  0.00  0.00    +0.004 A 
ATOM      6  C   LIG    1       25.067 -24.439   5.022  0.00  0.00    +0.009 A 
ATOM      7  C   LIG    1       25.439 -24.013   6.305  0.00  0.00    -0.016 A 
ATOM      8  C   LIG    1       25.853 -24.968   7.240  0.00  0.00    +0.009 A 
ATOM      9  C   LIG    1       25.895 -26.325   6.896  0.00  0.00    +0.004 A 
ENDBRANCH   1   7
BRANCH   1  10
ATOM     10  C   LIG    1       26.557 -21.696   6.644  0.00  0.00    +0.072 A 
ATOM     11  N   LIG    1       27.600 -22.053   7.443  0.00  0.00    -0.247 NA
ATOM     12  C   LIG    1       28.738 -21.321   7.368  0.00  0.00    +0.065 A 
ATOM     13  C   LIG    1       28.859 -20.208   6.542  0.00  0.00    +0.028 A 
ATOM     14  C   LIG    1       27.772 -19.834   5.760  0.00  0.00    +0.004 A 
ATOM     15  C   LIG    1       26.605 -20.589   5.805  0.00  0.00    +0.028 A 
BRANCH  12  16
ATOM     16  C   LIG    1       29.870 -21.724   8.214  0.00  0.00    +0.035 C 
ATOM     17  C   LIG    1       30.818 -20.997   8.827  0.00  0.00    +0.093 C 
BRANCH  17  18
ATOM     18  C   LIG    1       31.107 -19.549   8.896  0.00  0.00    +0.330 C 
ATOM     19  O   LIG    1       30.750 -18.894   9.858  0.00  0.00    -0.246 OA
BRANCH  18  20
ATOM     20  O   LIG    1       31.873 -19.043   7.920  0.00  0.00    -0.477 OA
ATOM     21  H   LIG    1       32.789 -19.405   7.936  0.00  0.00    +0.295 HD
ENDBRANCH  18  20
ENDBRANCH  17  18
ENDBRANCH  12  16
ENDBRANCH   1  10
BRANCH   2  22
ATOM     22  C   LIG    1       23.702 -20.694   7.265  0.00  0.00    +0.112 C 
BRANCH  22  23
ATOM     23  N   LIG    1       22.713 -20.180   6.306  0.00  0.00    -0.299 NA
ATOM     24  C   LIG    1       23.298 -19.209   5.373  0.00  0.00    +0.085 C 
ATOM     25  C   LIG    1       22.218 -19.084   4.313  0.00  0.00    +0.017 C 
ATOM     26  C   LIG    1       21.638 -20.487   4.209  0.00  0.00    +0.017 C 
ATOM     27  C   LIG    1       22.130 -21.220   5.453  0.00  0.00    +0.085 C 
ENDBRANCH  22  23
ENDBRANCH   2  22
TORSDOF 7
ENDMDL
MODEL 8
REMARK VINA RESULT:      -7.7      2.628      5.924
REMARK  Name = *****
REMARK                            x       y       z     vdW  Elec       q    Type
REMARK                         _______ _______ _______ _____ _____    ______ ____
ROOT
ATOM      1  C   LIG    1       26.234 -19.911   5.197  0.00  0.00    +0.005 C 
ATOM      2  C   LIG    1       26.510 -18.936   4.298  0.00  0.00    -0.001 C 
ENDROOT
BRANCH   1   7
ATOM      3  C   LIG    1       30.593 -21.383   8.747  0.00  0.00    +0.044 C 
ATOM      4  C   LIG    1       29.479 -21.041   7.801  0.00  0.00    -0.050 A 
ATOM      5  C   LIG    1       28.200 -21.580   7.980  0.00  0.00    +0.004 A 
ATOM      6  C   LIG    1       27.151 -21.218   7.127  0.00  0.00    +0.009 A 
ATOM      7  C   LIG    1       27.361 -20.308   6.080  0.00  0.00    -0.016 A 
ATOM      8  C   LIG    1       28.638 -19.764   5.905  0.00  0.00    +0.009 A 
ATOM      9  C   LIG    1       29.686 -20.126   6.761  0.00  0.00    +0.004 A 
ENDBRANCH   1   7
BRANCH   1  10
ATOM     10  C   LIG    1       24.878 -20.491   5.348  0.00  0.00    +0.072 A 
ATOM     11  N   LIG    1       24.797 -21.736   5.895  0.00  0.00    -0.247 NA
ATOM     12  C   LIG    1       23.564 -22.247   6.131  0.00  0.00    +0.065 A 
ATOM     13  C   LIG    1       22.397 -21.568   5.800  0.00  0.00    +0.028 A 
ATOM     14  C   LIG    1       22.497 -20.314   5.206  0.00  0.00    +0.004 A 
ATOM     15  C   LIG    1       23.753 -19.763   4.981  0.00  0.00    +0.028 A 
BRANCH  12  16
ATOM     16  C   LIG    1       23.482 -23.580   6.745  0.00  0.00    +0.035 C 
ATOM     17  C   LIG    1       24.055 -24.746   6.405  0.00  0.00    +0.093 C 
BRANCH  17  18
ATOM     18  C   LIG    1       24.965 -25.154   5.315  0.00  0.00    +0.330 C 
ATOM     19  O   LIG    1       25.650 -26.154   5.425  0.00  0.00    -0.246 OA
BRANCH  18  20
ATOM     20  O   LIG    1       24.897 -24.445   4.180  0.00  0.00    -0.477 OA
ATOM     21  H   LIG    1       25.293 -23.548   4.273  0.00  0.00    +0.295 HD
ENDBRANCH  18  20
ENDBRANCH  17  18
ENDBRANCH  12  16
ENDBRANCH   1  10
BRANCH   2  22
ATOM     22  C   LIG    1       25.577 -18.264   3.324  0.00  0.00    +0.112 C 
BRANCH  22  23
ATOM     23  N   LIG    1       25.970 -16.874   3.051  0.00  0.00    -0.299 NA
ATOM     24  C   LIG    1       24.999 -15.910   3.580  0.00  0.00    +0.085 C 
ATOM     25  C   LIG    1       25.757 -14.597   3.481  0.00  0.00    +0.017 C 
ATOM     26  C   LIG    1       27.197 -14.977   3.789  0.00  0.00    +0.017 C 
ATOM     27  C   LIG    1       27.249 -16.497   3.660  0.00  0.00    +0.085 C 
ENDBRANCH  22  23
ENDBRANCH   2  22
TORSDOF 7
ENDMDL
MODEL 9
REMARK VINA RESULT:      -7.5      3.547      7.230
REMARK  Name = *****
REMARK                            x       y       z     vdW  Elec       q    Type
REMARK                         _______ _______ _______ _____ _____    ______ ____
ROOT
ATOM      1  C   LIG    1       25.930 -21.800   6.913  0.00  0.00    +0.005 C 
ATOM      2  C   LIG    1       24.967 -21.110   7.569  0.00  0.00    -0.001 C 
ENDROOT
BRANCH   1   7
ATOM      3  C   LIG    1       31.191 -19.339   7.095  0.00  0.00    +0.044 C 
ATOM      4  C   LIG    1       29.850 -20.009   7.017  0.00  0.00    -0.050 A 
ATOM      5  C   LIG    1       29.507 -21.028   7.913  0.00  0.00    +0.004 A 
ATOM      6  C   LIG    1       28.236 -21.614   7.870  0.00  0.00    +0.009 A 
ATOM      7  C   LIG    1       27.284 -21.189   6.932  0.00  0.00    -0.016 A 
ATOM      8  C   LIG    1       27.624 -20.166   6.041  0.00  0.00    +0.009 A 
ATOM      9  C   LIG    1       28.896 -19.580   6.086  0.00  0.00    +0.004 A 
ENDBRANCH   1   7
BRANCH   1  10
ATOM     10  C   LIG    1       25.673 -23.118   6.284  0.00  0.00    +0.072 A 
ATOM     11  N   LIG    1       26.007 -24.222   7.009  0.00  0.00    -0.247 NA
ATOM     12  C   LIG    1       25.694 -25.437   6.496  0.00  0.00    +0.065 A 
ATOM     13  C   LIG    1       25.089 -25.591   5.254  0.00  0.00    +0.028 A 
ATOM     14  C   LIG    1       24.789 -24.456   4.509  0.00  0.00    +0.004 A 
ATOM     15  C   LIG    1       25.079 -23.200   5.031  0.00  0.00    +0.028 A 
BRANCH  12  16
ATOM     16  C   LIG    1       26.033 -26.625   7.293  0.00  0.00    +0.035 C 
ATOM     17  C   LIG    1       25.726 -27.921   7.121  0.00  0.00    +0.093 C 
BRANCH  17  18
ATOM     18  C   LIG    1       24.947 -28.658   6.104  0.00  0.00    +0.330 C 
ATOM     19  O   LIG    1       25.514 -29.306   5.243  0.00  0.00    -0.246 OA
BRANCH  18  20
ATOM     20  O   LIG    1       23.616 -28.668   6.260  0.00  0.00    -0.477 OA
ATOM     21  H   LIG    1       23.143 -28.308   5.474  0.00  0.00    +0.295 HD
ENDBRANCH  18  20
ENDBRANCH  17  18
ENDBRANCH  12  16
ENDBRANCH   1  10
BRANCH   2  22
ATOM     22  C   LIG    1       23.527 -21.492   7.798  0.00  0.00    +0.112 C 
BRANCH  22  23
ATOM     23  N   LIG    1       22.633 -20.915   6.784  0.00  0.00    -0.299 NA
ATOM     24  C   LIG    1       23.302 -19.891   5.974  0.00  0.00    +0.085 C 
ATOM     25  C   LIG    1       22.326 -19.695   4.826  0.00  0.00    +0.017 C 
ATOM     26  C   LIG    1       21.760 -21.086   4.580  0.00  0.00    +0.017 C 
ATOM     27  C   LIG    1       22.134 -21.897   5.818  0.00  0.00    +0.085 C 
ENDBRANCH  22  23
ENDBRANCH   2  22
TORSDOF 7
ENDMDL
