MODEL 1
REMARK VINA RESULT:      -1.9      0.000      0.000
REMARK  Name = *****
REMARK                            x       y       z     vdW  Elec       q    Type
REMARK                         _______ _______ _______ _____ _____    ______ ____
ROOT
ATOM      1  O   LIG    1       25.540 -18.901   3.653  0.00  0.00    -0.270 OA
ATOM      2  C   LIG    1       24.490 -18.316   3.886  0.00  0.00    +0.252 C 
ATOM      3  N   LIG    1       24.350 -16.947   4.013  0.00  0.00    -0.280 N 
ATOM      4  H   LIG    1       23.407 -16.606   4.204  0.00  0.00    +0.155 HD
ENDROOT
BRANCH   2   5
ATOM      5  C   LIG    1       23.247 -19.138   4.041  0.00  0.00    +0.080 A 
ATOM      6  C   LIG    1       23.197 -20.409   4.636  0.00  0.00    +0.129 A 
ATOM      7  C   LIG    1       21.984 -21.092   4.758  0.00  0.00    +0.048 A 
ATOM      8  C   LIG    1       20.808 -20.513   4.277  0.00  0.00    +0.023 A 
ATOM      9  C   LIG    1       20.848 -19.259   3.674  0.00  0.00    +0.042 A 
ATOM     10 CL   LIG    1       19.400 -18.553   3.072  0.00  0.00    -0.084 Cl
ATOM     11  C   LIG    1       22.054 -18.573   3.557  0.00  0.00    +0.036 A 
BRANCH   6  12
ATOM     12  O   LIG    1       24.336 -21.003   5.112  0.00  0.00    -0.506 OA
ATOM     13  H   LIG    1       24.104 -21.838   5.560  0.00  0.00    +0.292 HD
ENDBRANCH   6  12
ENDBRANCH   2   5
BRANCH   3  14
ATOM     14  C   LIG    1       25.350 -15.956   3.883  0.00  0.00    +0.052 A 
ATOM     15  C   LIG    1       24.983 -14.597   4.004  0.00  0.00    +0.069 A 
ATOM     16 CL   LIG    1       23.358 -14.136   4.379  0.00  0.00    -0.081 Cl
ATOM     17  C   LIG    1       25.920 -13.578   3.820  0.00  0.00    +0.106 A 
ATOM     18  C   LIG    1       27.236 -13.933   3.522  0.00  0.00    +0.275 A 
ATOM     19  C   LIG    1       27.639 -15.263   3.430  0.00  0.00    +0.086 A 
ATOM     20  C   LIG    1       26.689 -16.269   3.616  0.00  0.00    +0.031 A 
BRANCH  18  21
ATOM     21  N   LIG    1       28.210 -12.890   3.271  0.00  0.00    +0.080 N 
ATOM     22  O   LIG    1       29.382 -13.130   3.587  0.00  0.00    -0.576 OA
ATOM     23  O   LIG    1       27.794 -11.840   2.766  0.00  0.00    +0.041 OA
ENDBRANCH  18  21
ENDBRANCH   3  14
TORSDOF 4
ENDMDL
MODEL 2
REMARK VINA RESULT:      -1.5      3.145      7.832
REMARK  Name = *****
REMARK                            x       y       z     vdW  Elec       q    Type
REMARK                         _______ _______ _______ _____ _____    ______ ____
ROOT
ATOM      1  O   LIG    1       23.864 -14.504   5.154  0.00  0.00    -0.270 OA
ATOM      2  C   LIG    1       24.543 -14.830   4.189  0.00  0.00    +0.252 C 
ATOM      3  N   LIG    1       24.593 -16.096   3.638  0.00  0.00    -0.280 N 
ATOM      4  H   LIG    1       25.205 -16.212   2.830  0.00  0.00    +0.155 HD
ENDROOT
BRANCH   2   5
ATOM      5  C   LIG    1       25.388 -13.777   3.538  0.00  0.00    +0.080 A 
ATOM      6  C   LIG    1       24.923 -12.848   2.595  0.00  0.00    +0.129 A 
ATOM      7  C   LIG    1       25.783 -11.886   2.058  0.00  0.00    +0.048 A 
ATOM      8  C   LIG    1       27.121 -11.850   2.455  0.00  0.00    +0.023 A 
ATOM      9  C   LIG    1       27.596 -12.775   3.380  0.00  0.00    +0.042 A 
ATOM     10 CL   LIG    1       29.247 -12.736   3.859  0.00  0.00    -0.084 Cl
ATOM     11  C   LIG    1       26.740 -13.730   3.922  0.00  0.00    +0.036 A 
BRANCH   6  12
ATOM     12  O   LIG    1       23.616 -12.863   2.184  0.00  0.00    -0.506 OA
ATOM     13  H   LIG    1       23.544 -13.363   1.349  0.00  0.00    +0.292 HD
ENDBRANCH   6  12
ENDBRANCH   2   5
BRANCH   3  14
ATOM     14  C   LIG    1       23.877 -17.247   4.041  0.00  0.00    +0.052 A 
ATOM     15  C   LIG    1       24.547 -18.490   4.076  0.00  0.00    +0.069 A 
ATOM     16 CL   LIG    1       26.234 -18.610   3.710  0.00  0.00    -0.081 Cl
ATOM     17  C   LIG    1       23.870 -19.666   4.404  0.00  0.00    +0.106 A 
ATOM     18  C   LIG    1       22.510 -19.586   4.707  0.00  0.00    +0.275 A 
ATOM     19  C   LIG    1       21.827 -18.372   4.716  0.00  0.00    +0.086 A 
ATOM     20  C   LIG    1       22.519 -17.206   4.385  0.00  0.00    +0.031 A 
BRANCH  18  21
ATOM     21  N   LIG    1       21.777 -20.802   4.994  0.00  0.00    +0.080 N 
ATOM     22  O   LIG    1       20.740 -20.996   4.347  0.00  0.00    -0.576 OA
ATOM     23  O   LIG    1       22.241 -21.548   5.865  0.00  0.00    +0.041 OA
ENDBRANCH  18  21
ENDBRANCH   3  14
TORSDOF 4
ENDMDL
MODEL 3
REMARK VINA RESULT:      -1.5      2.532      7.567
REMARK  Name = *****
REMARK                            x       y       z     vdW  Elec       q    Type
REMARK                         _______ _______ _______ _____ _____    ______ ____
ROOT
ATOM      1  O   LIG    1       26.464 -16.686   2.999  0.00  0.00    -0.270 OA
ATOM      2  C   LIG    1       25.637 -15.838   3.303  0.00  0.00    +0.252 C 
ATOM      3  N   LIG    1       24.373 -16.096   3.799  0.00  0.00    -0.280 N 
ATOM      4  H   LIG    1       23.797 -15.280   4.010  0.00  0.00    +0.155 HD
ENDROOT
BRANCH   2   5
ATOM      5  C   LIG    1       26.014 -14.397   3.134  0.00  0.00    +0.080 A 
ATOM      6  C   LIG    1       25.150 -13.393   2.667  0.00  0.00    +0.129 A 
ATOM      7  C   LIG    1       25.585 -12.069   2.565  0.00  0.00    +0.048 A 
ATOM      8  C   LIG    1       26.893 -11.737   2.922  0.00  0.00    +0.023 A 
ATOM      9  C   LIG    1       27.762 -12.727   3.374  0.00  0.00    +0.042 A 
ATOM     10 CL   LIG    1       29.376 -12.317   3.803  0.00  0.00    -0.084 Cl
ATOM     11  C   LIG    1       27.330 -14.046   3.484  0.00  0.00    +0.036 A 
BRANCH   6  12
ATOM     12  O   LIG    1       23.863 -13.691   2.304  0.00  0.00    -0.506 OA
ATOM     13  H   LIG    1       23.873 -14.293   1.537  0.00  0.00    +0.292 HD
ENDBRANCH   6  12
ENDBRANCH   2   5
BRANCH   3  14
ATOM     14  C   LIG    1       23.789 -17.353   4.077  0.00  0.00    +0.052 A 
ATOM     15  C   LIG    1       22.570 -17.397   4.788  0.00  0.00    +0.069 A 
ATOM     16 CL   LIG    1       21.751 -15.945   5.254  0.00  0.00    -0.081 Cl
ATOM     17  C   LIG    1       21.985 -18.614   5.143  0.00  0.00    +0.106 A 
ATOM     18  C   LIG    1       22.630 -19.794   4.771  0.00  0.00    +0.275 A 
ATOM     19  C   LIG    1       23.816 -19.787   4.039  0.00  0.00    +0.086 A 
ATOM     20  C   LIG    1       24.387 -18.561   3.693  0.00  0.00    +0.031 A 
BRANCH  18  21
ATOM     21  N   LIG    1       22.071 -21.065   5.180  0.00  0.00    +0.080 N 
ATOM     22  O   LIG    1       22.518 -21.567   6.219  0.00  0.00    -0.576 OA
ATOM     23  O   LIG    1       21.193 -21.554   4.457  0.00  0.00    +0.041 OA
ENDBRANCH  18  21
ENDBRANCH   3  14
TORSDOF 4
ENDMDL
MODEL 4
REMARK VINA RESULT:      -0.8      1.450      1.793
REMARK  Name = *****
REMARK                            x       y       z     vdW  Elec       q    Type
REMARK                         _______ _______ _______ _____ _____    ______ ____
ROOT
ATOM      1  O   LIG    1       25.839 -18.324   2.608  0.00  0.00    -0.270 OA
ATOM      2  C   LIG    1       25.002 -17.990   3.436  0.00  0.00    +0.252 C 
ATOM      3  N   LIG    1       24.939 -16.757   4.057  0.00  0.00    -0.280 N 
ATOM      4  H   LIG    1       24.178 -16.627   4.724  0.00  0.00    +0.155 HD
ENDROOT
BRANCH   2   5
ATOM      5  C   LIG    1       23.949 -18.989   3.812  0.00  0.00    +0.080 A 
ATOM      6  C   LIG    1       24.207 -20.253   4.366  0.00  0.00    +0.129 A 
ATOM      7  C   LIG    1       23.156 -21.109   4.707  0.00  0.00    +0.048 A 
ATOM      8  C   LIG    1       21.836 -20.711   4.491  0.00  0.00    +0.023 A 
ATOM      9  C   LIG    1       21.570 -19.464   3.931  0.00  0.00    +0.042 A 
ATOM     10 CL   LIG    1       19.943 -18.981   3.655  0.00  0.00    -0.084 Cl
ATOM     11  C   LIG    1       22.613 -18.606   3.596  0.00  0.00    +0.036 A 
BRANCH   6  12
ATOM     12  O   LIG    1       25.493 -20.672   4.584  0.00  0.00    -0.506 OA
ATOM     13  H   LIG    1       25.496 -21.630   4.764  0.00  0.00    +0.292 HD
ENDBRANCH   6  12
ENDBRANCH   2   5
BRANCH   3  14
ATOM     14  C   LIG    1       25.785 -15.642   3.860  0.00  0.00    +0.052 A 
ATOM     15  C   LIG    1       27.175 -15.795   4.059  0.00  0.00    +0.069 A 
ATOM     16 CL   LIG    1       27.858 -17.333   4.465  0.00  0.00    -0.081 Cl
ATOM     17  C   LIG    1       28.045 -14.710   3.940  0.00  0.00    +0.106 A 
ATOM     18  C   LIG    1       27.511 -13.464   3.609  0.00  0.00    +0.275 A 
ATOM     19  C   LIG    1       26.150 -13.285   3.371  0.00  0.00    +0.086 A 
ATOM     20  C   LIG    1       25.294 -14.380   3.495  0.00  0.00    +0.031 A 
BRANCH  18  21
ATOM     21  N   LIG    1       28.389 -12.315   3.538  0.00  0.00    +0.080 N 
ATOM     22  O   LIG    1       29.184 -12.157   4.473  0.00  0.00    -0.576 OA
ATOM     23  O   LIG    1       28.273 -11.578   2.550  0.00  0.00    +0.041 OA
ENDBRANCH  18  21
ENDBRANCH   3  14
TORSDOF 4
ENDMDL
MODEL 5
REMARK VINA RESULT:      -0.5      2.434      2.894
REMARK  Name = *****
REMARK                            x       y       z     vdW  Elec       q    Type
REMARK                         _______ _______ _______ _____ _____    ______ ____
ROOT
ATOM      1  O   LIG    1       22.367 -15.958   4.668  0.00  0.00    -0.270 OA
ATOM      2  C   LIG    1       23.023 -16.944   4.362  0.00  0.00    +0.252 C 
ATOM      3  N   LIG    1       24.334 -16.927   3.924  0.00  0.00    -0.280 N 
ATOM      4  H   LIG    1       24.749 -17.835   3.710  0.00  0.00    +0.155 HD
ENDROOT
BRANCH   2   5
ATOM      5  C   LIG    1       22.367 -18.287   4.473  0.00  0.00    +0.080 A 
ATOM      6  C   LIG    1       21.238 -18.689   3.741  0.00  0.00    +0.129 A 
ATOM      7  C   LIG    1       20.709 -19.973   3.895  0.00  0.00    +0.048 A 
ATOM      8  C   LIG    1       21.300 -20.866   4.791  0.00  0.00    +0.023 A 
ATOM      9  C   LIG    1       22.411 -20.474   5.531  0.00  0.00    +0.042 A 
ATOM     10 CL   LIG    1       23.130 -21.572   6.642  0.00  0.00    -0.084 Cl
ATOM     11  C   LIG    1       22.946 -19.198   5.375  0.00  0.00    +0.036 A 
BRANCH   6  12
ATOM     12  O   LIG    1       20.635 -17.832   2.859  0.00  0.00    -0.506 OA
ATOM     13  H   LIG    1       21.028 -16.944   2.949  0.00  0.00    +0.292 HD
ENDBRANCH   6  12
ENDBRANCH   2   5
BRANCH   3  14
ATOM     14  C   LIG    1       25.181 -15.807   3.761  0.00  0.00    +0.052 A 
ATOM     15  C   LIG    1       26.576 -16.011   3.690  0.00  0.00    +0.069 A 
ATOM     16 CL   LIG    1       27.252 -17.604   3.723  0.00  0.00    -0.081 Cl
ATOM     17  C   LIG    1       27.459 -14.934   3.595  0.00  0.00    +0.106 A 
ATOM     18  C   LIG    1       26.930 -13.643   3.562  0.00  0.00    +0.275 A 
ATOM     19  C   LIG    1       25.558 -13.408   3.595  0.00  0.00    +0.086 A 
ATOM     20  C   LIG    1       24.689 -14.496   3.691  0.00  0.00    +0.031 A 
BRANCH  18  21
ATOM     21  N   LIG    1       27.832 -12.510   3.522  0.00  0.00    +0.080 N 
ATOM     22  O   LIG    1       27.662 -11.691   2.610  0.00  0.00    -0.576 OA
ATOM     23  O   LIG    1       28.704 -12.453   4.397  0.00  0.00    +0.041 OA
ENDBRANCH  18  21
ENDBRANCH   3  14
TORSDOF 4
ENDMDL
MODEL 6
REMARK VINA RESULT:      -0.2      1.733      2.111
REMARK  Name = *****
REMARK                            x       y       z     vdW  Elec       q    Type
REMARK                         _______ _______ _______ _____ _____    ______ ____
ROOT
ATOM      1  O   LIG    1       23.094 -15.918   4.445  0.00  0.00    -0.270 OA
ATOM      2  C   LIG    1       23.758 -16.884   4.095  0.00  0.00    +0.252 C 
ATOM      3  N   LIG    1       25.080 -16.843   3.695  0.00  0.00    -0.280 N 
ATOM      4  H   LIG    1       25.500 -17.737   3.436  0.00  0.00    +0.155 HD
ENDROOT
BRANCH   2   5
ATOM      5  C   LIG    1       23.097 -18.230   4.103  0.00  0.00    +0.080 A 
ATOM      6  C   LIG    1       23.746 -19.438   4.405  0.00  0.00    +0.129 A 
ATOM      7  C   LIG    1       23.040 -20.644   4.410  0.00  0.00    +0.048 A 
ATOM      8  C   LIG    1       21.678 -20.654   4.105  0.00  0.00    +0.023 A 
ATOM      9  C   LIG    1       21.027 -19.464   3.792  0.00  0.00    +0.042 A 
ATOM     10 CL   LIG    1       19.352 -19.481   3.406  0.00  0.00    -0.084 Cl
ATOM     11  C   LIG    1       21.726 -18.260   3.793  0.00  0.00    +0.036 A 
BRANCH   6  12
ATOM     12  O   LIG    1       25.083 -19.458   4.703  0.00  0.00    -0.506 OA
ATOM     13  H   LIG    1       25.396 -20.381   4.727  0.00  0.00    +0.292 HD
ENDBRANCH   6  12
ENDBRANCH   2   5
BRANCH   3  14
ATOM     14  C   LIG    1       25.932 -15.717   3.627  0.00  0.00    +0.052 A 
ATOM     15  C   LIG    1       27.289 -15.865   3.990  0.00  0.00    +0.069 A 
ATOM     16 CL   LIG    1       27.934 -17.407   4.440  0.00  0.00    -0.081 Cl
ATOM     17  C   LIG    1       28.156 -14.771   4.002  0.00  0.00    +0.106 A 
ATOM     18  C   LIG    1       27.653 -13.522   3.637  0.00  0.00    +0.275 A 
ATOM     19  C   LIG    1       26.329 -13.347   3.241  0.00  0.00    +0.086 A 
ATOM     20  C   LIG    1       25.476 -14.451   3.235  0.00  0.00    +0.031 A 
BRANCH  18  21
ATOM     21  N   LIG    1       28.522 -12.365   3.698  0.00  0.00    +0.080 N 
ATOM     22  O   LIG    1       28.639 -11.697   2.663  0.00  0.00    -0.576 OA
ATOM     23  O   LIG    1       29.082 -12.138   4.778  0.00  0.00    +0.041 OA
ENDBRANCH  18  21
ENDBRANCH   3  14
TORSDOF 4
ENDMDL
MODEL 7
REMARK VINA RESULT:       0.9      2.134      7.262
REMARK  Name = *****
REMARK                            x       y       z     vdW  Elec       q    Type
REMARK                         _______ _______ _______ _____ _____    ______ ____
ROOT
ATOM      1  O   LIG    1       26.529 -16.434   4.549  0.00  0.00    -0.270 OA
ATOM      2  C   LIG    1       25.721 -15.872   3.822  0.00  0.00    +0.252 C 
ATOM      3  N   LIG    1       24.476 -16.365   3.481  0.00  0.00    -0.280 N 
ATOM      4  H   LIG    1       23.911 -15.777   2.867  0.00  0.00    +0.155 HD
ENDROOT
BRANCH   2   5
ATOM      5  C   LIG    1       26.096 -14.536   3.255  0.00  0.00    +0.080 A 
ATOM      6  C   LIG    1       27.413 -14.075   3.097  0.00  0.00    +0.129 A 
ATOM      7  C   LIG    1       27.666 -12.821   2.535  0.00  0.00    +0.048 A 
ATOM      8  C   LIG    1       26.603 -12.011   2.133  0.00  0.00    +0.023 A 
ATOM      9  C   LIG    1       25.293 -12.453   2.297  0.00  0.00    +0.042 A 
ATOM     10 CL   LIG    1       23.984 -11.448   1.812  0.00  0.00    -0.084 Cl
ATOM     11  C   LIG    1       25.037 -13.704   2.850  0.00  0.00    +0.036 A 
BRANCH   6  12
ATOM     12  O   LIG    1       28.475 -14.847   3.487  0.00  0.00    -0.506 OA
ATOM     13  H   LIG    1       28.166 -15.752   3.678  0.00  0.00    +0.292 HD
ENDBRANCH   6  12
ENDBRANCH   2   5
BRANCH   3  14
ATOM     14  C   LIG    1       23.875 -17.574   3.901  0.00  0.00    +0.052 A 
ATOM     15  C   LIG    1       22.590 -17.531   4.484  0.00  0.00    +0.069 A 
ATOM     16 CL   LIG    1       21.717 -16.043   4.621  0.00  0.00    -0.081 Cl
ATOM     17  C   LIG    1       21.980 -18.688   4.973  0.00  0.00    +0.106 A 
ATOM     18  C   LIG    1       22.668 -19.897   4.865  0.00  0.00    +0.275 A 
ATOM     19  C   LIG    1       23.922 -19.980   4.265  0.00  0.00    +0.086 A 
ATOM     20  C   LIG    1       24.517 -18.814   3.781  0.00  0.00    +0.031 A 
BRANCH  18  21
ATOM     21  N   LIG    1       22.078 -21.098   5.419  0.00  0.00    +0.080 N 
ATOM     22  O   LIG    1       22.605 -21.563   6.437  0.00  0.00    -0.576 OA
ATOM     23  O   LIG    1       21.098 -21.568   4.828  0.00  0.00    +0.041 OA
ENDBRANCH  18  21
ENDBRANCH   3  14
TORSDOF 4
ENDMDL
