MODEL 1
REMARK VINA RESULT:      -4.7      0.000      0.000
REMARK  Name = *****
REMARK                            x       y       z     vdW  Elec       q    Type
REMARK                         _______ _______ _______ _____ _____    ______ ____
ROOT
ATOM      1  CA  GLU A  1       27.280 -14.047   4.180  0.00  0.00    +0.161 C 
ENDROOT
BRANCH   1   2
ATOM      2  N   GLU A  1       28.308 -13.052   3.726  0.00  0.00    -0.318 NA
ATOM      3  H1  GLU A  1       29.085 -13.555   3.285  0.00  0.00    +0.119 HD
ATOM      4  H2  GLU A  1       27.886 -12.524   2.954  0.00  0.00    +0.119 HD
ENDBRANCH   1   2
BRANCH   1   5
ATOM      5  C   GLU A  1       26.807 -14.835   2.942  0.00  0.00    +0.322 C 
ATOM      6  O   GLU A  1       26.601 -14.363   1.829  0.00  0.00    -0.249 OA
BRANCH   5   7
ATOM      7  OXT GLU A  1       26.597 -16.143   3.242  0.00  0.00    -0.479 OA
ATOM      8  HXT GLU A  1       26.583 -16.611   2.369  0.00  0.00    +0.295 HD
ENDBRANCH   5   7
ENDBRANCH   1   5
BRANCH   1   9
ATOM      9  CB  GLU A  1       26.175 -13.307   4.953  0.00  0.00    +0.041 C 
BRANCH   9  10
ATOM     10  CG  GLU A  1       24.736 -13.669   4.567  0.00  0.00    +0.122 C 
BRANCH  10  11
ATOM     11  CD  GLU A  1       24.046 -12.596   3.758  0.00  0.00    +0.305 C 
ATOM     12  OE1 GLU A  1       23.679 -11.518   4.196  0.00  0.00    -0.251 OA
BRANCH  11  13
ATOM     13  OE2 GLU A  1       23.893 -12.943   2.462  0.00  0.00    -0.481 OA
ATOM     14  HE2 GLU A  1       24.137 -12.237   1.832  0.00  0.00    +0.295 HD
ENDBRANCH  11  13
ENDBRANCH  10  11
ENDBRANCH   9  10
ENDBRANCH   1   9
TORSDOF 7
ENDMDL
MODEL 2
REMARK VINA RESULT:      -4.6      2.002      2.098
REMARK  Name = *****
REMARK                            x       y       z     vdW  Elec       q    Type
REMARK                         _______ _______ _______ _____ _____    ______ ____
ROOT
ATOM      1  CA  GLU A  1       26.523 -13.525   3.256  0.00  0.00    +0.161 C 
ENDROOT
BRANCH   1   2
ATOM      2  N   GLU A  1       27.002 -14.222   2.016  0.00  0.00    -0.318 NA
ATOM      3  H1  GLU A  1       26.732 -15.210   2.065  0.00  0.00    +0.119 HD
ATOM      4  H2  GLU A  1       26.445 -13.852   1.238  0.00  0.00    +0.119 HD
ENDBRANCH   1   2
BRANCH   1   5
ATOM      5  C   GLU A  1       27.749 -13.259   4.153  0.00  0.00    +0.322 C 
ATOM      6  O   GLU A  1       28.912 -13.187   3.771  0.00  0.00    -0.249 OA
BRANCH   5   7
ATOM      7  OXT GLU A  1       27.390 -13.148   5.458  0.00  0.00    -0.479 OA
ATOM      8  HXT GLU A  1       28.074 -12.560   5.867  0.00  0.00    +0.295 HD
ENDBRANCH   5   7
ENDBRANCH   1   5
BRANCH   1   9
ATOM      9  CB  GLU A  1       25.405 -14.363   3.901  0.00  0.00    +0.041 C 
BRANCH   9  10
ATOM     10  CG  GLU A  1       23.978 -13.843   3.690  0.00  0.00    +0.122 C 
BRANCH  10  11
ATOM     11  CD  GLU A  1       23.861 -12.344   3.835  0.00  0.00    +0.305 C 
ATOM     12  OE1 GLU A  1       23.938 -11.736   4.890  0.00  0.00    -0.251 OA
BRANCH  11  13
ATOM     13  OE2 GLU A  1       23.681 -11.722   2.650  0.00  0.00    -0.481 OA
ATOM     14  HE2 GLU A  1       23.312 -10.821   2.728  0.00  0.00    +0.295 HD
ENDBRANCH  11  13
ENDBRANCH  10  11
ENDBRANCH   9  10
ENDBRANCH   1   9
TORSDOF 7
ENDMDL
MODEL 3
REMARK VINA RESULT:      -4.6      1.367      1.641
REMARK  Name = *****
REMARK                            x       y       z     vdW  Elec       q    Type
REMARK                         _______ _______ _______ _____ _____    ______ ____
ROOT
ATOM      1  CA  GLU A  1       26.661 -14.489   4.267  0.00  0.00    +0.161 C 
ENDROOT
BRANCH   1   2
ATOM      2  N   GLU A  1       26.716 -13.560   5.444  0.00  0.00    -0.318 NA
ATOM      3  H1  GLU A  1       27.393 -13.923   6.123  0.00  0.00    +0.119 HD
ATOM      4  H2  GLU A  1       27.144 -12.689   5.111  0.00  0.00    +0.119 HD
ENDBRANCH   1   2
BRANCH   1   5
ATOM      5  C   GLU A  1       27.560 -13.903   3.160  0.00  0.00    +0.322 C 
ATOM      6  O   GLU A  1       28.579 -13.245   3.339  0.00  0.00    -0.249 OA
BRANCH   5   7
ATOM      7  OXT GLU A  1       27.060 -14.172   1.925  0.00  0.00    -0.479 OA
ATOM      8  HXT GLU A  1       26.167 -14.571   2.087  0.00  0.00    +0.295 HD
ENDBRANCH   5   7
ENDBRANCH   1   5
BRANCH   1   9
ATOM      9  CB  GLU A  1       25.190 -14.711   3.873  0.00  0.00    +0.041 C 
BRANCH   9  10
ATOM     10  CG  GLU A  1       24.215 -13.603   4.288  0.00  0.00    +0.122 C 
BRANCH  10  11
ATOM     11  CD  GLU A  1       23.972 -12.584   3.202  0.00  0.00    +0.305 C 
ATOM     12  OE1 GLU A  1       23.561 -11.449   3.387  0.00  0.00    -0.251 OA
BRANCH  11  13
ATOM     13  OE2 GLU A  1       24.283 -13.051   1.973  0.00  0.00    -0.481 OA
ATOM     14  HE2 GLU A  1       25.243 -13.089   1.796  0.00  0.00    +0.295 HD
ENDBRANCH  11  13
ENDBRANCH  10  11
ENDBRANCH   9  10
ENDBRANCH   1   9
TORSDOF 7
ENDMDL
MODEL 4
REMARK VINA RESULT:      -4.5      1.694      3.778
REMARK  Name = *****
REMARK                            x       y       z     vdW  Elec       q    Type
REMARK                         _______ _______ _______ _____ _____    ______ ____
ROOT
ATOM      1  CA  GLU A  1       24.419 -13.592   4.432  0.00  0.00    +0.161 C 
ENDROOT
BRANCH   1   2
ATOM      2  N   GLU A  1       24.343 -14.977   3.858  0.00  0.00    -0.318 NA
ATOM      3  H1  GLU A  1       23.425 -15.378   4.079  0.00  0.00    +0.119 HD
ATOM      4  H2  GLU A  1       24.327 -14.871   2.837  0.00  0.00    +0.119 HD
ENDBRANCH   1   2
BRANCH   1   5
ATOM      5  C   GLU A  1       23.917 -12.606   3.358  0.00  0.00    +0.322 C 
ATOM      6  O   GLU A  1       23.570 -11.447   3.556  0.00  0.00    -0.249 OA
BRANCH   5   7
ATOM      7  OXT GLU A  1       23.862 -13.196   2.135  0.00  0.00    -0.479 OA
ATOM      8  HXT GLU A  1       24.764 -13.070   1.744  0.00  0.00    +0.295 HD
ENDBRANCH   5   7
ENDBRANCH   1   5
BRANCH   1   9
ATOM      9  CB  GLU A  1       25.848 -13.339   4.941  0.00  0.00    +0.041 C 
BRANCH   9  10
ATOM     10  CG  GLU A  1       26.924 -14.292   4.407  0.00  0.00    +0.122 C 
BRANCH  10  11
ATOM     11  CD  GLU A  1       27.416 -13.925   3.028  0.00  0.00    +0.305 C 
ATOM     12  OE1 GLU A  1       26.822 -14.159   1.988  0.00  0.00    -0.251 OA
BRANCH  11  13
ATOM     13  OE2 GLU A  1       28.598 -13.272   3.056  0.00  0.00    -0.481 OA
ATOM     14  HE2 GLU A  1       29.363 -13.828   2.813  0.00  0.00    +0.295 HD
ENDBRANCH  11  13
ENDBRANCH  10  11
ENDBRANCH   9  10
ENDBRANCH   1   9
TORSDOF 7
ENDMDL
MODEL 5
REMARK VINA RESULT:      -4.5      2.605      3.744
REMARK  Name = *****
REMARK                            x       y       z     vdW  Elec       q    Type
REMARK                         _______ _______ _______ _____ _____    ______ ____
ROOT
ATOM      1  CA  GLU A  1       25.136 -13.458   3.943  0.00  0.00    +0.161 C 
ENDROOT
BRANCH   1   2
ATOM      2  N   GLU A  1       23.896 -14.292   4.080  0.00  0.00    -0.318 NA
ATOM      3  H1  GLU A  1       23.115 -13.684   4.349  0.00  0.00    +0.119 HD
ATOM      4  H2  GLU A  1       23.649 -14.608   3.136  0.00  0.00    +0.119 HD
ENDBRANCH   1   2
BRANCH   1   5
ATOM      5  C   GLU A  1       25.313 -13.116   2.450  0.00  0.00    +0.322 C 
ATOM      6  O   GLU A  1       24.635 -12.317   1.814  0.00  0.00    -0.249 OA
BRANCH   5   7
ATOM      7  OXT GLU A  1       26.310 -13.850   1.891  0.00  0.00    -0.479 OA
ATOM      8  HXT GLU A  1       25.888 -14.330   1.135  0.00  0.00    +0.295 HD
ENDBRANCH   5   7
ENDBRANCH   1   5
BRANCH   1   9
ATOM      9  CB  GLU A  1       26.315 -14.203   4.593  0.00  0.00    +0.041 C 
BRANCH   9  10
ATOM     10  CG  GLU A  1       27.226 -13.356   5.489  0.00  0.00    +0.122 C 
BRANCH  10  11
ATOM     11  CD  GLU A  1       28.403 -12.762   4.753  0.00  0.00    +0.305 C 
ATOM     12  OE1 GLU A  1       28.712 -13.024   3.602  0.00  0.00    -0.251 OA
BRANCH  11  13
ATOM     13  OE2 GLU A  1       29.085 -11.869   5.502  0.00  0.00    -0.481 OA
ATOM     14  HE2 GLU A  1       29.929 -11.581   5.103  0.00  0.00    +0.295 HD
ENDBRANCH  11  13
ENDBRANCH  10  11
ENDBRANCH   9  10
ENDBRANCH   1   9
TORSDOF 7
ENDMDL
MODEL 6
REMARK VINA RESULT:      -4.3      2.489      3.973
REMARK  Name = *****
REMARK                            x       y       z     vdW  Elec       q    Type
REMARK                         _______ _______ _______ _____ _____    ______ ____
ROOT
ATOM      1  CA  GLU A  1       24.472 -13.087   2.551  0.00  0.00    +0.161 C 
ENDROOT
BRANCH   1   2
ATOM      2  N   GLU A  1       23.840 -11.749   2.303  0.00  0.00    -0.318 NA
ATOM      3  H1  GLU A  1       23.673 -11.288   3.203  0.00  0.00    +0.119 HD
ATOM      4  H2  GLU A  1       24.555 -11.164   1.855  0.00  0.00    +0.119 HD
ENDBRANCH   1   2
BRANCH   1   5
ATOM      5  C   GLU A  1       24.154 -13.498   4.003  0.00  0.00    +0.322 C 
ATOM      6  O   GLU A  1       23.613 -14.543   4.348  0.00  0.00    -0.249 OA
BRANCH   5   7
ATOM      7  OXT GLU A  1       24.514 -12.526   4.881  0.00  0.00    -0.479 OA
ATOM      8  HXT GLU A  1       25.368 -12.164   4.532  0.00  0.00    +0.295 HD
ENDBRANCH   5   7
ENDBRANCH   1   5
BRANCH   1   9
ATOM      9  CB  GLU A  1       25.968 -13.007   2.202  0.00  0.00    +0.041 C 
BRANCH   9  10
ATOM     10  CG  GLU A  1       26.857 -14.089   2.826  0.00  0.00    +0.122 C 
BRANCH  10  11
ATOM     11  CD  GLU A  1       27.835 -13.547   3.841  0.00  0.00    +0.305 C 
ATOM     12  OE1 GLU A  1       27.555 -13.250   4.992  0.00  0.00    -0.251 OA
BRANCH  11  13
ATOM     13  OE2 GLU A  1       29.088 -13.443   3.350  0.00  0.00    -0.481 OA
ATOM     14  HE2 GLU A  1       29.682 -12.890   3.893  0.00  0.00    +0.295 HD
ENDBRANCH  11  13
ENDBRANCH  10  11
ENDBRANCH   9  10
ENDBRANCH   1   9
TORSDOF 7
ENDMDL
MODEL 7
REMARK VINA RESULT:      -4.3      6.876      7.516
REMARK  Name = *****
REMARK                            x       y       z     vdW  Elec       q    Type
REMARK                         _______ _______ _______ _____ _____    ______ ____
ROOT
ATOM      1  CA  GLU A  1       25.849 -20.282   5.597  0.00  0.00    +0.161 C 
ENDROOT
BRANCH   1   2
ATOM      2  N   GLU A  1       25.801 -20.367   4.099  0.00  0.00    -0.318 NA
ATOM      3  H1  GLU A  1       25.915 -19.426   3.709  0.00  0.00    +0.119 HD
ATOM      4  H2  GLU A  1       26.651 -20.861   3.806  0.00  0.00    +0.119 HD
ENDBRANCH   1   2
BRANCH   1   5
ATOM      5  C   GLU A  1       27.317 -20.457   6.034  0.00  0.00    +0.322 C 
ATOM      6  O   GLU A  1       27.697 -21.010   7.060  0.00  0.00    -0.249 OA
BRANCH   5   7
ATOM      7  OXT GLU A  1       28.167 -19.878   5.147  0.00  0.00    -0.479 OA
ATOM      8  HXT GLU A  1       27.805 -18.969   4.995  0.00  0.00    +0.295 HD
ENDBRANCH   5   7
ENDBRANCH   1   5
BRANCH   1   9
ATOM      9  CB  GLU A  1       24.859 -21.301   6.189  0.00  0.00    +0.041 C 
BRANCH   9  10
ATOM     10  CG  GLU A  1       23.523 -20.726   6.674  0.00  0.00    +0.122 C 
BRANCH  10  11
ATOM     11  CD  GLU A  1       22.615 -20.292   5.548  0.00  0.00    +0.305 C 
ATOM     12  OE1 GLU A  1       22.422 -19.134   5.214  0.00  0.00    -0.251 OA
BRANCH  11  13
ATOM     13  OE2 GLU A  1       22.041 -21.336   4.913  0.00  0.00    -0.481 OA
ATOM     14  HE2 GLU A  1       21.675 -21.113   4.035  0.00  0.00    +0.295 HD
ENDBRANCH  11  13
ENDBRANCH  10  11
ENDBRANCH   9  10
ENDBRANCH   1   9
TORSDOF 7
ENDMDL
MODEL 8
REMARK VINA RESULT:      -4.2      7.329      8.328
REMARK  Name = *****
REMARK                            x       y       z     vdW  Elec       q    Type
REMARK                         _______ _______ _______ _____ _____    ______ ____
ROOT
ATOM      1  CA  GLU A  1       25.229 -20.915   5.243  0.00  0.00    +0.161 C 
ENDROOT
BRANCH   1   2
ATOM      2  N   GLU A  1       25.826 -20.097   4.135  0.00  0.00    -0.318 NA
ATOM      3  H1  GLU A  1       25.360 -19.185   4.107  0.00  0.00    +0.119 HD
ATOM      4  H2  GLU A  1       26.787 -19.876   4.419  0.00  0.00    +0.119 HD
ENDBRANCH   1   2
BRANCH   1   5
ATOM      5  C   GLU A  1       23.696 -20.776   5.160  0.00  0.00    +0.322 C 
ATOM      6  O   GLU A  1       22.995 -20.114   5.918  0.00  0.00    -0.249 OA
BRANCH   5   7
ATOM      7  OXT GLU A  1       23.187 -21.524   4.146  0.00  0.00    -0.479 OA
ATOM      8  HXT GLU A  1       23.790 -22.307   4.072  0.00  0.00    +0.295 HD
ENDBRANCH   5   7
ENDBRANCH   1   5
BRANCH   1   9
ATOM      9  CB  GLU A  1       25.858 -20.483   6.579  0.00  0.00    +0.041 C 
BRANCH   9  10
ATOM     10  CG  GLU A  1       27.093 -21.278   7.021  0.00  0.00    +0.122 C 
BRANCH  10  11
ATOM     11  CD  GLU A  1       28.391 -20.689   6.523  0.00  0.00    +0.305 C 
ATOM     12  OE1 GLU A  1       28.482 -19.735   5.766  0.00  0.00    -0.251 OA
BRANCH  11  13
ATOM     13  OE2 GLU A  1       29.474 -21.320   7.027  0.00  0.00    -0.481 OA
ATOM     14  HE2 GLU A  1       29.328 -22.267   7.215  0.00  0.00    +0.295 HD
ENDBRANCH  11  13
ENDBRANCH  10  11
ENDBRANCH   9  10
ENDBRANCH   1   9
TORSDOF 7
ENDMDL
MODEL 9
REMARK VINA RESULT:      -4.2      6.364      7.108
REMARK  Name = *****
REMARK                            x       y       z     vdW  Elec       q    Type
REMARK                         _______ _______ _______ _____ _____    ______ ____
ROOT
ATOM      1  CA  GLU A  1       24.749 -21.404   5.727  0.00  0.00    +0.161 C 
ENDROOT
BRANCH   1   2
ATOM      2  N   GLU A  1       24.102 -21.160   7.060  0.00  0.00    -0.318 NA
ATOM      3  H1  GLU A  1       23.766 -20.192   7.094  0.00  0.00    +0.119 HD
ATOM      4  H2  GLU A  1       23.243 -21.721   7.076  0.00  0.00    +0.119 HD
ENDBRANCH   1   2
BRANCH   1   5
ATOM      5  C   GLU A  1       26.039 -20.561   5.667  0.00  0.00    +0.322 C 
ATOM      6  O   GLU A  1       26.748 -20.269   6.623  0.00  0.00    -0.249 OA
BRANCH   5   7
ATOM      7  OXT GLU A  1       26.288 -20.133   4.402  0.00  0.00    -0.479 OA
ATOM      8  HXT GLU A  1       27.147 -20.557   4.148  0.00  0.00    +0.295 HD
ENDBRANCH   5   7
ENDBRANCH   1   5
BRANCH   1   9
ATOM      9  CB  GLU A  1       23.724 -21.122   4.615  0.00  0.00    +0.041 C 
BRANCH   9  10
ATOM     10  CG  GLU A  1       22.595 -20.152   4.980  0.00  0.00    +0.122 C 
BRANCH  10  11
ATOM     11  CD  GLU A  1       22.754 -18.787   4.355  0.00  0.00    +0.305 C 
ATOM     12  OE1 GLU A  1       21.993 -17.848   4.523  0.00  0.00    -0.251 OA
BRANCH  11  13
ATOM     13  OE2 GLU A  1       23.864 -18.693   3.591  0.00  0.00    -0.481 OA
ATOM     14  HE2 GLU A  1       24.487 -19.436   3.704  0.00  0.00    +0.295 HD
ENDBRANCH  11  13
ENDBRANCH  10  11
ENDBRANCH   9  10
ENDBRANCH   1   9
TORSDOF 7
ENDMDL
