MODEL 1
REMARK VINA RESULT:      -3.9      0.000      0.000
REMARK  Name = *****
REMARK                            x       y       z     vdW  Elec       q    Type
REMARK                         _______ _______ _______ _____ _____    ______ ____
ROOT
ATOM      1  C   LIG    1       25.285 -19.659   4.133  0.00  0.00    +0.096 C 
ENDROOT
BRANCH   1   2
ATOM      2  N   LIG    1       26.551 -20.298   4.482  0.00  0.00    -0.314 NA
ATOM      3  H   LIG    1       27.203 -20.290   3.701  0.00  0.00    +0.122 HD
BRANCH   2   4
ATOM      4  C   LIG    1       27.159 -19.996   5.770  0.00  0.00    +0.096 C 
BRANCH   4   5
ATOM      5  C   LIG    1       28.609 -19.480   5.718  0.00  0.00    +0.092 C 
BRANCH   5   6
ATOM      6  N   LIG    1       28.767 -18.271   4.908  0.00  0.00    -0.329 NA
ATOM      7  H   LIG    1       27.993 -18.143   4.283  0.00  0.00    +0.118 HD
ATOM      8  H   LIG    1       29.541 -18.459   4.267  0.00  0.00    +0.118 HD
ENDBRANCH   5   6
ENDBRANCH   4   5
ENDBRANCH   2   4
ENDBRANCH   1   2
BRANCH   1   9
ATOM      9  C   LIG    1       25.225 -18.321   3.294  0.00  0.00    +0.096 C 
BRANCH   9  10
ATOM     10  N   LIG    1       26.306 -17.321   3.247  0.00  0.00    -0.314 NA
ATOM     11  H   LIG    1       26.897 -17.493   4.049  0.00  0.00    +0.122 HD
BRANCH  10  12
ATOM     12  C   LIG    1       25.861 -15.923   3.351  0.00  0.00    +0.096 C 
BRANCH  12  13
ATOM     13  C   LIG    1       27.031 -14.972   3.229  0.00  0.00    +0.092 C 
BRANCH  13  14
ATOM     14  N   LIG    1       26.904 -14.073   2.100  0.00  0.00    -0.329 NA
ATOM     15  H   LIG    1       27.685 -14.104   1.511  0.00  0.00    +0.118 HD
ATOM     16  H   LIG    1       26.828 -13.130   2.424  0.00  0.00    +0.118 HD
ENDBRANCH  13  14
ENDBRANCH  12  13
ENDBRANCH  10  12
ENDBRANCH   9  10
ENDBRANCH   1   9
TORSDOF 9
ENDMDL
MODEL 2
REMARK VINA RESULT:      -3.8      0.197      4.355
REMARK  Name = *****
REMARK                            x       y       z     vdW  Elec       q    Type
REMARK                         _______ _______ _______ _____ _____    ______ ____
ROOT
ATOM      1  C   LIG    1       25.246 -18.432   3.405  0.00  0.00    +0.096 C 
ENDROOT
BRANCH   1   2
ATOM      2  N   LIG    1       26.255 -17.393   3.212  0.00  0.00    -0.314 NA
ATOM      3  H   LIG    1       26.845 -17.588   2.407  0.00  0.00    +0.122 HD
BRANCH   2   4
ATOM      4  C   LIG    1       25.860 -15.998   3.340  0.00  0.00    +0.096 C 
BRANCH   4   5
ATOM      5  C   LIG    1       27.007 -14.973   3.282  0.00  0.00    +0.092 C 
BRANCH   5   6
ATOM      6  N   LIG    1       26.940 -14.092   2.114  0.00  0.00    -0.329 NA
ATOM      7  H   LIG    1       27.762 -14.173   1.545  0.00  0.00    +0.118 HD
ATOM      8  H   LIG    1       27.015 -13.138   2.476  0.00  0.00    +0.118 HD
ENDBRANCH   5   6
ENDBRANCH   4   5
ENDBRANCH   2   4
ENDBRANCH   1   2
BRANCH   1   9
ATOM      9  C   LIG    1       25.487 -19.667   4.362  0.00  0.00    +0.096 C 
BRANCH   9  10
ATOM     10  N   LIG    1       26.808 -20.254   4.644  0.00  0.00    -0.314 NA
ATOM     11  H   LIG    1       26.684 -21.258   4.655  0.00  0.00    +0.122 HD
BRANCH  10  12
ATOM     12  C   LIG    1       27.382 -19.892   5.949  0.00  0.00    +0.096 C 
BRANCH  12  13
ATOM     13  C   LIG    1       28.789 -19.361   5.793  0.00  0.00    +0.092 C 
BRANCH  13  14
ATOM     14  N   LIG    1       28.863 -18.230   4.891  0.00  0.00    -0.329 NA
ATOM     15  H   LIG    1       29.117 -18.494   3.983  0.00  0.00    +0.118 HD
ATOM     16  H   LIG    1       29.562 -17.589   5.208  0.00  0.00    +0.118 HD
ENDBRANCH  13  14
ENDBRANCH  12  13
ENDBRANCH  10  12
ENDBRANCH   9  10
ENDBRANCH   1   9
TORSDOF 9
ENDMDL
MODEL 3
REMARK VINA RESULT:      -3.8      2.752      4.266
REMARK  Name = *****
REMARK                            x       y       z     vdW  Elec       q    Type
REMARK                         _______ _______ _______ _____ _____    ______ ____
ROOT
ATOM      1  C   LIG    1       25.439 -21.374   6.209  0.00  0.00    +0.096 C 
ENDROOT
BRANCH   1   2
ATOM      2  N   LIG    1       25.003 -21.370   4.815  0.00  0.00    -0.314 NA
ATOM      3  H   LIG    1       24.873 -22.314   4.460  0.00  0.00    +0.122 HD
BRANCH   2   4
ATOM      4  C   LIG    1       23.969 -20.431   4.405  0.00  0.00    +0.096 C 
BRANCH   4   5
ATOM      5  C   LIG    1       24.455 -19.218   3.591  0.00  0.00    +0.092 C 
BRANCH   5   6
ATOM      6  N   LIG    1       25.908 -19.035   3.633  0.00  0.00    -0.329 NA
ATOM      7  H   LIG    1       26.386 -19.911   3.736  0.00  0.00    +0.118 HD
ATOM      8  H   LIG    1       26.108 -18.567   4.520  0.00  0.00    +0.118 HD
ENDBRANCH   5   6
ENDBRANCH   4   5
ENDBRANCH   2   4
ENDBRANCH   1   2
BRANCH   1   9
ATOM      9  C   LIG    1       26.830 -20.769   6.653  0.00  0.00    +0.096 C 
BRANCH   9  10
ATOM     10  N   LIG    1       27.883 -20.334   5.720  0.00  0.00    -0.314 NA
ATOM     11  H   LIG    1       28.098 -21.129   5.133  0.00  0.00    +0.122 HD
BRANCH  10  12
ATOM     12  C   LIG    1       29.147 -19.932   6.355  0.00  0.00    +0.096 C 
BRANCH  12  13
ATOM     13  C   LIG    1       29.474 -18.488   6.044  0.00  0.00    +0.092 C 
BRANCH  13  14
ATOM     14  N   LIG    1       28.880 -18.036   4.803  0.00  0.00    -0.329 NA
ATOM     15  H   LIG    1       29.334 -18.405   4.018  0.00  0.00    +0.118 HD
ATOM     16  H   LIG    1       28.953 -17.041   4.734  0.00  0.00    +0.118 HD
ENDBRANCH  13  14
ENDBRANCH  12  13
ENDBRANCH  10  12
ENDBRANCH   9  10
ENDBRANCH   1   9
TORSDOF 9
ENDMDL
MODEL 4
REMARK VINA RESULT:      -3.8      3.197      4.744
REMARK  Name = *****
REMARK                            x       y       z     vdW  Elec       q    Type
REMARK                         _______ _______ _______ _____ _____    ______ ____
ROOT
ATOM      1  C   LIG    1       24.868 -20.705   4.298  0.00  0.00    +0.096 C 
ENDROOT
BRANCH   1   2
ATOM      2  N   LIG    1       23.719 -21.550   4.613  0.00  0.00    -0.314 NA
ATOM      3  H   LIG    1       23.981 -22.334   5.206  0.00  0.00    +0.122 HD
BRANCH   2   4
ATOM      4  C   LIG    1       22.462 -20.917   4.981  0.00  0.00    +0.096 C 
BRANCH   4   5
ATOM      5  C   LIG    1       22.541 -19.413   5.300  0.00  0.00    +0.092 C 
BRANCH   5   6
ATOM      6  N   LIG    1       21.978 -18.565   4.248  0.00  0.00    -0.329 NA
ATOM      7  H   LIG    1       20.976 -18.560   4.277  0.00  0.00    +0.118 HD
ATOM      8  H   LIG    1       22.172 -19.044   3.365  0.00  0.00    +0.118 HD
ENDBRANCH   5   6
ENDBRANCH   4   5
ENDBRANCH   2   4
ENDBRANCH   1   2
BRANCH   1   9
ATOM      9  C   LIG    1       26.005 -20.409   5.355  0.00  0.00    +0.096 C 
BRANCH   9  10
ATOM     10  N   LIG    1       27.376 -19.998   5.009  0.00  0.00    -0.314 NA
ATOM     11  H   LIG    1       27.725 -20.678   4.346  0.00  0.00    +0.122 HD
BRANCH  10  12
ATOM     12  C   LIG    1       28.323 -19.989   6.134  0.00  0.00    +0.096 C 
BRANCH  12  13
ATOM     13  C   LIG    1       29.359 -18.901   5.960  0.00  0.00    +0.092 C 
BRANCH  13  14
ATOM     14  N   LIG    1       29.058 -18.014   4.855  0.00  0.00    -0.329 NA
ATOM     15  H   LIG    1       28.774 -17.127   5.157  0.00  0.00    +0.118 HD
ATOM     16  H   LIG    1       28.302 -18.388   4.317  0.00  0.00    +0.118 HD
ENDBRANCH  13  14
ENDBRANCH  12  13
ENDBRANCH  10  12
ENDBRANCH   9  10
ENDBRANCH   1   9
TORSDOF 9
ENDMDL
MODEL 5
REMARK VINA RESULT:      -3.8      2.784      3.704
REMARK  Name = *****
REMARK                            x       y       z     vdW  Elec       q    Type
REMARK                         _______ _______ _______ _____ _____    ______ ____
ROOT
ATOM      1  C   LIG    1       26.394 -20.531   6.566  0.00  0.00    +0.096 C 
ENDROOT
BRANCH   1   2
ATOM      2  N   LIG    1       27.574 -20.331   5.728  0.00  0.00    -0.314 NA
ATOM      3  H   LIG    1       27.358 -19.780   4.901  0.00  0.00    +0.122 HD
BRANCH   2   4
ATOM      4  C   LIG    1       28.837 -19.985   6.364  0.00  0.00    +0.096 C 
BRANCH   4   5
ATOM      5  C   LIG    1       29.469 -18.657   5.910  0.00  0.00    +0.092 C 
BRANCH   5   6
ATOM      6  N   LIG    1       28.810 -18.068   4.743  0.00  0.00    -0.329 NA
ATOM      7  H   LIG    1       28.218 -17.301   5.002  0.00  0.00    +0.118 HD
ATOM      8  H   LIG    1       28.137 -18.766   4.417  0.00  0.00    +0.118 HD
ENDBRANCH   5   6
ENDBRANCH   4   5
ENDBRANCH   2   4
ENDBRANCH   1   2
BRANCH   1   9
ATOM      9  C   LIG    1       25.207 -21.479   6.128  0.00  0.00    +0.096 C 
BRANCH   9  10
ATOM     10  N   LIG    1       24.006 -21.027   5.406  0.00  0.00    -0.314 NA
ATOM     11  H   LIG    1       23.320 -21.766   5.491  0.00  0.00    +0.122 HD
BRANCH  10  12
ATOM     12  C   LIG    1       24.198 -20.802   3.965  0.00  0.00    +0.096 C 
BRANCH  12  13
ATOM     13  C   LIG    1       24.398 -19.332   3.669  0.00  0.00    +0.092 C 
BRANCH  13  14
ATOM     14  N   LIG    1       25.789 -18.991   3.452  0.00  0.00    -0.329 NA
ATOM     15  H   LIG    1       25.907 -18.373   2.702  0.00  0.00    +0.118 HD
ATOM     16  H   LIG    1       26.309 -19.815   3.228  0.00  0.00    +0.118 HD
ENDBRANCH  13  14
ENDBRANCH  12  13
ENDBRANCH  10  12
ENDBRANCH   9  10
ENDBRANCH   1   9
TORSDOF 9
ENDMDL
MODEL 6
REMARK VINA RESULT:      -3.7      3.254      4.006
REMARK  Name = *****
REMARK                            x       y       z     vdW  Elec       q    Type
REMARK                         _______ _______ _______ _____ _____    ______ ____
ROOT
ATOM      1  C   LIG    1       25.898 -20.514   5.738  0.00  0.00    +0.096 C 
ENDROOT
BRANCH   1   2
ATOM      2  N   LIG    1       27.196 -20.142   5.180  0.00  0.00    -0.314 NA
ATOM      3  H   LIG    1       27.118 -19.351   4.545  0.00  0.00    +0.122 HD
BRANCH   2   4
ATOM      4  C   LIG    1       28.350 -20.086   6.064  0.00  0.00    +0.096 C 
BRANCH   4   5
ATOM      5  C   LIG    1       29.259 -18.855   5.898  0.00  0.00    +0.092 C 
BRANCH   5   6
ATOM      6  N   LIG    1       28.907 -18.025   4.744  0.00  0.00    -0.329 NA
ATOM      7  H   LIG    1       28.487 -18.570   4.014  0.00  0.00    +0.118 HD
ATOM      8  H   LIG    1       29.793 -17.737   4.323  0.00  0.00    +0.118 HD
ENDBRANCH   5   6
ENDBRANCH   4   5
ENDBRANCH   2   4
ENDBRANCH   1   2
BRANCH   1   9
ATOM      9  C   LIG    1       24.953 -21.566   5.031  0.00  0.00    +0.096 C 
BRANCH   9  10
ATOM     10  N   LIG    1       23.525 -21.343   4.750  0.00  0.00    -0.314 NA
ATOM     11  H   LIG    1       23.468 -20.966   3.813  0.00  0.00    +0.122 HD
BRANCH  10  12
ATOM     12  C   LIG    1       22.865 -20.367   5.631  0.00  0.00    +0.096 C 
BRANCH  12  13
ATOM     13  C   LIG    1       22.399 -19.159   4.848  0.00  0.00    +0.092 C 
BRANCH  13  14
ATOM     14  N   LIG    1       23.310 -18.802   3.779  0.00  0.00    -0.329 NA
ATOM     15  H   LIG    1       23.185 -17.879   3.478  0.00  0.00    +0.118 HD
ATOM     16  H   LIG    1       23.145 -19.387   2.984  0.00  0.00    +0.118 HD
ENDBRANCH  13  14
ENDBRANCH  12  13
ENDBRANCH  10  12
ENDBRANCH   9  10
ENDBRANCH   1   9
TORSDOF 9
ENDMDL
MODEL 7
REMARK VINA RESULT:      -3.6      1.820      3.198
REMARK  Name = *****
REMARK                            x       y       z     vdW  Elec       q    Type
REMARK                         _______ _______ _______ _____ _____    ______ ____
ROOT
ATOM      1  C   LIG    1       25.681 -16.505   3.295  0.00  0.00    +0.096 C 
ENDROOT
BRANCH   1   2
ATOM      2  N   LIG    1       26.110 -17.900   3.236  0.00  0.00    -0.314 NA
ATOM      3  H   LIG    1       27.004 -18.037   3.701  0.00  0.00    +0.122 HD
BRANCH   2   4
ATOM      4  C   LIG    1       25.133 -18.947   3.499  0.00  0.00    +0.096 C 
BRANCH   4   5
ATOM      5  C   LIG    1       25.583 -20.048   4.476  0.00  0.00    +0.092 C 
BRANCH   5   6
ATOM      6  N   LIG    1       26.995 -19.950   4.853  0.00  0.00    -0.329 NA
ATOM      7  H   LIG    1       27.593 -20.315   4.135  0.00  0.00    +0.118 HD
ATOM      8  H   LIG    1       27.131 -20.617   5.615  0.00  0.00    +0.118 HD
ENDBRANCH   5   6
ENDBRANCH   4   5
ENDBRANCH   2   4
ENDBRANCH   1   2
BRANCH   1   9
ATOM      9  C   LIG    1       26.711 -15.309   3.224  0.00  0.00    +0.096 C 
BRANCH   9  10
ATOM     10  N   LIG    1       26.712 -14.273   2.177  0.00  0.00    -0.314 NA
ATOM     11  H   LIG    1       27.680 -14.056   1.983  0.00  0.00    +0.122 HD
BRANCH  10  12
ATOM     12  C   LIG    1       26.069 -13.006   2.558  0.00  0.00    +0.096 C 
BRANCH  12  13
ATOM     13  C   LIG    1       24.689 -12.894   1.948  0.00  0.00    +0.092 C 
BRANCH  13  14
ATOM     14  N   LIG    1       23.824 -11.998   2.687  0.00  0.00    -0.329 NA
ATOM     15  H   LIG    1       23.777 -12.227   3.638  0.00  0.00    +0.118 HD
ATOM     16  H   LIG    1       22.891 -12.059   2.332  0.00  0.00    +0.118 HD
ENDBRANCH  13  14
ENDBRANCH  12  13
ENDBRANCH  10  12
ENDBRANCH   9  10
ENDBRANCH   1   9
TORSDOF 9
ENDMDL
MODEL 8
REMARK VINA RESULT:      -3.6      1.817      5.863
REMARK  Name = *****
REMARK                            x       y       z     vdW  Elec       q    Type
REMARK                         _______ _______ _______ _____ _____    ______ ____
ROOT
ATOM      1  C   LIG    1       26.693 -15.391   3.237  0.00  0.00    +0.096 C 
ENDROOT
BRANCH   1   2
ATOM      2  N   LIG    1       26.599 -14.358   2.209  0.00  0.00    -0.314 NA
ATOM      3  H   LIG    1       26.274 -14.739   1.324  0.00  0.00    +0.122 HD
BRANCH   2   4
ATOM      4  C   LIG    1       26.014 -13.071   2.557  0.00  0.00    +0.096 C 
BRANCH   4   5
ATOM      5  C   LIG    1       24.497 -13.078   2.815  0.00  0.00    +0.092 C 
BRANCH   5   6
ATOM      6  N   LIG    1       23.842 -11.817   2.459  0.00  0.00    -0.329 NA
ATOM      7  H   LIG    1       23.352 -11.424   3.241  0.00  0.00    +0.118 HD
ATOM      8  H   LIG    1       23.080 -12.065   1.822  0.00  0.00    +0.118 HD
ENDBRANCH   5   6
ENDBRANCH   4   5
ENDBRANCH   2   4
ENDBRANCH   1   2
BRANCH   1   9
ATOM      9  C   LIG    1       25.715 -16.632   3.270  0.00  0.00    +0.096 C 
BRANCH   9  10
ATOM     10  N   LIG    1       26.154 -18.037   3.238  0.00  0.00    -0.314 NA
ATOM     11  H   LIG    1       26.422 -18.237   2.283  0.00  0.00    +0.122 HD
BRANCH  10  12
ATOM     12  C   LIG    1       25.117 -19.019   3.592  0.00  0.00    +0.096 C 
BRANCH  12  13
ATOM     13  C   LIG    1       25.653 -20.044   4.567  0.00  0.00    +0.092 C 
BRANCH  13  14
ATOM     14  N   LIG    1       27.074 -19.894   4.810  0.00  0.00    -0.329 NA
ATOM     15  H   LIG    1       27.447 -20.650   5.308  0.00  0.00    +0.118 HD
ATOM     16  H   LIG    1       27.238 -19.077   5.364  0.00  0.00    +0.118 HD
ENDBRANCH  13  14
ENDBRANCH  12  13
ENDBRANCH  10  12
ENDBRANCH   9  10
ENDBRANCH   1   9
TORSDOF 9
ENDMDL
MODEL 9
REMARK VINA RESULT:      -3.6      1.568      2.779
REMARK  Name = *****
REMARK                            x       y       z     vdW  Elec       q    Type
REMARK                         _______ _______ _______ _____ _____    ______ ____
ROOT
ATOM      1  C   LIG    1       25.594 -16.890   3.297  0.00  0.00    +0.096 C 
ENDROOT
BRANCH   1   2
ATOM      2  N   LIG    1       26.049 -18.278   3.306  0.00  0.00    -0.314 NA
ATOM      3  H   LIG    1       26.984 -18.363   3.698  0.00  0.00    +0.122 HD
BRANCH   2   4
ATOM      4  C   LIG    1       25.124 -19.317   3.734  0.00  0.00    +0.096 C 
BRANCH   4   5
ATOM      5  C   LIG    1       25.660 -20.287   4.802  0.00  0.00    +0.092 C 
BRANCH   5   6
ATOM      6  N   LIG    1       27.096 -20.143   5.050  0.00  0.00    -0.329 NA
ATOM      7  H   LIG    1       27.581 -19.833   4.228  0.00  0.00    +0.118 HD
ATOM      8  H   LIG    1       27.458 -21.092   5.175  0.00  0.00    +0.118 HD
ENDBRANCH   5   6
ENDBRANCH   4   5
ENDBRANCH   2   4
ENDBRANCH   1   2
BRANCH   1   9
ATOM      9  C   LIG    1       26.607 -15.677   3.285  0.00  0.00    +0.096 C 
BRANCH   9  10
ATOM     10  N   LIG    1       26.579 -14.580   2.302  0.00  0.00    -0.314 NA
ATOM     11  H   LIG    1       27.309 -14.774   1.629  0.00  0.00    +0.122 HD
BRANCH  10  12
ATOM     12  C   LIG    1       26.866 -13.247   2.853  0.00  0.00    +0.096 C 
BRANCH  12  13
ATOM     13  C   LIG    1       27.925 -13.323   3.930  0.00  0.00    +0.092 C 
BRANCH  13  14
ATOM     14  N   LIG    1       29.270 -13.246   3.397  0.00  0.00    -0.329 NA
ATOM     15  H   LIG    1       29.950 -13.434   4.076  0.00  0.00    +0.118 HD
ATOM     16  H   LIG    1       29.449 -12.320   3.062  0.00  0.00    +0.118 HD
ENDBRANCH  13  14
ENDBRANCH  12  13
ENDBRANCH  10  12
ENDBRANCH   9  10
ENDBRANCH   1   9
TORSDOF 9
ENDMDL
