MODEL 1
REMARK VINA RESULT:      -5.4      0.000      0.000
REMARK  Name = *****
REMARK                            x       y       z     vdW  Elec       q    Type
REMARK                         _______ _______ _______ _____ _____    ______ ____
ROOT
ATOM      1  C   LIG    1       26.223 -20.588   8.200  0.00  0.00    +0.035 C 
ENDROOT
BRANCH   1   2
ATOM      2  C   LIG    1       27.687 -21.024   8.451  0.00  0.00    +0.035 C 
BRANCH   2   3
ATOM      3  P   LIG    1       29.054 -20.804   7.162  0.00  0.00    -0.101 P 
BRANCH   3   4
ATOM      4  C   LIG    1       28.913 -19.198   6.150  0.00  0.00    +0.058 C 
BRANCH   4   5
ATOM      5  C   LIG    1       27.840 -19.183   4.961  0.00  0.00    +0.164 C 
BRANCH   5   6
ATOM      6  O   LIG    1       26.614 -19.942   5.151  0.00  0.00    -0.380 OA
BRANCH   6   7
ATOM      7  C   LIG    1       25.692 -19.899   4.075  0.00  0.00    +0.156 C 
ATOM      8  C   LIG    1       25.543 -18.499   3.475  0.00  0.00    +0.034 C 
ENDBRANCH   6   7
ENDBRANCH   5   6
ENDBRANCH   4   5
ENDBRANCH   3   4
BRANCH   3   9
ATOM      9  C   LIG    1       30.576 -20.622   8.217  0.00  0.00    +0.058 C 
BRANCH   9  10
ATOM     10  C   LIG    1       31.291 -19.275   8.315  0.00  0.00    +0.164 C 
BRANCH  10  11
ATOM     11  O   LIG    1       31.876 -19.056   9.605  0.00  0.00    -0.380 OA
BRANCH  11  12
ATOM     12  C   LIG    1       31.702 -17.696  10.040  0.00  0.00    +0.156 C 
ATOM     13  C   LIG    1       30.372 -17.513  10.754  0.00  0.00    +0.034 C 
ENDBRANCH  11  12
ENDBRANCH  10  11
ENDBRANCH   9  10
ENDBRANCH   3   9
ENDBRANCH   2   3
ENDBRANCH   1   2
BRANCH   1  14
ATOM     14  P   LIG    1       24.918 -21.912   7.858  0.00  0.00    -0.101 P 
BRANCH  14  15
ATOM     15  C   LIG    1       23.549 -20.911   7.045  0.00  0.00    +0.058 C 
BRANCH  15  16
ATOM     16  C   LIG    1       22.817 -21.673   5.942  0.00  0.00    +0.164 C 
BRANCH  16  17
ATOM     17  O   LIG    1       22.319 -20.761   4.964  0.00  0.00    -0.380 OA
BRANCH  17  18
ATOM     18  C   LIG    1       22.450 -19.391   5.328  0.00  0.00    +0.156 C 
ATOM     19  C   LIG    1       21.940 -18.472   4.229  0.00  0.00    +0.034 C 
ENDBRANCH  17  18
ENDBRANCH  16  17
ENDBRANCH  15  16
ENDBRANCH  14  15
BRANCH  14  20
ATOM     20  C   LIG    1       25.510 -23.033   6.458  0.00  0.00    +0.058 C 
BRANCH  20  21
ATOM     21  C   LIG    1       25.803 -24.577   6.507  0.00  0.00    +0.164 C 
BRANCH  21  22
ATOM     22  O   LIG    1       25.784 -25.335   5.282  0.00  0.00    -0.380 OA
BRANCH  22  24
ATOM     23  C   LIG    1       25.380 -27.541   6.423  0.00  0.00    +0.034 C 
ATOM     24  C   LIG    1       26.150 -26.662   5.649  0.00  0.00    +0.156 C 
ENDBRANCH  22  24
ENDBRANCH  21  22
ENDBRANCH  20  21
ENDBRANCH  14  20
ENDBRANCH   1  14
TORSDOF 19
ENDMDL
MODEL 2
REMARK VINA RESULT:      -5.4      1.033      7.386
REMARK  Name = *****
REMARK                            x       y       z     vdW  Elec       q    Type
REMARK                         _______ _______ _______ _____ _____    ______ ____
ROOT
ATOM      1  C   LIG    1       26.995 -21.222   8.359  0.00  0.00    +0.035 C 
ENDROOT
BRANCH   1   2
ATOM      2  C   LIG    1       25.948 -22.352   8.212  0.00  0.00    +0.035 C 
BRANCH   2   3
ATOM      3  P   LIG    1       25.454 -23.076   6.534  0.00  0.00    -0.101 P 
BRANCH   3   4
ATOM      4  C   LIG    1       25.322 -24.975   6.521  0.00  0.00    +0.058 C 
BRANCH   4   5
ATOM      5  C   LIG    1       25.251 -25.685   5.088  0.00  0.00    +0.164 C 
BRANCH   5   6
ATOM      6  O   LIG    1       26.241 -26.708   4.793  0.00  0.00    -0.380 OA
BRANCH   6   7
ATOM      7  C   LIG    1       25.903 -28.026   5.193  0.00  0.00    +0.156 C 
ATOM      8  C   LIG    1       24.401 -28.209   5.424  0.00  0.00    +0.034 C 
ENDBRANCH   6   7
ENDBRANCH   5   6
ENDBRANCH   4   5
ENDBRANCH   3   4
BRANCH   3   9
ATOM      9  C   LIG    1       23.723 -22.432   6.312  0.00  0.00    +0.058 C 
BRANCH   9  10
ATOM     10  C   LIG    1       23.206 -21.289   7.185  0.00  0.00    +0.164 C 
BRANCH  10  11
ATOM     11  O   LIG    1       23.084 -20.058   6.461  0.00  0.00    -0.380 OA
BRANCH  11  12
ATOM     12  C   LIG    1       22.427 -20.253   5.196  0.00  0.00    +0.156 C 
ATOM     13  C   LIG    1       22.126 -18.924   4.523  0.00  0.00    +0.034 C 
ENDBRANCH  11  12
ENDBRANCH  10  11
ENDBRANCH   9  10
ENDBRANCH   3   9
ENDBRANCH   2   3
ENDBRANCH   1   2
BRANCH   1  14
ATOM     14  P   LIG    1       28.540 -21.256   7.270  0.00  0.00    -0.101 P 
BRANCH  14  15
ATOM     15  C   LIG    1       28.470 -19.569   6.441  0.00  0.00    +0.058 C 
BRANCH  15  16
ATOM     16  C   LIG    1       27.783 -19.595   5.077  0.00  0.00    +0.164 C 
BRANCH  16  17
ATOM     17  O   LIG    1       26.397 -19.899   5.232  0.00  0.00    -0.380 OA
BRANCH  17  18
ATOM     18  C   LIG    1       25.654 -19.857   4.019  0.00  0.00    +0.156 C 
ATOM     19  C   LIG    1       25.587 -18.447   3.455  0.00  0.00    +0.034 C 
ENDBRANCH  17  18
ENDBRANCH  16  17
ENDBRANCH  15  16
ENDBRANCH  14  15
BRANCH  14  20
ATOM     20  C   LIG    1       30.079 -21.128   8.357  0.00  0.00    +0.058 C 
BRANCH  20  21
ATOM     21  C   LIG    1       31.172 -19.998   8.366  0.00  0.00    +0.164 C 
BRANCH  21  22
ATOM     22  O   LIG    1       31.714 -19.553   9.625  0.00  0.00    -0.380 OA
BRANCH  22  24
ATOM     23  C   LIG    1       30.374 -17.541  10.321  0.00  0.00    +0.034 C 
ATOM     24  C   LIG    1       31.458 -18.153   9.676  0.00  0.00    +0.156 C 
ENDBRANCH  22  24
ENDBRANCH  21  22
ENDBRANCH  20  21
ENDBRANCH  14  20
ENDBRANCH   1  14
TORSDOF 19
ENDMDL
MODEL 3
REMARK VINA RESULT:      -5.3      1.089      4.473
REMARK  Name = *****
REMARK                            x       y       z     vdW  Elec       q    Type
REMARK                         _______ _______ _______ _____ _____    ______ ____
ROOT
ATOM      1  C   LIG    1       27.115 -22.344   7.359  0.00  0.00    +0.035 C 
ENDROOT
BRANCH   1   2
ATOM      2  C   LIG    1       27.451 -21.060   8.155  0.00  0.00    +0.035 C 
BRANCH   2   3
ATOM      3  P   LIG    1       28.762 -19.819   7.588  0.00  0.00    -0.101 P 
BRANCH   3   4
ATOM      4  C   LIG    1       30.542 -20.304   8.060  0.00  0.00    +0.058 C 
BRANCH   4   5
ATOM      5  C   LIG    1       31.674 -19.192   7.849  0.00  0.00    +0.164 C 
BRANCH   5   6
ATOM      6  O   LIG    1       31.298 -17.801   8.044  0.00  0.00    -0.380 OA
BRANCH   6   7
ATOM      7  C   LIG    1       31.672 -17.230   9.286  0.00  0.00    +0.156 C 
ATOM      8  C   LIG    1       30.516 -17.176  10.287  0.00  0.00    +0.034 C 
ENDBRANCH   6   7
ENDBRANCH   5   6
ENDBRANCH   4   5
ENDBRANCH   3   4
BRANCH   3   9
ATOM      9  C   LIG    1       28.662 -19.948   5.734  0.00  0.00    +0.058 C 
BRANCH   9  10
ATOM     10  C   LIG    1       27.543 -19.243   4.970  0.00  0.00    +0.164 C 
BRANCH  10  11
ATOM     11  O   LIG    1       26.300 -19.954   5.036  0.00  0.00    -0.380 OA
BRANCH  11  12
ATOM     12  C   LIG    1       25.541 -19.802   3.823  0.00  0.00    +0.156 C 
ATOM     13  C   LIG    1       25.466 -18.343   3.401  0.00  0.00    +0.034 C 
ENDBRANCH  11  12
ENDBRANCH  10  11
ENDBRANCH   9  10
ENDBRANCH   3   9
ENDBRANCH   2   3
ENDBRANCH   1   2
BRANCH   1  14
ATOM     14  P   LIG    1       25.328 -22.959   7.323  0.00  0.00    -0.101 P 
BRANCH  14  15
ATOM     15  C   LIG    1       24.359 -21.349   7.409  0.00  0.00    +0.058 C 
BRANCH  15  16
ATOM     16  C   LIG    1       23.122 -21.341   6.514  0.00  0.00    +0.164 C 
BRANCH  16  17
ATOM     17  O   LIG    1       22.823 -20.007   6.103  0.00  0.00    -0.380 OA
BRANCH  17  18
ATOM     18  C   LIG    1       22.185 -19.920   4.833  0.00  0.00    +0.156 C 
ATOM     19  C   LIG    1       22.018 -18.474   4.392  0.00  0.00    +0.034 C 
ENDBRANCH  17  18
ENDBRANCH  16  17
ENDBRANCH  15  16
ENDBRANCH  14  15
BRANCH  14  20
ATOM     20  C   LIG    1       24.920 -23.605   5.596  0.00  0.00    +0.058 C 
BRANCH  20  21
ATOM     21  C   LIG    1       25.076 -25.069   5.044  0.00  0.00    +0.164 C 
BRANCH  21  22
ATOM     22  O   LIG    1       24.062 -26.047   5.348  0.00  0.00    -0.380 OA
BRANCH  22  24
ATOM     23  C   LIG    1       24.420 -28.364   6.259  0.00  0.00    +0.034 C 
ATOM     24  C   LIG    1       24.744 -27.296   5.412  0.00  0.00    +0.156 C 
ENDBRANCH  22  24
ENDBRANCH  21  22
ENDBRANCH  20  21
ENDBRANCH  14  20
ENDBRANCH   1  14
TORSDOF 19
ENDMDL
MODEL 4
REMARK VINA RESULT:      -5.3      0.947      6.305
REMARK  Name = *****
REMARK                            x       y       z     vdW  Elec       q    Type
REMARK                         _______ _______ _______ _____ _____    ______ ____
ROOT
ATOM      1  C   LIG    1       26.490 -21.780   8.192  0.00  0.00    +0.035 C 
ENDROOT
BRANCH   1   2
ATOM      2  C   LIG    1       28.028 -21.611   8.170  0.00  0.00    +0.035 C 
BRANCH   2   3
ATOM      3  P   LIG    1       28.874 -20.031   7.564  0.00  0.00    -0.101 P 
BRANCH   3   4
ATOM      4  C   LIG    1       30.755 -20.000   7.854  0.00  0.00    +0.058 C 
BRANCH   4   5
ATOM      5  C   LIG    1       31.296 -19.013   8.992  0.00  0.00    +0.164 C 
BRANCH   5   6
ATOM      6  O   LIG    1       30.609 -19.022  10.274  0.00  0.00    -0.380 OA
BRANCH   6   7
ATOM      7  C   LIG    1       30.691 -17.821  11.024  0.00  0.00    +0.156 C 
ATOM      8  C   LIG    1       30.846 -16.580  10.143  0.00  0.00    +0.034 C 
ENDBRANCH   6   7
ENDBRANCH   5   6
ENDBRANCH   4   5
ENDBRANCH   3   4
BRANCH   3   9
ATOM      9  C   LIG    1       28.633 -20.128   5.721  0.00  0.00    +0.058 C 
BRANCH   9  10
ATOM     10  C   LIG    1       27.608 -19.231   5.028  0.00  0.00    +0.164 C 
BRANCH  10  11
ATOM     11  O   LIG    1       26.284 -19.778   5.068  0.00  0.00    -0.380 OA
BRANCH  11  12
ATOM     12  C   LIG    1       25.615 -19.632   3.802  0.00  0.00    +0.156 C 
ATOM     13  C   LIG    1       25.700 -18.201   3.298  0.00  0.00    +0.034 C 
ENDBRANCH  11  12
ENDBRANCH  10  11
ENDBRANCH   9  10
ENDBRANCH   3   9
ENDBRANCH   2   3
ENDBRANCH   1   2
BRANCH   1  14
ATOM     14  P   LIG    1       25.628 -22.526   6.685  0.00  0.00    -0.101 P 
BRANCH  14  15
ATOM     15  C   LIG    1       25.871 -24.370   6.967  0.00  0.00    +0.058 C 
BRANCH  15  16
ATOM     16  C   LIG    1       25.007 -25.239   6.056  0.00  0.00    +0.164 C 
BRANCH  16  17
ATOM     17  O   LIG    1       25.805 -25.798   5.012  0.00  0.00    -0.380 OA
BRANCH  17  18
ATOM     18  C   LIG    1       25.886 -27.219   5.041  0.00  0.00    +0.156 C 
ATOM     19  C   LIG    1       24.625 -27.838   5.623  0.00  0.00    +0.034 C 
ENDBRANCH  17  18
ENDBRANCH  16  17
ENDBRANCH  15  16
ENDBRANCH  14  15
BRANCH  14  20
ATOM     20  C   LIG    1       23.759 -22.315   6.860  0.00  0.00    +0.058 C 
BRANCH  20  21
ATOM     21  C   LIG    1       22.796 -21.428   5.989  0.00  0.00    +0.164 C 
BRANCH  21  22
ATOM     22  O   LIG    1       22.885 -19.993   6.083  0.00  0.00    -0.380 OA
BRANCH  22  24
ATOM     23  C   LIG    1       22.180 -18.150   4.522  0.00  0.00    +0.034 C 
ATOM     24  C   LIG    1       22.244 -19.495   4.912  0.00  0.00    +0.156 C 
ENDBRANCH  22  24
ENDBRANCH  21  22
ENDBRANCH  20  21
ENDBRANCH  14  20
ENDBRANCH   1  14
TORSDOF 19
ENDMDL
MODEL 5
REMARK VINA RESULT:      -5.3      2.221      6.404
REMARK  Name = *****
REMARK                            x       y       z     vdW  Elec       q    Type
REMARK                         _______ _______ _______ _____ _____    ______ ____
ROOT
ATOM      1  C   LIG    1       27.436 -19.743   5.582  0.00  0.00    +0.035 C 
ENDROOT
BRANCH   1   2
ATOM      2  C   LIG    1       26.041 -20.233   5.126  0.00  0.00    +0.035 C 
BRANCH   2   3
ATOM      3  P   LIG    1       25.125 -19.479   3.651  0.00  0.00    -0.101 P 
BRANCH   3   4
ATOM      4  C   LIG    1       23.384 -18.833   4.070  0.00  0.00    +0.058 C 
BRANCH   4   5
ATOM      5  C   LIG    1       22.562 -19.639   5.183  0.00  0.00    +0.164 C 
BRANCH   5   6
ATOM      6  O   LIG    1       22.489 -21.085   5.052  0.00  0.00    -0.380 OA
BRANCH   6   7
ATOM      7  C   LIG    1       22.851 -21.826   6.205  0.00  0.00    +0.156 C 
ATOM      8  C   LIG    1       23.336 -20.939   7.353  0.00  0.00    +0.034 C 
ENDBRANCH   6   7
ENDBRANCH   5   6
ENDBRANCH   4   5
ENDBRANCH   3   4
BRANCH   3   9
ATOM      9  C   LIG    1       26.156 -17.979   3.262  0.00  0.00    +0.058 C 
BRANCH   9  10
ATOM     10  C   LIG    1       25.551 -16.580   3.361  0.00  0.00    +0.164 C 
BRANCH  10  11
ATOM     11  O   LIG    1       26.441 -15.562   2.884  0.00  0.00    -0.380 OA
BRANCH  11  12
ATOM     12  C   LIG    1       26.389 -14.386   3.712  0.00  0.00    +0.156 C 
ATOM     13  C   LIG    1       27.785 -13.862   4.010  0.00  0.00    +0.034 C 
ENDBRANCH  11  12
ENDBRANCH  10  11
ENDBRANCH   9  10
ENDBRANCH   3   9
ENDBRANCH   2   3
ENDBRANCH   1   2
BRANCH   1  14
ATOM     14  P   LIG    1       28.432 -20.807   6.785  0.00  0.00    -0.101 P 
BRANCH  14  15
ATOM     15  C   LIG    1       29.366 -19.508   7.775  0.00  0.00    +0.058 C 
BRANCH  15  16
ATOM     16  C   LIG    1       30.670 -20.029   8.376  0.00  0.00    +0.164 C 
BRANCH  16  17
ATOM     17  O   LIG    1       30.811 -19.564   9.718  0.00  0.00    -0.380 OA
BRANCH  17  18
ATOM     18  C   LIG    1       31.341 -18.247   9.823  0.00  0.00    +0.156 C 
ATOM     19  C   LIG    1       30.410 -17.332  10.603  0.00  0.00    +0.034 C 
ENDBRANCH  17  18
ENDBRANCH  16  17
ENDBRANCH  15  16
ENDBRANCH  14  15
BRANCH  14  20
ATOM     20  C   LIG    1       27.271 -21.562   8.069  0.00  0.00    +0.058 C 
BRANCH  20  21
ATOM     21  C   LIG    1       26.283 -22.772   7.894  0.00  0.00    +0.164 C 
BRANCH  21  22
ATOM     22  O   LIG    1       26.092 -23.340   6.583  0.00  0.00    -0.380 OA
BRANCH  22  24
ATOM     23  C   LIG    1       25.972 -25.852   6.538  0.00  0.00    +0.034 C 
ATOM     24  C   LIG    1       25.434 -24.584   6.800  0.00  0.00    +0.156 C 
ENDBRANCH  22  24
ENDBRANCH  21  22
ENDBRANCH  20  21
ENDBRANCH  14  20
ENDBRANCH   1  14
TORSDOF 19
ENDMDL
MODEL 6
REMARK VINA RESULT:      -5.2      2.181      6.933
REMARK  Name = *****
REMARK                            x       y       z     vdW  Elec       q    Type
REMARK                         _______ _______ _______ _____ _____    ______ ____
ROOT
ATOM      1  C   LIG    1       25.835 -20.345   5.287  0.00  0.00    +0.035 C 
ENDROOT
BRANCH   1   2
ATOM      2  C   LIG    1       27.257 -19.865   5.662  0.00  0.00    +0.035 C 
BRANCH   2   3
ATOM      3  P   LIG    1       28.383 -20.828   6.840  0.00  0.00    -0.101 P 
BRANCH   3   4
ATOM      4  C   LIG    1       29.799 -19.790   7.578  0.00  0.00    +0.058 C 
BRANCH   4   5
ATOM      5  C   LIG    1       30.873 -20.566   8.476  0.00  0.00    +0.164 C 
BRANCH   5   6
ATOM      6  O   LIG    1       31.882 -19.771   9.158  0.00  0.00    -0.380 OA
BRANCH   6   7
ATOM      7  C   LIG    1       31.751 -18.365   9.023  0.00  0.00    +0.156 C 
ATOM      8  C   LIG    1       31.469 -17.665  10.353  0.00  0.00    +0.034 C 
ENDBRANCH   6   7
ENDBRANCH   5   6
ENDBRANCH   4   5
ENDBRANCH   3   4
BRANCH   3   9
ATOM      9  C   LIG    1       27.240 -21.228   8.252  0.00  0.00    +0.058 C 
BRANCH   9  10
ATOM     10  C   LIG    1       26.357 -22.473   8.202  0.00  0.00    +0.164 C 
BRANCH  10  11
ATOM     11  O   LIG    1       26.504 -23.202   6.977  0.00  0.00    -0.380 OA
BRANCH  11  12
ATOM     12  C   LIG    1       25.669 -24.373   6.956  0.00  0.00    +0.156 C 
ATOM     13  C   LIG    1       25.267 -24.737   5.536  0.00  0.00    +0.034 C 
ENDBRANCH  11  12
ENDBRANCH  10  11
ENDBRANCH   9  10
ENDBRANCH   3   9
ENDBRANCH   2   3
ENDBRANCH   1   2
BRANCH   1  14
ATOM     14  P   LIG    1       25.033 -19.690   3.706  0.00  0.00    -0.101 P 
BRANCH  14  15
ATOM     15  C   LIG    1       23.364 -19.090   4.333  0.00  0.00    +0.058 C 
BRANCH  15  16
ATOM     16  C   LIG    1       22.875 -19.847   5.566  0.00  0.00    +0.164 C 
BRANCH  16  17
ATOM     17  O   LIG    1       22.332 -21.110   5.183  0.00  0.00    -0.380 OA
BRANCH  17  18
ATOM     18  C   LIG    1       22.622 -22.167   6.091  0.00  0.00    +0.156 C 
ATOM     19  C   LIG    1       23.166 -21.636   7.408  0.00  0.00    +0.034 C 
ENDBRANCH  17  18
ENDBRANCH  16  17
ENDBRANCH  15  16
ENDBRANCH  14  15
BRANCH  14  20
ATOM     20  C   LIG    1       25.888 -18.089   3.184  0.00  0.00    +0.058 C 
BRANCH  20  21
ATOM     21  C   LIG    1       25.422 -16.609   3.442  0.00  0.00    +0.164 C 
BRANCH  21  22
ATOM     22  O   LIG    1       26.242 -15.521   2.972  0.00  0.00    -0.380 OA
BRANCH  22  24
ATOM     23  C   LIG    1       24.482 -13.973   3.883  0.00  0.00    +0.034 C 
ATOM     24  C   LIG    1       25.812 -14.377   3.703  0.00  0.00    +0.156 C 
ENDBRANCH  22  24
ENDBRANCH  21  22
ENDBRANCH  20  21
ENDBRANCH  14  20
ENDBRANCH   1  14
TORSDOF 19
ENDMDL
MODEL 7
REMARK VINA RESULT:      -5.1      0.714      7.036
REMARK  Name = *****
REMARK                            x       y       z     vdW  Elec       q    Type
REMARK                         _______ _______ _______ _____ _____    ______ ____
ROOT
ATOM      1  C   LIG    1       26.988 -20.536   7.998  0.00  0.00    +0.035 C 
ENDROOT
BRANCH   1   2
ATOM      2  C   LIG    1       26.164 -21.725   8.546  0.00  0.00    +0.035 C 
BRANCH   2   3
ATOM      3  P   LIG    1       24.704 -22.477   7.606  0.00  0.00    -0.101 P 
BRANCH   3   4
ATOM      4  C   LIG    1       23.408 -21.202   7.042  0.00  0.00    +0.058 C 
BRANCH   4   5
ATOM      5  C   LIG    1       22.542 -21.574   5.749  0.00  0.00    +0.164 C 
BRANCH   5   6
ATOM      6  O   LIG    1       22.433 -20.573   4.699  0.00  0.00    -0.380 OA
BRANCH   6   7
ATOM      7  C   LIG    1       22.363 -19.227   5.139  0.00  0.00    +0.156 C 
ATOM      8  C   LIG    1       21.782 -18.286   4.082  0.00  0.00    +0.034 C 
ENDBRANCH   6   7
ENDBRANCH   5   6
ENDBRANCH   4   5
ENDBRANCH   3   4
BRANCH   3   9
ATOM      9  C   LIG    1       25.511 -23.119   6.057  0.00  0.00    +0.058 C 
BRANCH   9  10
ATOM     10  C   LIG    1       24.995 -24.392   5.388  0.00  0.00    +0.164 C 
BRANCH  10  11
ATOM     11  O   LIG    1       25.963 -25.449   5.398  0.00  0.00    -0.380 OA
BRANCH  11  12
ATOM     12  C   LIG    1       25.736 -26.361   6.488  0.00  0.00    +0.156 C 
ATOM     13  C   LIG    1       24.491 -27.200   6.252  0.00  0.00    +0.034 C 
ENDBRANCH  11  12
ENDBRANCH  10  11
ENDBRANCH   9  10
ENDBRANCH   3   9
ENDBRANCH   2   3
ENDBRANCH   1   2
BRANCH   1  14
ATOM     14  P   LIG    1       28.580 -20.888   7.041  0.00  0.00    -0.101 P 
BRANCH  14  15
ATOM     15  C   LIG    1       28.814 -19.292   6.073  0.00  0.00    +0.058 C 
BRANCH  15  16
ATOM     16  C   LIG    1       27.778 -19.097   4.968  0.00  0.00    +0.164 C 
BRANCH  16  17
ATOM     17  O   LIG    1       26.671 -19.974   5.175  0.00  0.00    -0.380 OA
BRANCH  17  18
ATOM     18  C   LIG    1       25.680 -19.908   4.155  0.00  0.00    +0.156 C 
ATOM     19  C   LIG    1       25.623 -18.528   3.521  0.00  0.00    +0.034 C 
ENDBRANCH  17  18
ENDBRANCH  16  17
ENDBRANCH  15  16
ENDBRANCH  14  15
BRANCH  14  20
ATOM     20  C   LIG    1       30.046 -20.879   8.231  0.00  0.00    +0.058 C 
BRANCH  20  21
ATOM     21  C   LIG    1       31.387 -20.067   8.115  0.00  0.00    +0.164 C 
BRANCH  21  22
ATOM     22  O   LIG    1       32.023 -19.585   9.315  0.00  0.00    -0.380 OA
BRANCH  22  24
ATOM     23  C   LIG    1       32.107 -17.072   9.232  0.00  0.00    +0.034 C 
ATOM     24  C   LIG    1       31.480 -18.287   9.539  0.00  0.00    +0.156 C 
ENDBRANCH  22  24
ENDBRANCH  21  22
ENDBRANCH  20  21
ENDBRANCH  14  20
ENDBRANCH   1  14
TORSDOF 19
ENDMDL
MODEL 8
REMARK VINA RESULT:      -5.1      2.248      7.049
REMARK  Name = *****
REMARK                            x       y       z     vdW  Elec       q    Type
REMARK                         _______ _______ _______ _____ _____    ______ ____
ROOT
ATOM      1  C   LIG    1       27.293 -19.909   5.483  0.00  0.00    +0.035 C 
ENDROOT
BRANCH   1   2
ATOM      2  C   LIG    1       25.865 -20.274   5.014  0.00  0.00    +0.035 C 
BRANCH   2   3
ATOM      3  P   LIG    1       25.015 -19.414   3.557  0.00  0.00    -0.101 P 
BRANCH   3   4
ATOM      4  C   LIG    1       23.269 -18.768   3.953  0.00  0.00    +0.058 C 
BRANCH   4   5
ATOM      5  C   LIG    1       22.486 -19.484   5.151  0.00  0.00    +0.164 C 
BRANCH   5   6
ATOM      6  O   LIG    1       22.232 -20.911   5.032  0.00  0.00    -0.380 OA
BRANCH   6   7
ATOM      7  C   LIG    1       22.744 -21.717   6.081  0.00  0.00    +0.156 C 
ATOM      8  C   LIG    1       23.287 -20.894   7.251  0.00  0.00    +0.034 C 
ENDBRANCH   6   7
ENDBRANCH   5   6
ENDBRANCH   4   5
ENDBRANCH   3   4
BRANCH   3   9
ATOM      9  C   LIG    1       26.081 -17.911   3.302  0.00  0.00    +0.058 C 
BRANCH   9  10
ATOM     10  C   LIG    1       25.474 -16.511   3.381  0.00  0.00    +0.164 C 
BRANCH  10  11
ATOM     11  O   LIG    1       26.400 -15.487   2.996  0.00  0.00    -0.380 OA
BRANCH  11  12
ATOM     12  C   LIG    1       25.906 -14.177   3.326  0.00  0.00    +0.156 C 
ATOM     13  C   LIG    1       24.536 -14.255   3.980  0.00  0.00    +0.034 C 
ENDBRANCH  11  12
ENDBRANCH  10  11
ENDBRANCH   9  10
ENDBRANCH   3   9
ENDBRANCH   2   3
ENDBRANCH   1   2
BRANCH   1  14
ATOM     14  P   LIG    1       27.802 -20.296   7.261  0.00  0.00    -0.101 P 
BRANCH  14  15
ATOM     15  C   LIG    1       27.686 -22.173   7.301  0.00  0.00    +0.058 C 
BRANCH  15  16
ATOM     16  C   LIG    1       26.271 -22.685   7.563  0.00  0.00    +0.164 C 
BRANCH  16  17
ATOM     17  O   LIG    1       25.818 -23.464   6.456  0.00  0.00    -0.380 OA
BRANCH  17  18
ATOM     18  C   LIG    1       25.493 -24.809   6.787  0.00  0.00    +0.156 C 
ATOM     19  C   LIG    1       24.120 -25.196   6.262  0.00  0.00    +0.034 C 
ENDBRANCH  17  18
ENDBRANCH  16  17
ENDBRANCH  15  16
ENDBRANCH  14  15
BRANCH  14  20
ATOM     20  C   LIG    1       29.652 -19.983   7.470  0.00  0.00    +0.058 C 
BRANCH  20  21
ATOM     21  C   LIG    1       30.359 -18.831   8.273  0.00  0.00    +0.164 C 
BRANCH  21  22
ATOM     22  O   LIG    1       29.737 -18.326   9.471  0.00  0.00    -0.380 OA
BRANCH  22  24
ATOM     23  C   LIG    1       30.824 -16.682  11.035  0.00  0.00    +0.034 C 
ATOM     24  C   LIG    1       30.411 -17.105   9.764  0.00  0.00    +0.156 C 
ENDBRANCH  22  24
ENDBRANCH  21  22
ENDBRANCH  20  21
ENDBRANCH  14  20
ENDBRANCH   1  14
TORSDOF 19
ENDMDL
MODEL 9
REMARK VINA RESULT:      -5.1      1.099      4.434
REMARK  Name = *****
REMARK                            x       y       z     vdW  Elec       q    Type
REMARK                         _______ _______ _______ _____ _____    ______ ____
ROOT
ATOM      1  C   LIG    1       26.603 -22.411   8.062  0.00  0.00    +0.035 C 
ENDROOT
BRANCH   1   2
ATOM      2  C   LIG    1       27.377 -21.074   7.973  0.00  0.00    +0.035 C 
BRANCH   2   3
ATOM      3  P   LIG    1       28.923 -20.857   6.904  0.00  0.00    -0.101 P 
BRANCH   3   4
ATOM      4  C   LIG    1       28.949 -19.238   5.902  0.00  0.00    +0.058 C 
BRANCH   4   5
ATOM      5  C   LIG    1       27.665 -18.925   4.999  0.00  0.00    +0.164 C 
BRANCH   5   6
ATOM      6  O   LIG    1       26.604 -19.920   4.968  0.00  0.00    -0.380 OA
BRANCH   6   7
ATOM      7  C   LIG    1       25.662 -19.781   3.917  0.00  0.00    +0.156 C 
ATOM      8  C   LIG    1       25.597 -18.357   3.362  0.00  0.00    +0.034 C 
ENDBRANCH   6   7
ENDBRANCH   5   6
ENDBRANCH   4   5
ENDBRANCH   3   4
BRANCH   3   9
ATOM      9  C   LIG    1       30.273 -20.704   8.175  0.00  0.00    +0.058 C 
BRANCH   9  10
ATOM     10  C   LIG    1       31.283 -19.560   8.095  0.00  0.00    +0.164 C 
BRANCH  10  11
ATOM     11  O   LIG    1       31.985 -19.360   9.329  0.00  0.00    -0.380 OA
BRANCH  11  12
ATOM     12  C   LIG    1       31.672 -18.083   9.913  0.00  0.00    +0.156 C 
ATOM     13  C   LIG    1       30.574 -17.377   9.134  0.00  0.00    +0.034 C 
ENDBRANCH  11  12
ENDBRANCH  10  11
ENDBRANCH   9  10
ENDBRANCH   3   9
ENDBRANCH   2   3
ENDBRANCH   1   2
BRANCH   1  14
ATOM     14  P   LIG    1       25.600 -22.990   6.568  0.00  0.00    -0.101 P 
BRANCH  14  15
ATOM     15  C   LIG    1       25.823 -24.856   6.648  0.00  0.00    +0.058 C 
BRANCH  15  16
ATOM     16  C   LIG    1       25.052 -25.604   5.561  0.00  0.00    +0.164 C 
BRANCH  16  17
ATOM     17  O   LIG    1       24.057 -26.439   6.152  0.00  0.00    -0.380 OA
BRANCH  17  18
ATOM     18  C   LIG    1       24.481 -27.780   6.371  0.00  0.00    +0.156 C 
ATOM     19  C   LIG    1       25.271 -28.316   5.188  0.00  0.00    +0.034 C 
ENDBRANCH  17  18
ENDBRANCH  16  17
ENDBRANCH  15  16
ENDBRANCH  14  15
BRANCH  14  20
ATOM     20  C   LIG    1       23.758 -22.769   6.921  0.00  0.00    +0.058 C 
BRANCH  20  21
ATOM     21  C   LIG    1       22.971 -21.432   7.176  0.00  0.00    +0.164 C 
BRANCH  21  22
ATOM     22  O   LIG    1       23.401 -20.226   6.514  0.00  0.00    -0.380 OA
BRANCH  22  24
ATOM     23  C   LIG    1       22.201 -18.903   4.743  0.00  0.00    +0.034 C 
ATOM     24  C   LIG    1       22.565 -20.104   5.367  0.00  0.00    +0.156 C 
ENDBRANCH  22  24
ENDBRANCH  21  22
ENDBRANCH  20  21
ENDBRANCH  14  20
ENDBRANCH   1  14
TORSDOF 19
ENDMDL
