MODEL 1
REMARK VINA RESULT:      -7.1      0.000      0.000
REMARK  Name = *****
REMARK                            x       y       z     vdW  Elec       q    Type
REMARK                         _______ _______ _______ _____ _____    ______ ____
ROOT
ATOM      1  C   LIG    1       24.991 -20.507   4.596  0.00  0.00    +0.135 A 
ATOM      2  C   LIG    1       25.974 -19.533   4.391  0.00  0.00    -0.005 A 
ATOM      3  C   LIG    1       25.876 -18.445   3.356  0.00  0.00    +0.048 C 
ATOM      4  C   LIG    1       27.116 -19.565   5.217  0.00  0.00    +0.052 A 
ATOM      5  C   LIG    1       27.269 -20.506   6.252  0.00  0.00    +0.124 A 
ATOM      6  C   LIG    1       26.290 -21.496   6.432  0.00  0.00    +0.000 A 
ATOM      7  C   LIG    1       25.150 -21.452   5.618  0.00  0.00    +0.054 A 
ENDROOT
BRANCH   6   8
ATOM      8  C   LIG    1       26.394 -22.582   7.495  0.00  0.00    +0.017 C 
ATOM      9  C   LIG    1       25.802 -23.936   7.062  0.00  0.00    +0.012 C 
ATOM     10  C   LIG    1       25.733 -22.123   8.797  0.00  0.00    +0.012 C 
ENDBRANCH   6   8
BRANCH   1  11
ATOM     11  O   LIG    1       23.767 -20.474   3.887  0.00  0.00    -0.426 OA
BRANCH  11  13
ATOM     12  C   LIG    1       22.345 -18.775   4.756  0.00  0.00    +0.136 C 
ATOM     13  C   LIG    1       22.591 -20.245   4.606  0.00  0.00    +0.309 C 
ATOM     14  O   LIG    1       21.837 -21.103   5.085  0.00  0.00    -0.251 OA
ENDBRANCH  11  13
ENDBRANCH   1  11
BRANCH   5  15
ATOM     15  O   LIG    1       28.362 -20.529   7.093  0.00  0.00    -0.490 OA
BRANCH  15  16
ATOM     16  C   LIG    1       29.115 -19.307   7.161  0.00  0.00    +0.244 C 
BRANCH  16  17
ATOM     17  C   LIG    1       30.574 -19.542   6.704  0.00  0.00    +0.124 C 
BRANCH  17  18
ATOM     18  N   LIG    1       31.552 -19.565   7.816  0.00  0.00    -0.305 NA
ATOM     19  C   LIG    1       31.205 -20.596   8.802  0.00  0.00    +0.104 C 
ATOM     20  C   LIG    1       31.622 -18.264   8.489  0.00  0.00    +0.104 C 
ENDBRANCH  17  18
ENDBRANCH  16  17
ENDBRANCH  15  16
ENDBRANCH   5  15
TORSDOF 7
ENDMDL
MODEL 2
REMARK VINA RESULT:      -6.9      2.556      6.333
REMARK  Name = *****
REMARK                            x       y       z     vdW  Elec       q    Type
REMARK                         _______ _______ _______ _____ _____    ______ ____
ROOT
ATOM      1  C   LIG    1       29.466 -20.242   7.030  0.00  0.00    +0.135 A 
ATOM      2  C   LIG    1       28.938 -19.389   6.055  0.00  0.00    -0.005 A 
ATOM      3  C   LIG    1       29.738 -18.337   5.337  0.00  0.00    +0.048 C 
ATOM      4  C   LIG    1       27.577 -19.538   5.716  0.00  0.00    +0.052 A 
ATOM      5  C   LIG    1       26.764 -20.533   6.289  0.00  0.00    +0.124 A 
ATOM      6  C   LIG    1       27.297 -21.367   7.286  0.00  0.00    +0.000 A 
ATOM      7  C   LIG    1       28.652 -21.225   7.610  0.00  0.00    +0.054 A 
ENDROOT
BRANCH   6   8
ATOM      8  C   LIG    1       26.478 -22.439   7.993  0.00  0.00    +0.017 C 
ATOM      9  C   LIG    1       25.974 -23.555   7.058  0.00  0.00    +0.012 C 
ATOM     10  C   LIG    1       25.294 -21.811   8.731  0.00  0.00    +0.012 C 
ENDBRANCH   6   8
BRANCH   1  11
ATOM     11  O   LIG    1       30.846 -20.233   7.343  0.00  0.00    -0.426 OA
BRANCH  11  13
ATOM     12  C   LIG    1       30.637 -18.643   9.101  0.00  0.00    +0.136 C 
ATOM     13  C   LIG    1       31.226 -19.946   8.657  0.00  0.00    +0.309 C 
ATOM     14  O   LIG    1       31.957 -20.633   9.383  0.00  0.00    -0.251 OA
ENDBRANCH  11  13
ENDBRANCH   1  11
BRANCH   5  15
ATOM     15  O   LIG    1       25.442 -20.717   5.943  0.00  0.00    -0.490 OA
BRANCH  15  16
ATOM     16  C   LIG    1       25.184 -20.842   4.535  0.00  0.00    +0.244 C 
BRANCH  16  17
ATOM     17  C   LIG    1       24.212 -19.737   4.060  0.00  0.00    +0.124 C 
BRANCH  17  18
ATOM     18  N   LIG    1       23.021 -19.576   4.926  0.00  0.00    -0.305 NA
ATOM     19  C   LIG    1       22.228 -20.811   4.965  0.00  0.00    +0.104 C 
ATOM     20  C   LIG    1       22.170 -18.477   4.461  0.00  0.00    +0.104 C 
ENDBRANCH  17  18
ENDBRANCH  16  17
ENDBRANCH  15  16
ENDBRANCH   5  15
TORSDOF 7
ENDMDL
MODEL 3
REMARK VINA RESULT:      -6.6      1.775      3.710
REMARK  Name = *****
REMARK                            x       y       z     vdW  Elec       q    Type
REMARK                         _______ _______ _______ _____ _____    ______ ____
ROOT
ATOM      1  C   LIG    1       24.533 -21.349   6.995  0.00  0.00    +0.135 A 
ATOM      2  C   LIG    1       25.705 -21.207   7.746  0.00  0.00    -0.005 A 
ATOM      3  C   LIG    1       25.868 -21.712   9.153  0.00  0.00    +0.048 C 
ATOM      4  C   LIG    1       26.804 -20.566   7.137  0.00  0.00    +0.052 A 
ATOM      5  C   LIG    1       26.768 -20.115   5.805  0.00  0.00    +0.124 A 
ATOM      6  C   LIG    1       25.578 -20.238   5.069  0.00  0.00    +0.000 A 
ATOM      7  C   LIG    1       24.494 -20.888   5.672  0.00  0.00    +0.054 A 
ENDROOT
BRANCH   6   8
ATOM      8  C   LIG    1       25.434 -19.737   3.638  0.00  0.00    +0.017 C 
ATOM      9  C   LIG    1       25.384 -18.202   3.518  0.00  0.00    +0.012 C 
ATOM     10  C   LIG    1       24.193 -20.345   2.980  0.00  0.00    +0.012 C 
ENDBRANCH   6   8
BRANCH   1  11
ATOM     11  O   LIG    1       23.428 -22.080   7.492  0.00  0.00    -0.426 OA
BRANCH  11  13
ATOM     12  C   LIG    1       24.392 -24.122   6.739  0.00  0.00    +0.136 C 
ATOM     13  C   LIG    1       23.140 -23.320   6.915  0.00  0.00    +0.309 C 
ATOM     14  O   LIG    1       22.026 -23.733   6.566  0.00  0.00    -0.251 OA
ENDBRANCH  11  13
ENDBRANCH   1  11
BRANCH   5  15
ATOM     15  O   LIG    1       27.844 -19.519   5.182  0.00  0.00    -0.490 OA
BRANCH  15  16
ATOM     16  C   LIG    1       29.117 -19.728   5.817  0.00  0.00    +0.244 C 
BRANCH  16  17
ATOM     17  C   LIG    1       29.688 -18.389   6.342  0.00  0.00    +0.124 C 
BRANCH  17  18
ATOM     18  N   LIG    1       30.727 -18.552   7.385  0.00  0.00    -0.305 NA
ATOM     19  C   LIG    1       30.948 -19.970   7.693  0.00  0.00    +0.104 C 
ATOM     20  C   LIG    1       30.358 -17.847   8.617  0.00  0.00    +0.104 C 
ENDBRANCH  17  18
ENDBRANCH  16  17
ENDBRANCH  15  16
ENDBRANCH   5  15
TORSDOF 7
ENDMDL
MODEL 4
REMARK VINA RESULT:      -6.5      2.650      6.207
REMARK  Name = *****
REMARK                            x       y       z     vdW  Elec       q    Type
REMARK                         _______ _______ _______ _____ _____    ______ ____
ROOT
ATOM      1  C   LIG    1       27.893 -20.372   6.190  0.00  0.00    +0.135 A 
ATOM      2  C   LIG    1       27.518 -20.970   7.398  0.00  0.00    -0.005 A 
ATOM      3  C   LIG    1       28.488 -21.354   8.482  0.00  0.00    +0.048 C 
ATOM      4  C   LIG    1       26.145 -21.209   7.617  0.00  0.00    +0.052 A 
ATOM      5  C   LIG    1       25.159 -20.828   6.689  0.00  0.00    +0.124 A 
ATOM      6  C   LIG    1       25.548 -20.254   5.468  0.00  0.00    +0.000 A 
ATOM      7  C   LIG    1       26.911 -20.005   5.260  0.00  0.00    +0.054 A 
ENDROOT
BRANCH   6   8
ATOM      8  C   LIG    1       24.553 -19.854   4.386  0.00  0.00    +0.017 C 
ATOM      9  C   LIG    1       24.103 -21.024   3.490  0.00  0.00    +0.012 C 
ATOM     10  C   LIG    1       25.127 -18.732   3.518  0.00  0.00    +0.012 C 
ENDBRANCH   6   8
BRANCH   1  11
ATOM     11  O   LIG    1       29.235 -19.996   5.943  0.00  0.00    -0.426 OA
BRANCH  11  13
ATOM     12  C   LIG    1       30.204 -18.435   7.456  0.00  0.00    +0.136 C 
ATOM     13  C   LIG    1       29.588 -18.654   6.110  0.00  0.00    +0.309 C 
ATOM     14  O   LIG    1       29.418 -17.738   5.293  0.00  0.00    -0.251 OA
ENDBRANCH  11  13
ENDBRANCH   1  11
BRANCH   5  15
ATOM     15  O   LIG    1       23.810 -21.021   6.902  0.00  0.00    -0.490 OA
BRANCH  15  16
ATOM     16  C   LIG    1       23.435 -22.342   7.326  0.00  0.00    +0.244 C 
BRANCH  16  17
ATOM     17  C   LIG    1       23.746 -23.376   6.219  0.00  0.00    +0.124 C 
BRANCH  17  18
ATOM     18  N   LIG    1       24.362 -24.626   6.724  0.00  0.00    -0.305 NA
ATOM     19  C   LIG    1       25.822 -24.496   6.810  0.00  0.00    +0.104 C 
ATOM     20  C   LIG    1       24.034 -25.766   5.863  0.00  0.00    +0.104 C 
ENDBRANCH  17  18
ENDBRANCH  16  17
ENDBRANCH  15  16
ENDBRANCH   5  15
TORSDOF 7
ENDMDL
MODEL 5
REMARK VINA RESULT:      -6.5      3.113      6.585
REMARK  Name = *****
REMARK                            x       y       z     vdW  Elec       q    Type
REMARK                         _______ _______ _______ _____ _____    ______ ____
ROOT
ATOM      1  C   LIG    1       27.589 -20.278   6.830  0.00  0.00    +0.135 A 
ATOM      2  C   LIG    1       27.749 -21.515   7.463  0.00  0.00    -0.005 A 
ATOM      3  C   LIG    1       28.884 -21.842   8.394  0.00  0.00    +0.048 C 
ATOM      4  C   LIG    1       26.775 -22.507   7.226  0.00  0.00    +0.052 A 
ATOM      5  C   LIG    1       25.645 -22.275   6.420  0.00  0.00    +0.124 A 
ATOM      6  C   LIG    1       25.509 -21.038   5.768  0.00  0.00    +0.000 A 
ATOM      7  C   LIG    1       26.470 -20.051   6.018  0.00  0.00    +0.054 A 
ENDROOT
BRANCH   6   8
ATOM      8  C   LIG    1       24.344 -20.715   4.842  0.00  0.00    +0.017 C 
ATOM      9  C   LIG    1       24.696 -19.716   3.723  0.00  0.00    +0.012 C 
ATOM     10  C   LIG    1       23.151 -20.190   5.643  0.00  0.00    +0.012 C 
ENDBRANCH   6   8
BRANCH   1  11
ATOM     11  O   LIG    1       28.458 -19.195   7.106  0.00  0.00    -0.426 OA
BRANCH  11  13
ATOM     12  C   LIG    1       30.791 -19.287   6.645  0.00  0.00    +0.136 C 
ATOM     13  C   LIG    1       29.436 -18.872   6.161  0.00  0.00    +0.309 C 
ATOM     14  O   LIG    1       29.255 -18.308   5.074  0.00  0.00    -0.251 OA
ENDBRANCH  11  13
ENDBRANCH   1  11
BRANCH   5  15
ATOM     15  O   LIG    1       24.665 -23.221   6.206  0.00  0.00    -0.490 OA
BRANCH  15  16
ATOM     16  C   LIG    1       25.117 -24.458   5.631  0.00  0.00    +0.244 C 
BRANCH  16  17
ATOM     17  C   LIG    1       24.205 -25.627   6.071  0.00  0.00    +0.124 C 
BRANCH  17  18
ATOM     18  N   LIG    1       24.531 -26.917   5.421  0.00  0.00    -0.305 NA
ATOM     19  C   LIG    1       24.485 -28.021   6.388  0.00  0.00    +0.104 C 
ATOM     20  C   LIG    1       25.859 -26.879   4.801  0.00  0.00    +0.104 C 
ENDBRANCH  17  18
ENDBRANCH  16  17
ENDBRANCH  15  16
ENDBRANCH   5  15
TORSDOF 7
ENDMDL
MODEL 6
REMARK VINA RESULT:      -6.4      3.046      5.531
REMARK  Name = *****
REMARK                            x       y       z     vdW  Elec       q    Type
REMARK                         _______ _______ _______ _____ _____    ______ ____
ROOT
ATOM      1  C   LIG    1       25.055 -21.238   6.521  0.00  0.00    +0.135 A 
ATOM      2  C   LIG    1       26.318 -20.772   6.140  0.00  0.00    -0.005 A 
ATOM      3  C   LIG    1       27.607 -21.223   6.771  0.00  0.00    +0.048 C 
ATOM      4  C   LIG    1       26.384 -19.835   5.088  0.00  0.00    +0.052 A 
ATOM      5  C   LIG    1       25.239 -19.400   4.395  0.00  0.00    +0.124 A 
ATOM      6  C   LIG    1       23.975 -19.854   4.803  0.00  0.00    +0.000 A 
ATOM      7  C   LIG    1       23.914 -20.795   5.839  0.00  0.00    +0.054 A 
ENDROOT
BRANCH   6   8
ATOM      8  C   LIG    1       22.679 -19.401   4.143  0.00  0.00    +0.017 C 
ATOM      9  C   LIG    1       22.232 -17.985   4.555  0.00  0.00    +0.012 C 
ATOM     10  C   LIG    1       21.555 -20.399   4.428  0.00  0.00    +0.012 C 
ENDBRANCH   6   8
BRANCH   1  11
ATOM     11  O   LIG    1       24.913 -22.262   7.488  0.00  0.00    -0.426 OA
BRANCH  11  13
ATOM     12  C   LIG    1       25.741 -24.385   6.801  0.00  0.00    +0.136 C 
ATOM     13  C   LIG    1       24.534 -23.536   7.054  0.00  0.00    +0.309 C 
ATOM     14  O   LIG    1       23.379 -23.942   6.873  0.00  0.00    -0.251 OA
ENDBRANCH  11  13
ENDBRANCH   1  11
BRANCH   5  15
ATOM     15  O   LIG    1       25.289 -18.512   3.341  0.00  0.00    -0.490 OA
BRANCH  15  16
ATOM     16  C   LIG    1       26.299 -17.495   3.438  0.00  0.00    +0.244 C 
BRANCH  16  17
ATOM     17  C   LIG    1       25.668 -16.089   3.299  0.00  0.00    +0.124 C 
BRANCH  17  18
ATOM     18  N   LIG    1       26.625 -15.046   2.860  0.00  0.00    -0.305 NA
ATOM     19  C   LIG    1       27.553 -14.694   3.941  0.00  0.00    +0.104 C 
ATOM     20  C   LIG    1       25.925 -13.836   2.418  0.00  0.00    +0.104 C 
ENDBRANCH  17  18
ENDBRANCH  16  17
ENDBRANCH  15  16
ENDBRANCH   5  15
TORSDOF 7
ENDMDL
MODEL 7
REMARK VINA RESULT:      -6.2      3.161      5.570
REMARK  Name = *****
REMARK                            x       y       z     vdW  Elec       q    Type
REMARK                         _______ _______ _______ _____ _____    ______ ____
ROOT
ATOM      1  C   LIG    1       23.659 -20.905   6.258  0.00  0.00    +0.135 A 
ATOM      2  C   LIG    1       23.165 -22.213   6.292  0.00  0.00    -0.005 A 
ATOM      3  C   LIG    1       21.720 -22.572   6.074  0.00  0.00    +0.048 C 
ATOM      4  C   LIG    1       24.082 -23.258   6.527  0.00  0.00    +0.052 A 
ATOM      5  C   LIG    1       25.462 -23.027   6.681  0.00  0.00    +0.124 A 
ATOM      6  C   LIG    1       25.943 -21.708   6.673  0.00  0.00    +0.000 A 
ATOM      7  C   LIG    1       25.031 -20.674   6.424  0.00  0.00    +0.054 A 
ENDROOT
BRANCH   6   8
ATOM      8  C   LIG    1       27.412 -21.361   6.878  0.00  0.00    +0.017 C 
ATOM      9  C   LIG    1       27.806 -21.166   8.355  0.00  0.00    +0.012 C 
ATOM     10  C   LIG    1       27.785 -20.111   6.077  0.00  0.00    +0.012 C 
ENDBRANCH   6   8
BRANCH   1  11
ATOM     11  O   LIG    1       22.824 -19.814   5.915  0.00  0.00    -0.426 OA
BRANCH  11  13
ATOM     12  C   LIG    1       22.090 -18.052   4.493  0.00  0.00    +0.136 C 
ATOM     13  C   LIG    1       22.899 -19.307   4.615  0.00  0.00    +0.309 C 
ATOM     14  O   LIG    1       23.519 -19.800   3.663  0.00  0.00    -0.251 OA
ENDBRANCH  11  13
ENDBRANCH   1  11
BRANCH   5  15
ATOM     15  O   LIG    1       26.378 -24.039   6.876  0.00  0.00    -0.490 OA
BRANCH  15  16
ATOM     16  C   LIG    1       25.821 -25.358   7.010  0.00  0.00    +0.244 C 
BRANCH  16  17
ATOM     17  C   LIG    1       26.483 -26.331   6.006  0.00  0.00    +0.124 C 
BRANCH  17  18
ATOM     18  N   LIG    1       25.519 -27.009   5.107  0.00  0.00    -0.305 NA
ATOM     19  C   LIG    1       24.162 -26.480   5.295  0.00  0.00    +0.104 C 
ATOM     20  C   LIG    1       25.504 -28.456   5.340  0.00  0.00    +0.104 C 
ENDBRANCH  17  18
ENDBRANCH  16  17
ENDBRANCH  15  16
ENDBRANCH   5  15
TORSDOF 7
ENDMDL
MODEL 8
REMARK VINA RESULT:      -6.1      2.286      4.589
REMARK  Name = *****
REMARK                            x       y       z     vdW  Elec       q    Type
REMARK                         _______ _______ _______ _____ _____    ______ ____
ROOT
ATOM      1  C   LIG    1       24.485 -23.969   6.130  0.00  0.00    +0.135 A 
ATOM      2  C   LIG    1       25.575 -24.004   7.006  0.00  0.00    -0.005 A 
ATOM      3  C   LIG    1       26.113 -25.264   7.628  0.00  0.00    +0.048 C 
ATOM      4  C   LIG    1       26.217 -22.785   7.310  0.00  0.00    +0.052 A 
ATOM      5  C   LIG    1       25.825 -21.564   6.730  0.00  0.00    +0.124 A 
ATOM      6  C   LIG    1       24.713 -21.536   5.872  0.00  0.00    +0.000 A 
ATOM      7  C   LIG    1       24.088 -22.751   5.562  0.00  0.00    +0.054 A 
ENDROOT
BRANCH   6   8
ATOM      8  C   LIG    1       24.190 -20.255   5.236  0.00  0.00    +0.017 C 
ATOM      9  C   LIG    1       22.655 -20.124   5.271  0.00  0.00    +0.012 C 
ATOM     10  C   LIG    1       24.684 -20.132   3.793  0.00  0.00    +0.012 C 
ENDBRANCH   6   8
BRANCH   1  11
ATOM     11  O   LIG    1       23.862 -25.160   5.687  0.00  0.00    -0.426 OA
BRANCH  11  13
ATOM     12  C   LIG    1       24.299 -27.495   5.555  0.00  0.00    +0.136 C 
ATOM     13  C   LIG    1       24.651 -26.127   5.059  0.00  0.00    +0.309 C 
ATOM     14  O   LIG    1       25.539 -25.926   4.220  0.00  0.00    -0.251 OA
ENDBRANCH  11  13
ENDBRANCH   1  11
BRANCH   5  15
ATOM     15  O   LIG    1       26.463 -20.369   6.986  0.00  0.00    -0.490 OA
BRANCH  15  16
ATOM     16  C   LIG    1       27.761 -20.222   6.385  0.00  0.00    +0.244 C 
BRANCH  16  17
ATOM     17  C   LIG    1       28.831 -19.947   7.468  0.00  0.00    +0.124 C 
BRANCH  17  18
ATOM     18  N   LIG    1       29.777 -18.863   7.111  0.00  0.00    -0.305 NA
ATOM     19  C   LIG    1       29.551 -18.397   5.738  0.00  0.00    +0.104 C 
ATOM     20  C   LIG    1       31.167 -19.306   7.243  0.00  0.00    +0.104 C 
ENDBRANCH  17  18
ENDBRANCH  16  17
ENDBRANCH  15  16
ENDBRANCH   5  15
TORSDOF 7
ENDMDL
MODEL 9
REMARK VINA RESULT:      -5.8      1.753      3.729
REMARK  Name = *****
REMARK                            x       y       z     vdW  Elec       q    Type
REMARK                         _______ _______ _______ _____ _____    ______ ____
ROOT
ATOM      1  C   LIG    1       26.347 -21.075   6.166  0.00  0.00    +0.135 A 
ATOM      2  C   LIG    1       26.743 -21.888   7.233  0.00  0.00    -0.005 A 
ATOM      3  C   LIG    1       25.949 -23.064   7.734  0.00  0.00    +0.048 C 
ATOM      4  C   LIG    1       27.969 -21.595   7.865  0.00  0.00    +0.052 A 
ATOM      5  C   LIG    1       28.810 -20.554   7.429  0.00  0.00    +0.124 A 
ATOM      6  C   LIG    1       28.391 -19.727   6.374  0.00  0.00    +0.000 A 
ATOM      7  C   LIG    1       27.179 -20.030   5.740  0.00  0.00    +0.054 A 
ENDROOT
BRANCH   6   8
ATOM      8  C   LIG    1       29.214 -18.550   5.867  0.00  0.00    +0.017 C 
ATOM      9  C   LIG    1       28.504 -17.716   4.783  0.00  0.00    +0.012 C 
ATOM     10  C   LIG    1       30.569 -19.030   5.343  0.00  0.00    +0.012 C 
ENDBRANCH   6   8
BRANCH   1  11
ATOM     11  O   LIG    1       25.189 -21.371   5.408  0.00  0.00    -0.426 OA
BRANCH  11  13
ATOM     12  C   LIG    1       23.340 -20.583   6.682  0.00  0.00    +0.136 C 
ATOM     13  C   LIG    1       24.136 -20.453   5.420  0.00  0.00    +0.309 C 
ATOM     14  O   LIG    1       23.852 -19.641   4.529  0.00  0.00    -0.251 OA
ENDBRANCH  11  13
ENDBRANCH   1  11
BRANCH   5  15
ATOM     15  O   LIG    1       30.029 -20.277   8.012  0.00  0.00    -0.490 OA
BRANCH  15  16
ATOM     16  C   LIG    1       30.031 -19.188   8.950  0.00  0.00    +0.244 C 
BRANCH  16  17
ATOM     17  C   LIG    1       31.406 -18.480   8.957  0.00  0.00    +0.124 C 
BRANCH  17  18
ATOM     18  N   LIG    1       31.815 -17.983  10.291  0.00  0.00    -0.305 NA
ATOM     19  C   LIG    1       30.645 -17.645  11.110  0.00  0.00    +0.104 C 
ATOM     20  C   LIG    1       32.675 -16.801  10.177  0.00  0.00    +0.104 C 
ENDBRANCH  17  18
ENDBRANCH  16  17
ENDBRANCH  15  16
ENDBRANCH   5  15
TORSDOF 7
ENDMDL
