MODEL 1
REMARK VINA RESULT:      -9.8      0.000      0.000
REMARK  Name = *****
REMARK                            x       y       z     vdW  Elec       q    Type
REMARK                         _______ _______ _______ _____ _____    ______ ____
ROOT
ATOM      1  C   LIG    1       26.512 -20.774   6.312  0.00  0.00    +0.147 C 
ENDROOT
BRANCH   1   2
ATOM      2  N   LIG    1       27.166 -20.939   7.627  0.00  0.00    -0.315 N 
ATOM      3  C   LIG    1       26.268 -20.569   8.737  0.00  0.00    +0.131 C 
BRANCH   2   8
ATOM      4  C   LIG    1       30.361 -19.201   8.051  0.00  0.00    +0.225 A 
ATOM      5  N   LIG    1       31.125 -20.181   8.530  0.00  0.00    -0.201 NA
ATOM      6  C   LIG    1       30.568 -21.387   8.549  0.00  0.00    +0.227 A 
ATOM      7  N   LIG    1       29.297 -21.672   8.264  0.00  0.00    -0.221 NA
ATOM      8  C   LIG    1       28.503 -20.664   7.877  0.00  0.00    +0.128 A 
ATOM      9  C   LIG    1       29.071 -19.426   7.684  0.00  0.00    +0.111 A 
BRANCH   4  10
ATOM     10  O   LIG    1       30.829 -17.881   7.915  0.00  0.00    -0.438 OA
BRANCH  10  14
ATOM     11  C   LIG    1       32.202 -16.170  11.447  0.00  0.00    +0.120 A 
ATOM     12  C   LIG    1       30.895 -16.665  11.366  0.00  0.00    +0.049 A 
ATOM     13  C   LIG    1       30.402 -17.178  10.160  0.00  0.00    +0.050 A 
ATOM     14  C   LIG    1       31.248 -17.237   9.054  0.00  0.00    +0.131 A 
ATOM     15  C   LIG    1       32.508 -16.642   9.127  0.00  0.00    +0.050 A 
ATOM     16  C   LIG    1       33.012 -16.171  10.323  0.00  0.00    +0.049 A 
BRANCH  11  18
ATOM     17  C   LIG    1       32.379 -16.314  13.768  0.00  0.00    +0.277 C 
ATOM     18  O   LIG    1       32.779 -15.655  12.573  0.00  0.00    -0.495 OA
ENDBRANCH  11  18
ENDBRANCH  10  14
ENDBRANCH   4  10
ENDBRANCH   2   8
ENDBRANCH   1   2
BRANCH   1  19
ATOM     19  C   LIG    1       25.156 -21.472   5.951  0.00  0.00    +0.248 C 
BRANCH  19  20
ATOM     20  O   LIG    1       24.462 -22.517   6.690  0.00  0.00    -0.490 OA
BRANCH  20  21
ATOM     21  C   LIG    1       24.734 -23.838   6.499  0.00  0.00    +0.121 A 
ATOM     22  C   LIG    1       23.835 -24.670   5.889  0.00  0.00    +0.046 A 
ATOM     23  C   LIG    1       24.032 -26.014   5.746  0.00  0.00    +0.007 A 
ATOM     24  C   LIG    1       25.184 -26.606   6.212  0.00  0.00    -0.046 A 
ATOM     25  C   LIG    1       26.159 -25.785   6.792  0.00  0.00    +0.007 A 
ATOM     26  C   LIG    1       25.915 -24.410   6.988  0.00  0.00    +0.046 A 
BRANCH  24  27
ATOM     27  C   LIG    1       25.326 -28.091   6.048  0.00  0.00    +0.059 C 
BRANCH  27  28
ATOM     28  C   LIG    1       24.600 -28.901   7.139  0.00  0.00    +0.146 C 
ATOM     29  C   LIG    1       24.297 -30.360   6.797  0.00  0.00    +0.234 C 
ATOM     30  O   LIG    1       23.332 -30.772   6.158  0.00  0.00    -0.274 OA
ATOM     31  N   LIG    1       25.231 -31.213   7.262  0.00  0.00    -0.246 N 
ATOM     32  H   LIG    1       25.148 -32.200   7.113  0.00  0.00    +0.158 HD
ATOM     33  C   LIG    1       26.018 -30.773   8.299  0.00  0.00    +0.279 C 
ATOM     34  O   LIG    1       26.741 -31.446   8.947  0.00  0.00    -0.263 OA
ATOM     35  S   LIG    1       25.736 -29.061   8.568  0.00  0.00    -0.054 S 
ENDBRANCH  27  28
ENDBRANCH  24  27
ENDBRANCH  20  21
ENDBRANCH  19  20
ENDBRANCH   1  19
TORSDOF 10
ENDMDL
MODEL 2
REMARK VINA RESULT:      -9.8      1.739      3.085
REMARK  Name = *****
REMARK                            x       y       z     vdW  Elec       q    Type
REMARK                         _______ _______ _______ _____ _____    ______ ____
ROOT
ATOM      1  C   LIG    1       22.786 -21.445   5.792  0.00  0.00    +0.147 C 
ENDROOT
BRANCH   1   2
ATOM      2  N   LIG    1       23.928 -20.506   5.803  0.00  0.00    -0.315 N 
ATOM      3  C   LIG    1       24.297 -20.074   4.441  0.00  0.00    +0.131 C 
BRANCH   2   8
ATOM      4  C   LIG    1       27.326 -20.709   7.152  0.00  0.00    +0.225 A 
ATOM      5  N   LIG    1       27.089 -20.624   8.460  0.00  0.00    -0.201 NA
ATOM      6  C   LIG    1       25.809 -20.645   8.815  0.00  0.00    +0.227 A 
ATOM      7  N   LIG    1       24.763 -20.610   7.988  0.00  0.00    -0.221 NA
ATOM      8  C   LIG    1       25.007 -20.596   6.671  0.00  0.00    +0.128 A 
ATOM      9  C   LIG    1       26.309 -20.737   6.249  0.00  0.00    +0.111 A 
BRANCH   4  10
ATOM     10  O   LIG    1       28.630 -20.756   6.626  0.00  0.00    -0.438 OA
BRANCH  10  14
ATOM     11  C   LIG    1       31.460 -18.850   9.002  0.00  0.00    +0.120 A 
ATOM     12  C   LIG    1       30.707 -18.115   8.079  0.00  0.00    +0.049 A 
ATOM     13  C   LIG    1       29.803 -18.759   7.225  0.00  0.00    +0.050 A 
ATOM     14  C   LIG    1       29.625 -20.137   7.344  0.00  0.00    +0.131 A 
ATOM     15  C   LIG    1       30.461 -20.862   8.194  0.00  0.00    +0.050 A 
ATOM     16  C   LIG    1       31.326 -20.227   9.064  0.00  0.00    +0.049 A 
BRANCH  11  18
ATOM     17  C   LIG    1       32.268 -16.905  10.005  0.00  0.00    +0.277 C 
ATOM     18  O   LIG    1       32.362 -18.318   9.880  0.00  0.00    -0.495 OA
ENDBRANCH  11  18
ENDBRANCH  10  14
ENDBRANCH   4  10
ENDBRANCH   2   8
ENDBRANCH   1   2
BRANCH   1  19
ATOM     19  C   LIG    1       22.864 -22.875   6.428  0.00  0.00    +0.248 C 
BRANCH  19  20
ATOM     20  O   LIG    1       24.011 -23.515   7.056  0.00  0.00    -0.490 OA
BRANCH  20  21
ATOM     21  C   LIG    1       24.544 -24.673   6.576  0.00  0.00    +0.121 A 
ATOM     22  C   LIG    1       23.778 -25.583   5.902  0.00  0.00    +0.046 A 
ATOM     23  C   LIG    1       24.250 -26.791   5.470  0.00  0.00    +0.007 A 
ATOM     24  C   LIG    1       25.561 -27.149   5.693  0.00  0.00    -0.046 A 
ATOM     25  C   LIG    1       26.398 -26.224   6.330  0.00  0.00    +0.007 A 
ATOM     26  C   LIG    1       25.881 -25.009   6.822  0.00  0.00    +0.046 A 
BRANCH  24  27
ATOM     27  C   LIG    1       26.009 -28.500   5.219  0.00  0.00    +0.059 C 
BRANCH  27  28
ATOM     28  C   LIG    1       25.100 -29.650   5.693  0.00  0.00    +0.146 C 
ATOM     29  C   LIG    1       25.638 -31.063   5.469  0.00  0.00    +0.234 C 
ATOM     30  O   LIG    1       25.552 -31.717   4.432  0.00  0.00    -0.274 OA
ATOM     31  N   LIG    1       26.265 -31.565   6.551  0.00  0.00    -0.246 N 
ATOM     32  H   LIG    1       26.658 -32.487   6.539  0.00  0.00    +0.158 HD
ATOM     33  C   LIG    1       25.962 -30.999   7.766  0.00  0.00    +0.279 C 
ATOM     34  O   LIG    1       26.265 -31.436   8.821  0.00  0.00    -0.263 OA
ATOM     35  S   LIG    1       24.990 -29.559   7.520  0.00  0.00    -0.054 S 
ENDBRANCH  27  28
ENDBRANCH  24  27
ENDBRANCH  20  21
ENDBRANCH  19  20
ENDBRANCH   1  19
TORSDOF 10
ENDMDL
MODEL 3
REMARK VINA RESULT:      -9.6      2.993     11.169
REMARK  Name = *****
REMARK                            x       y       z     vdW  Elec       q    Type
REMARK                         _______ _______ _______ _____ _____    ______ ____
ROOT
ATOM      1  C   LIG    1       23.611 -23.908   6.190  0.00  0.00    +0.147 C 
ENDROOT
BRANCH   1   2
ATOM      2  N   LIG    1       24.670 -24.827   6.658  0.00  0.00    -0.315 N 
ATOM      3  C   LIG    1       25.883 -24.099   7.077  0.00  0.00    +0.131 C 
BRANCH   2   8
ATOM      4  C   LIG    1       24.598 -28.410   5.910  0.00  0.00    +0.225 A 
ATOM      5  N   LIG    1       25.397 -28.467   4.846  0.00  0.00    -0.201 NA
ATOM      6  C   LIG    1       26.017 -27.335   4.532  0.00  0.00    +0.227 A 
ATOM      7  N   LIG    1       25.812 -26.143   5.094  0.00  0.00    -0.221 NA
ATOM      8  C   LIG    1       24.931 -26.071   6.101  0.00  0.00    +0.128 A 
ATOM      9  C   LIG    1       24.384 -27.241   6.571  0.00  0.00    +0.111 A 
BRANCH   4  10
ATOM     10  O   LIG    1       23.917 -29.540   6.400  0.00  0.00    -0.438 OA
BRANCH  10  14
ATOM     11  C   LIG    1       25.676 -31.226   9.769  0.00  0.00    +0.120 A 
ATOM     12  C   LIG    1       26.181 -31.509   8.495  0.00  0.00    +0.049 A 
ATOM     13  C   LIG    1       25.552 -31.003   7.351  0.00  0.00    +0.050 A 
ATOM     14  C   LIG    1       24.445 -30.169   7.502  0.00  0.00    +0.131 A 
ATOM     15  C   LIG    1       23.895 -29.987   8.771  0.00  0.00    +0.050 A 
ATOM     16  C   LIG    1       24.535 -30.452   9.904  0.00  0.00    +0.049 A 
BRANCH  11  18
ATOM     17  C   LIG    1       25.435 -31.338  12.086  0.00  0.00    +0.277 C 
ATOM     18  O   LIG    1       26.217 -31.665  10.945  0.00  0.00    -0.495 OA
ENDBRANCH  11  18
ENDBRANCH  10  14
ENDBRANCH   4  10
ENDBRANCH   2   8
ENDBRANCH   1   2
BRANCH   1  19
ATOM     19  C   LIG    1       23.190 -22.629   6.990  0.00  0.00    +0.248 C 
BRANCH  19  20
ATOM     20  O   LIG    1       23.588 -21.249   6.749  0.00  0.00    -0.490 OA
BRANCH  20  21
ATOM     21  C   LIG    1       24.887 -20.846   6.836  0.00  0.00    +0.121 A 
ATOM     22  C   LIG    1       25.626 -20.579   5.717  0.00  0.00    +0.046 A 
ATOM     23  C   LIG    1       26.951 -20.248   5.753  0.00  0.00    +0.007 A 
ATOM     24  C   LIG    1       27.616 -20.154   6.955  0.00  0.00    -0.046 A 
ATOM     25  C   LIG    1       26.885 -20.363   8.131  0.00  0.00    +0.007 A 
ATOM     26  C   LIG    1       25.535 -20.764   8.075  0.00  0.00    +0.046 A 
BRANCH  24  27
ATOM     27  C   LIG    1       29.077 -19.813   6.923  0.00  0.00    +0.059 C 
BRANCH  27  28
ATOM     28  C   LIG    1       29.721 -19.739   8.320  0.00  0.00    +0.146 C 
ATOM     29  C   LIG    1       31.168 -20.222   8.415  0.00  0.00    +0.234 C 
ATOM     30  O   LIG    1       31.540 -21.385   8.548  0.00  0.00    -0.274 OA
ATOM     31  N   LIG    1       32.063 -19.218   8.323  0.00  0.00    -0.246 N 
ATOM     32  H   LIG    1       33.048 -19.398   8.378  0.00  0.00    +0.158 HD
ATOM     33  C   LIG    1       31.613 -17.952   8.607  0.00  0.00    +0.279 C 
ATOM     34  O   LIG    1       32.295 -16.999   8.764  0.00  0.00    -0.263 OA
ATOM     35  S   LIG    1       29.866 -17.970   8.777  0.00  0.00    -0.054 S 
ENDBRANCH  27  28
ENDBRANCH  24  27
ENDBRANCH  20  21
ENDBRANCH  19  20
ENDBRANCH   1  19
TORSDOF 10
ENDMDL
MODEL 4
REMARK VINA RESULT:      -9.5      1.792      2.973
REMARK  Name = *****
REMARK                            x       y       z     vdW  Elec       q    Type
REMARK                         _______ _______ _______ _____ _____    ______ ____
ROOT
ATOM      1  C   LIG    1       23.164 -21.656   5.713  0.00  0.00    +0.147 C 
ENDROOT
BRANCH   1   2
ATOM      2  N   LIG    1       24.203 -20.606   5.784  0.00  0.00    -0.315 N 
ATOM      3  C   LIG    1       24.565 -20.101   4.446  0.00  0.00    +0.131 C 
BRANCH   2   8
ATOM      4  C   LIG    1       27.565 -20.530   7.234  0.00  0.00    +0.225 A 
ATOM      5  N   LIG    1       27.283 -20.474   8.534  0.00  0.00    -0.201 NA
ATOM      6  C   LIG    1       26.000 -20.606   8.850  0.00  0.00    +0.227 A 
ATOM      7  N   LIG    1       24.979 -20.654   7.993  0.00  0.00    -0.221 NA
ATOM      8  C   LIG    1       25.260 -20.610   6.684  0.00  0.00    +0.128 A 
ATOM      9  C   LIG    1       26.581 -20.637   6.301  0.00  0.00    +0.111 A 
BRANCH   4  10
ATOM     10  O   LIG    1       28.883 -20.462   6.747  0.00  0.00    -0.438 OA
BRANCH  10  14
ATOM     11  C   LIG    1       31.516 -18.499   9.298  0.00  0.00    +0.120 A 
ATOM     12  C   LIG    1       30.638 -17.765   8.490  0.00  0.00    +0.049 A 
ATOM     13  C   LIG    1       29.799 -18.415   7.577  0.00  0.00    +0.050 A 
ATOM     14  C   LIG    1       29.811 -19.808   7.521  0.00  0.00    +0.131 A 
ATOM     15  C   LIG    1       30.766 -20.512   8.255  0.00  0.00    +0.050 A 
ATOM     16  C   LIG    1       31.568 -19.878   9.184  0.00  0.00    +0.049 A 
BRANCH  11  18
ATOM     17  C   LIG    1       32.744 -16.622   9.935  0.00  0.00    +0.277 C 
ATOM     18  O   LIG    1       32.369 -17.963  10.220  0.00  0.00    -0.495 OA
ENDBRANCH  11  18
ENDBRANCH  10  14
ENDBRANCH   4  10
ENDBRANCH   2   8
ENDBRANCH   1   2
BRANCH   1  19
ATOM     19  C   LIG    1       23.490 -23.178   5.889  0.00  0.00    +0.248 C 
BRANCH  19  20
ATOM     20  O   LIG    1       24.766 -23.850   5.689  0.00  0.00    -0.490 OA
BRANCH  20  21
ATOM     21  C   LIG    1       24.948 -25.162   6.007  0.00  0.00    +0.121 A 
ATOM     22  C   LIG    1       24.109 -26.133   5.534  0.00  0.00    +0.046 A 
ATOM     23  C   LIG    1       24.206 -27.449   5.888  0.00  0.00    +0.007 A 
ATOM     24  C   LIG    1       25.191 -27.869   6.754  0.00  0.00    -0.046 A 
ATOM     25  C   LIG    1       26.109 -26.919   7.219  0.00  0.00    +0.007 A 
ATOM     26  C   LIG    1       25.958 -25.557   6.893  0.00  0.00    +0.046 A 
BRANCH  24  27
ATOM     27  C   LIG    1       25.226 -29.323   7.124  0.00  0.00    +0.059 C 
BRANCH  27  28
ATOM     28  C   LIG    1       25.078 -29.575   8.636  0.00  0.00    +0.146 C 
ATOM     29  C   LIG    1       24.039 -30.622   9.040  0.00  0.00    +0.234 C 
ATOM     30  O   LIG    1       22.833 -30.435   9.177  0.00  0.00    -0.274 OA
ATOM     31  N   LIG    1       24.574 -31.844   9.233  0.00  0.00    -0.246 N 
ATOM     32  H   LIG    1       24.002 -32.620   9.509  0.00  0.00    +0.158 HD
ATOM     33  C   LIG    1       25.922 -31.903   9.489  0.00  0.00    +0.279 C 
ATOM     34  O   LIG    1       26.509 -32.856   9.869  0.00  0.00    -0.263 OA
ATOM     35  S   LIG    1       26.640 -30.321   9.236  0.00  0.00    -0.054 S 
ENDBRANCH  27  28
ENDBRANCH  24  27
ENDBRANCH  20  21
ENDBRANCH  19  20
ENDBRANCH   1  19
TORSDOF 10
ENDMDL
MODEL 5
REMARK VINA RESULT:      -9.4      3.258     11.072
REMARK  Name = *****
REMARK                            x       y       z     vdW  Elec       q    Type
REMARK                         _______ _______ _______ _____ _____    ______ ____
ROOT
ATOM      1  C   LIG    1       24.318 -25.551   5.726  0.00  0.00    +0.147 C 
ENDROOT
BRANCH   1   2
ATOM      2  N   LIG    1       25.180 -26.553   6.390  0.00  0.00    -0.315 N 
ATOM      3  C   LIG    1       26.604 -26.354   6.063  0.00  0.00    +0.131 C 
BRANCH   2   8
ATOM      4  C   LIG    1       24.736 -29.877   7.858  0.00  0.00    +0.225 A 
ATOM      5  N   LIG    1       23.978 -30.467   6.935  0.00  0.00    -0.201 NA
ATOM      6  C   LIG    1       23.781 -29.770   5.822  0.00  0.00    +0.227 A 
ATOM      7  N   LIG    1       24.154 -28.507   5.608  0.00  0.00    -0.221 NA
ATOM      8  C   LIG    1       24.832 -27.883   6.581  0.00  0.00    +0.128 A 
ATOM      9  C   LIG    1       25.203 -28.612   7.686  0.00  0.00    +0.111 A 
BRANCH   4  10
ATOM     10  O   LIG    1       25.080 -30.512   9.065  0.00  0.00    -0.438 OA
BRANCH  10  14
ATOM     11  C   LIG    1       23.112 -28.986  12.395  0.00  0.00    +0.120 A 
ATOM     12  C   LIG    1       24.500 -28.848  12.273  0.00  0.00    +0.049 A 
ATOM     13  C   LIG    1       25.179 -29.420  11.191  0.00  0.00    +0.050 A 
ATOM     14  C   LIG    1       24.448 -30.086  10.209  0.00  0.00    +0.131 A 
ATOM     15  C   LIG    1       23.083 -30.304  10.404  0.00  0.00    +0.050 A 
ATOM     16  C   LIG    1       22.404 -29.709  11.449  0.00  0.00    +0.049 A 
BRANCH  11  18
ATOM     17  C   LIG    1       21.147 -27.864  12.960  0.00  0.00    +0.277 C 
ATOM     18  O   LIG    1       22.356 -28.464  13.407  0.00  0.00    -0.495 OA
ENDBRANCH  11  18
ENDBRANCH  10  14
ENDBRANCH   4  10
ENDBRANCH   2   8
ENDBRANCH   1   2
BRANCH   1  19
ATOM     19  C   LIG    1       23.392 -24.574   6.526  0.00  0.00    +0.248 C 
BRANCH  19  20
ATOM     20  O   LIG    1       23.366 -23.119   6.475  0.00  0.00    -0.490 OA
BRANCH  20  21
ATOM     21  C   LIG    1       24.469 -22.368   6.747  0.00  0.00    +0.121 A 
ATOM     22  C   LIG    1       25.059 -22.390   7.980  0.00  0.00    +0.046 A 
ATOM     23  C   LIG    1       26.118 -21.598   8.322  0.00  0.00    +0.007 A 
ATOM     24  C   LIG    1       26.661 -20.723   7.408  0.00  0.00    -0.046 A 
ATOM     25  C   LIG    1       26.126 -20.707   6.114  0.00  0.00    +0.007 A 
ATOM     26  C   LIG    1       24.995 -21.486   5.795  0.00  0.00    +0.046 A 
BRANCH  24  27
ATOM     27  C   LIG    1       27.805 -19.861   7.855  0.00  0.00    +0.059 C 
BRANCH  27  28
ATOM     28  C   LIG    1       29.135 -20.193   7.152  0.00  0.00    +0.146 C 
ATOM     29  C   LIG    1       30.011 -18.996   6.782  0.00  0.00    +0.234 C 
ATOM     30  O   LIG    1       29.905 -18.302   5.773  0.00  0.00    -0.274 OA
ATOM     31  N   LIG    1       30.956 -18.732   7.705  0.00  0.00    -0.246 N 
ATOM     32  H   LIG    1       31.603 -17.976   7.580  0.00  0.00    +0.158 HD
ATOM     33  C   LIG    1       31.302 -19.753   8.555  0.00  0.00    +0.279 C 
ATOM     34  O   LIG    1       32.233 -19.756   9.283  0.00  0.00    -0.263 OA
ATOM     35  S   LIG    1       30.190 -21.096   8.348  0.00  0.00    -0.054 S 
ENDBRANCH  27  28
ENDBRANCH  24  27
ENDBRANCH  20  21
ENDBRANCH  19  20
ENDBRANCH   1  19
TORSDOF 10
ENDMDL
MODEL 6
REMARK VINA RESULT:      -9.4      3.494     10.262
REMARK  Name = *****
REMARK                            x       y       z     vdW  Elec       q    Type
REMARK                         _______ _______ _______ _____ _____    ______ ____
ROOT
ATOM      1  C   LIG    1       24.057 -26.182   5.873  0.00  0.00    +0.147 C 
ENDROOT
BRANCH   1   2
ATOM      2  N   LIG    1       25.266 -26.920   6.297  0.00  0.00    -0.315 N 
ATOM      3  C   LIG    1       26.331 -26.860   5.278  0.00  0.00    +0.131 C 
BRANCH   2   8
ATOM      4  C   LIG    1       25.871 -29.476   8.847  0.00  0.00    +0.225 A 
ATOM      5  N   LIG    1       25.039 -30.437   8.450  0.00  0.00    -0.201 NA
ATOM      6  C   LIG    1       24.435 -30.231   7.286  0.00  0.00    +0.227 A 
ATOM      7  N   LIG    1       24.485 -29.112   6.561  0.00  0.00    -0.221 NA
ATOM      8  C   LIG    1       25.247 -28.107   7.015  0.00  0.00    +0.128 A 
ATOM      9  C   LIG    1       26.020 -28.330   8.130  0.00  0.00    +0.111 A 
BRANCH   4  10
ATOM     10  O   LIG    1       26.627 -29.576  10.030  0.00  0.00    -0.438 OA
BRANCH  10  14
ATOM     11  C   LIG    1       25.232 -27.182  13.131  0.00  0.00    +0.120 A 
ATOM     12  C   LIG    1       26.494 -26.947  12.572  0.00  0.00    +0.049 A 
ATOM     13  C   LIG    1       27.000 -27.791  11.577  0.00  0.00    +0.050 A 
ATOM     14  C   LIG    1       26.208 -28.840  11.113  0.00  0.00    +0.131 A 
ATOM     15  C   LIG    1       25.002 -29.121  11.755  0.00  0.00    +0.050 A 
ATOM     16  C   LIG    1       24.482 -28.268  12.710  0.00  0.00    +0.049 A 
BRANCH  11  18
ATOM     17  C   LIG    1       23.267 -26.162  13.865  0.00  0.00    +0.277 C 
ATOM     18  O   LIG    1       24.646 -26.418  14.099  0.00  0.00    -0.495 OA
ENDBRANCH  11  18
ENDBRANCH  10  14
ENDBRANCH   4  10
ENDBRANCH   2   8
ENDBRANCH   1   2
BRANCH   1  19
ATOM     19  C   LIG    1       23.677 -24.779   6.458  0.00  0.00    +0.248 C 
BRANCH  19  20
ATOM     20  O   LIG    1       23.922 -23.468   5.874  0.00  0.00    -0.490 OA
BRANCH  20  21
ATOM     21  C   LIG    1       24.825 -22.598   6.407  0.00  0.00    +0.121 A 
ATOM     22  C   LIG    1       25.206 -21.468   5.737  0.00  0.00    +0.046 A 
ATOM     23  C   LIG    1       26.163 -20.608   6.197  0.00  0.00    +0.007 A 
ATOM     24  C   LIG    1       26.795 -20.842   7.397  0.00  0.00    -0.046 A 
ATOM     25  C   LIG    1       26.395 -21.956   8.146  0.00  0.00    +0.007 A 
ATOM     26  C   LIG    1       25.451 -22.866   7.630  0.00  0.00    +0.046 A 
BRANCH  24  27
ATOM     27  C   LIG    1       27.856 -19.874   7.832  0.00  0.00    +0.059 C 
BRANCH  27  28
ATOM     28  C   LIG    1       29.215 -20.103   7.144  0.00  0.00    +0.146 C 
ATOM     29  C   LIG    1       30.005 -18.843   6.791  0.00  0.00    +0.234 C 
ATOM     30  O   LIG    1       29.862 -18.153   5.785  0.00  0.00    -0.274 OA
ATOM     31  N   LIG    1       30.918 -18.516   7.727  0.00  0.00    -0.246 N 
ATOM     32  H   LIG    1       31.509 -17.715   7.615  0.00  0.00    +0.158 HD
ATOM     33  C   LIG    1       31.327 -19.515   8.576  0.00  0.00    +0.279 C 
ATOM     34  O   LIG    1       32.247 -19.455   9.316  0.00  0.00    -0.263 OA
ATOM     35  S   LIG    1       30.319 -20.934   8.348  0.00  0.00    -0.054 S 
ENDBRANCH  27  28
ENDBRANCH  24  27
ENDBRANCH  20  21
ENDBRANCH  19  20
ENDBRANCH   1  19
TORSDOF 10
ENDMDL
MODEL 7
REMARK VINA RESULT:      -9.2      2.152      3.732
REMARK  Name = *****
REMARK                            x       y       z     vdW  Elec       q    Type
REMARK                         _______ _______ _______ _____ _____    ______ ____
ROOT
ATOM      1  C   LIG    1       24.128 -24.062   6.314  0.00  0.00    +0.147 C 
ENDROOT
BRANCH   1   2
ATOM      2  N   LIG    1       24.254 -22.598   6.482  0.00  0.00    -0.315 N 
ATOM      3  C   LIG    1       23.933 -21.872   5.239  0.00  0.00    +0.131 C 
BRANCH   2   8
ATOM      4  C   LIG    1       27.477 -21.510   7.836  0.00  0.00    +0.225 A 
ATOM      5  N   LIG    1       27.087 -20.603   8.731  0.00  0.00    -0.201 NA
ATOM      6  C   LIG    1       25.777 -20.513   8.924  0.00  0.00    +0.227 A 
ATOM      7  N   LIG    1       24.832 -21.141   8.222  0.00  0.00    -0.221 NA
ATOM      8  C   LIG    1       25.228 -21.979   7.254  0.00  0.00    +0.128 A 
ATOM      9  C   LIG    1       26.573 -22.232   7.122  0.00  0.00    +0.111 A 
BRANCH   4  10
ATOM     10  O   LIG    1       28.834 -21.762   7.563  0.00  0.00    -0.438 OA
BRANCH  10  14
ATOM     11  C   LIG    1       31.295 -18.440   8.019  0.00  0.00    +0.120 A 
ATOM     12  C   LIG    1       30.381 -18.500   6.959  0.00  0.00    +0.049 A 
ATOM     13  C   LIG    1       29.600 -19.644   6.757  0.00  0.00    +0.050 A 
ATOM     14  C   LIG    1       29.706 -20.703   7.657  0.00  0.00    +0.131 A 
ATOM     15  C   LIG    1       30.696 -20.667   8.640  0.00  0.00    +0.050 A 
ATOM     16  C   LIG    1       31.441 -19.526   8.867  0.00  0.00    +0.049 A 
BRANCH  11  18
ATOM     17  C   LIG    1       32.242 -17.129   9.699  0.00  0.00    +0.277 C 
ATOM     18  O   LIG    1       32.097 -17.373   8.306  0.00  0.00    -0.495 OA
ENDBRANCH  11  18
ENDBRANCH  10  14
ENDBRANCH   4  10
ENDBRANCH   2   8
ENDBRANCH   1   2
BRANCH   1  19
ATOM     19  C   LIG    1       24.841 -24.841   5.157  0.00  0.00    +0.248 C 
BRANCH  19  20
ATOM     20  O   LIG    1       25.762 -25.963   5.266  0.00  0.00    -0.490 OA
BRANCH  20  21
ATOM     21  C   LIG    1       25.416 -27.122   5.893  0.00  0.00    +0.121 A 
ATOM     22  C   LIG    1       24.513 -27.988   5.342  0.00  0.00    +0.046 A 
ATOM     23  C   LIG    1       24.079 -29.122   5.969  0.00  0.00    +0.007 A 
ATOM     24  C   LIG    1       24.555 -29.457   7.216  0.00  0.00    -0.046 A 
ATOM     25  C   LIG    1       25.525 -28.630   7.795  0.00  0.00    +0.007 A 
ATOM     26  C   LIG    1       25.917 -27.433   7.163  0.00  0.00    +0.046 A 
BRANCH  24  27
ATOM     27  C   LIG    1       24.017 -30.701   7.861  0.00  0.00    +0.059 C 
BRANCH  27  28
ATOM     28  C   LIG    1       24.665 -31.995   7.334  0.00  0.00    +0.146 C 
ATOM     29  C   LIG    1       26.029 -31.834   6.664  0.00  0.00    +0.234 C 
ATOM     30  O   LIG    1       26.232 -31.517   5.494  0.00  0.00    -0.274 OA
ATOM     31  N   LIG    1       27.058 -32.064   7.504  0.00  0.00    -0.246 N 
ATOM     32  H   LIG    1       28.007 -31.999   7.189  0.00  0.00    +0.158 HD
ATOM     33  C   LIG    1       26.792 -32.810   8.626  0.00  0.00    +0.279 C 
ATOM     34  O   LIG    1       27.602 -33.264   9.357  0.00  0.00    -0.263 OA
ATOM     35  S   LIG    1       25.060 -33.052   8.778  0.00  0.00    -0.054 S 
ENDBRANCH  27  28
ENDBRANCH  24  27
ENDBRANCH  20  21
ENDBRANCH  19  20
ENDBRANCH   1  19
TORSDOF 10
ENDMDL
MODEL 8
REMARK VINA RESULT:      -9.1      2.308      3.889
REMARK  Name = *****
REMARK                            x       y       z     vdW  Elec       q    Type
REMARK                         _______ _______ _______ _____ _____    ______ ____
ROOT
ATOM      1  C   LIG    1       24.131 -24.103   6.256  0.00  0.00    +0.147 C 
ENDROOT
BRANCH   1   2
ATOM      2  N   LIG    1       24.163 -22.657   6.566  0.00  0.00    -0.315 N 
ATOM      3  C   LIG    1       23.666 -21.843   5.441  0.00  0.00    +0.131 C 
BRANCH   2   8
ATOM      4  C   LIG    1       27.428 -21.573   7.820  0.00  0.00    +0.225 A 
ATOM      5  N   LIG    1       27.067 -20.658   8.718  0.00  0.00    -0.201 NA
ATOM      6  C   LIG    1       25.762 -20.561   8.948  0.00  0.00    +0.227 A 
ATOM      7  N   LIG    1       24.796 -21.190   8.277  0.00  0.00    -0.221 NA
ATOM      8  C   LIG    1       25.161 -22.037   7.305  0.00  0.00    +0.128 A 
ATOM      9  C   LIG    1       26.501 -22.296   7.137  0.00  0.00    +0.111 A 
BRANCH   4  10
ATOM     10  O   LIG    1       28.775 -21.832   7.511  0.00  0.00    -0.438 OA
BRANCH  10  14
ATOM     11  C   LIG    1       31.261 -18.524   7.926  0.00  0.00    +0.120 A 
ATOM     12  C   LIG    1       30.413 -18.633   6.817  0.00  0.00    +0.049 A 
ATOM     13  C   LIG    1       29.625 -19.776   6.633  0.00  0.00    +0.050 A 
ATOM     14  C   LIG    1       29.659 -20.782   7.597  0.00  0.00    +0.131 A 
ATOM     15  C   LIG    1       30.587 -20.702   8.636  0.00  0.00    +0.050 A 
ATOM     16  C   LIG    1       31.337 -19.560   8.841  0.00  0.00    +0.049 A 
BRANCH  11  18
ATOM     17  C   LIG    1       32.205 -17.190   9.589  0.00  0.00    +0.277 C 
ATOM     18  O   LIG    1       32.064 -17.453   8.199  0.00  0.00    -0.495 OA
ENDBRANCH  11  18
ENDBRANCH  10  14
ENDBRANCH   4  10
ENDBRANCH   2   8
ENDBRANCH   1   2
BRANCH   1  19
ATOM     19  C   LIG    1       24.931 -24.727   5.063  0.00  0.00    +0.248 C 
BRANCH  19  20
ATOM     20  O   LIG    1       25.840 -25.864   5.091  0.00  0.00    -0.490 OA
BRANCH  20  21
ATOM     21  C   LIG    1       25.547 -27.007   5.773  0.00  0.00    +0.121 A 
ATOM     22  C   LIG    1       24.813 -28.009   5.201  0.00  0.00    +0.046 A 
ATOM     23  C   LIG    1       24.430 -29.136   5.871  0.00  0.00    +0.007 A 
ATOM     24  C   LIG    1       24.787 -29.323   7.187  0.00  0.00    -0.046 A 
ATOM     25  C   LIG    1       25.587 -28.349   7.797  0.00  0.00    +0.007 A 
ATOM     26  C   LIG    1       25.923 -27.164   7.113  0.00  0.00    +0.046 A 
BRANCH  24  27
ATOM     27  C   LIG    1       24.310 -30.570   7.873  0.00  0.00    +0.059 C 
BRANCH  27  28
ATOM     28  C   LIG    1       24.051 -30.381   9.380  0.00  0.00    +0.146 C 
ATOM     29  C   LIG    1       22.817 -31.089   9.939  0.00  0.00    +0.234 C 
ATOM     30  O   LIG    1       21.663 -30.670   9.912  0.00  0.00    -0.274 OA
ATOM     31  N   LIG    1       23.102 -32.288  10.484  0.00  0.00    -0.246 N 
ATOM     32  H   LIG    1       22.383 -32.853  10.894  0.00  0.00    +0.158 HD
ATOM     33  C   LIG    1       24.403 -32.506  10.869  0.00  0.00    +0.279 C 
ATOM     34  O   LIG    1       24.782 -33.409  11.531  0.00  0.00    -0.263 OA
ATOM     35  S   LIG    1       25.417 -31.195  10.290  0.00  0.00    -0.054 S 
ENDBRANCH  27  28
ENDBRANCH  24  27
ENDBRANCH  20  21
ENDBRANCH  19  20
ENDBRANCH   1  19
TORSDOF 10
ENDMDL
MODEL 9
REMARK VINA RESULT:      -8.9      3.596     10.575
REMARK  Name = *****
REMARK                            x       y       z     vdW  Elec       q    Type
REMARK                         _______ _______ _______ _____ _____    ______ ____
ROOT
ATOM      1  C   LIG    1       24.105 -25.043   6.503  0.00  0.00    +0.147 C 
ENDROOT
BRANCH   1   2
ATOM      2  N   LIG    1       25.052 -26.102   6.092  0.00  0.00    -0.315 N 
ATOM      3  C   LIG    1       25.465 -25.952   4.684  0.00  0.00    +0.131 C 
BRANCH   2   8
ATOM      4  C   LIG    1       25.550 -29.200   7.978  0.00  0.00    +0.225 A 
ATOM      5  N   LIG    1       24.681 -30.010   7.375  0.00  0.00    -0.201 NA
ATOM      6  C   LIG    1       24.089 -29.516   6.294  0.00  0.00    +0.227 A 
ATOM      7  N   LIG    1       24.185 -28.263   5.848  0.00  0.00    -0.221 NA
ATOM      8  C   LIG    1       24.985 -27.421   6.516  0.00  0.00    +0.128 A 
ATOM      9  C   LIG    1       25.745 -27.926   7.545  0.00  0.00    +0.111 A 
BRANCH   4  10
ATOM     10  O   LIG    1       26.297 -29.601   9.101  0.00  0.00    -0.438 OA
BRANCH  10  14
ATOM     11  C   LIG    1       25.514 -28.033  12.872  0.00  0.00    +0.120 A 
ATOM     12  C   LIG    1       24.600 -28.905  12.268  0.00  0.00    +0.049 A 
ATOM     13  C   LIG    1       24.822 -29.381  10.970  0.00  0.00    +0.050 A 
ATOM     14  C   LIG    1       25.992 -29.016  10.306  0.00  0.00    +0.131 A 
ATOM     15  C   LIG    1       26.835 -28.065  10.883  0.00  0.00    +0.050 A 
ATOM     16  C   LIG    1       26.640 -27.623  12.177  0.00  0.00    +0.049 A 
BRANCH  11  18
ATOM     17  C   LIG    1       25.647 -26.120  14.199  0.00  0.00    +0.277 C 
ATOM     18  O   LIG    1       25.394 -27.517  14.131  0.00  0.00    -0.495 OA
ENDBRANCH  11  18
ENDBRANCH  10  14
ENDBRANCH   4  10
ENDBRANCH   2   8
ENDBRANCH   1   2
BRANCH   1  19
ATOM     19  C   LIG    1       24.261 -23.552   6.052  0.00  0.00    +0.248 C 
BRANCH  19  20
ATOM     20  O   LIG    1       24.581 -22.395   6.876  0.00  0.00    -0.490 OA
BRANCH  20  21
ATOM     21  C   LIG    1       25.805 -21.797   6.836  0.00  0.00    +0.121 A 
ATOM     22  C   LIG    1       26.809 -22.174   7.685  0.00  0.00    +0.046 A 
ATOM     23  C   LIG    1       28.025 -21.553   7.735  0.00  0.00    +0.007 A 
ATOM     24  C   LIG    1       28.305 -20.496   6.898  0.00  0.00    -0.046 A 
ATOM     25  C   LIG    1       27.327 -20.112   5.972  0.00  0.00    +0.007 A 
ATOM     26  C   LIG    1       26.057 -20.723   5.975  0.00  0.00    +0.046 A 
BRANCH  24  27
ATOM     27  C   LIG    1       29.649 -19.841   7.022  0.00  0.00    +0.059 C 
BRANCH  27  28
ATOM     28  C   LIG    1       30.064 -19.562   8.479  0.00  0.00    +0.146 C 
ATOM     29  C   LIG    1       31.535 -19.809   8.813  0.00  0.00    +0.234 C 
ATOM     30  O   LIG    1       32.042 -20.889   9.107  0.00  0.00    -0.274 OA
ATOM     31  N   LIG    1       32.284 -18.691   8.743  0.00  0.00    -0.246 N 
ATOM     32  H   LIG    1       33.265 -18.714   8.947  0.00  0.00    +0.158 HD
ATOM     33  C   LIG    1       31.625 -17.490   8.840  0.00  0.00    +0.279 C 
ATOM     34  O   LIG    1       32.136 -16.436   8.992  0.00  0.00    -0.263 OA
ATOM     35  S   LIG    1       29.892 -17.762   8.776  0.00  0.00    -0.054 S 
ENDBRANCH  27  28
ENDBRANCH  24  27
ENDBRANCH  20  21
ENDBRANCH  19  20
ENDBRANCH   1  19
TORSDOF 10
ENDMDL
