MODEL 1
REMARK VINA RESULT:      -6.1      0.000      0.000
REMARK  Name = *****
REMARK                            x       y       z     vdW  Elec       q    Type
REMARK                         _______ _______ _______ _____ _____    ______ ____
ROOT
ATOM      1  C   LIG    1       27.575 -19.014   5.484  0.00  0.00    +0.111 C 
ENDROOT
BRANCH   1   3
ATOM      2  O   LIG    1       29.475 -18.913   6.994  0.00  0.00    -0.251 OA
ATOM      3  C   LIG    1       28.732 -19.581   6.306  0.00  0.00    +0.309 C 
BRANCH   3   4
ATOM      4  O   LIG    1       28.945 -20.903   6.146  0.00  0.00    -0.480 OA
ATOM      5  H   LIG    1       28.172 -21.473   6.369  0.00  0.00    +0.295 HD
ENDBRANCH   3   4
ENDBRANCH   1   3
BRANCH   1   6
ATOM      6  C   LIG    1       26.845 -20.221   4.816  0.00  0.00    +0.050 C 
BRANCH   6   7
ATOM      7  C   LIG    1       25.429 -20.469   5.289  0.00  0.00    -0.047 A 
ATOM      8  C   LIG    1       24.356 -20.402   4.393  0.00  0.00    +0.003 A 
ATOM      9  C   LIG    1       23.056 -20.680   4.819  0.00  0.00    +0.000 A 
ATOM     10  C   LIG    1       22.811 -21.007   6.150  0.00  0.00    +0.000 A 
ATOM     11  C   LIG    1       23.865 -21.042   7.062  0.00  0.00    +0.000 A 
ATOM     12  C   LIG    1       25.168 -20.772   6.635  0.00  0.00    +0.003 A 
ENDBRANCH   6   7
ENDBRANCH   1   6
BRANCH   1  13
ATOM     13  C   LIG    1       27.998 -17.950   4.455  0.00  0.00    +0.110 C 
BRANCH  13  14
ATOM     14  C   LIG    1       26.857 -17.374   3.617  0.00  0.00    +0.216 C 
ATOM     15  N   LIG    1       26.687 -16.017   3.626  0.00  0.00    -0.301 N 
ATOM     16  C   LIG    1       25.601 -15.373   2.896  0.00  0.00    +0.111 C 
ATOM     17  C   LIG    1       26.059 -13.922   2.770  0.00  0.00    +0.011 C 
ATOM     18  C   LIG    1       26.892 -13.706   4.046  0.00  0.00    +0.011 C 
ATOM     19  C   LIG    1       26.055 -13.353   5.279  0.00  0.00    +0.005 C 
ATOM     20  C   LIG    1       25.084 -12.219   4.988  0.00  0.00    +0.000 C 
ATOM     21  C   LIG    1       24.155 -12.593   3.838  0.00  0.00    +0.000 C 
ATOM     22  C   LIG    1       24.940 -12.906   2.567  0.00  0.00    +0.005 C 
ATOM     23  C   LIG    1       27.584 -15.051   4.231  0.00  0.00    +0.111 C 
ATOM     24  O   LIG    1       26.099 -18.092   2.966  0.00  0.00    -0.276 OA
ENDBRANCH  13  14
ENDBRANCH   1  13
TORSDOF 6
ENDMDL
MODEL 2
REMARK VINA RESULT:      -5.7      2.380      3.954
REMARK  Name = *****
REMARK                            x       y       z     vdW  Elec       q    Type
REMARK                         _______ _______ _______ _____ _____    ______ ____
ROOT
ATOM      1  C   LIG    1       24.548 -20.737   4.774  0.00  0.00    +0.111 C 
ENDROOT
BRANCH   1   3
ATOM      2  O   LIG    1       22.657 -21.466   6.112  0.00  0.00    -0.251 OA
ATOM      3  C   LIG    1       23.095 -21.137   5.031  0.00  0.00    +0.309 C 
BRANCH   3   4
ATOM      4  O   LIG    1       22.320 -21.193   3.928  0.00  0.00    -0.480 OA
ATOM      5  H   LIG    1       21.698 -21.957   3.903  0.00  0.00    +0.295 HD
ENDBRANCH   3   4
ENDBRANCH   1   3
BRANCH   1   6
ATOM      6  C   LIG    1       25.161 -20.309   6.144  0.00  0.00    +0.050 C 
BRANCH   6   7
ATOM      7  C   LIG    1       26.673 -20.318   6.211  0.00  0.00    -0.047 A 
ATOM      8  C   LIG    1       27.423 -19.357   5.523  0.00  0.00    +0.003 A 
ATOM      9  C   LIG    1       28.815 -19.335   5.625  0.00  0.00    +0.000 A 
ATOM     10  C   LIG    1       29.475 -20.285   6.400  0.00  0.00    +0.000 A 
ATOM     11  C   LIG    1       28.744 -21.271   7.062  0.00  0.00    +0.000 A 
ATOM     12  C   LIG    1       27.349 -21.289   6.966  0.00  0.00    +0.003 A 
ENDBRANCH   6   7
ENDBRANCH   1   6
BRANCH   1  13
ATOM     13  C   LIG    1       24.719 -19.650   3.697  0.00  0.00    +0.110 C 
BRANCH  13  14
ATOM     14  C   LIG    1       24.023 -18.325   4.001  0.00  0.00    +0.216 C 
ATOM     15  N   LIG    1       24.727 -17.173   3.778  0.00  0.00    -0.301 N 
ATOM     16  C   LIG    1       24.169 -15.860   4.079  0.00  0.00    +0.111 C 
ATOM     17  C   LIG    1       25.028 -14.904   3.256  0.00  0.00    +0.011 C 
ATOM     18  C   LIG    1       26.397 -15.606   3.221  0.00  0.00    +0.011 C 
ATOM     19  C   LIG    1       27.260 -15.343   4.459  0.00  0.00    +0.005 C 
ATOM     20  C   LIG    1       27.346 -13.857   4.773  0.00  0.00    +0.000 C 
ATOM     21  C   LIG    1       25.955 -13.275   4.995  0.00  0.00    +0.000 C 
ATOM     22  C   LIG    1       25.069 -13.467   3.767  0.00  0.00    +0.005 C 
ATOM     23  C   LIG    1       26.020 -17.079   3.129  0.00  0.00    +0.111 C 
ATOM     24  O   LIG    1       22.878 -18.277   4.448  0.00  0.00    -0.276 OA
ENDBRANCH  13  14
ENDBRANCH   1  13
TORSDOF 6
ENDMDL
MODEL 3
REMARK VINA RESULT:      -5.6      2.003      3.747
REMARK  Name = *****
REMARK                            x       y       z     vdW  Elec       q    Type
REMARK                         _______ _______ _______ _____ _____    ______ ____
ROOT
ATOM      1  C   LIG    1       24.713 -19.961   4.182  0.00  0.00    +0.111 C 
ENDROOT
BRANCH   1   3
ATOM      2  O   LIG    1       22.936 -21.485   4.826  0.00  0.00    -0.251 OA
ATOM      3  C   LIG    1       23.649 -21.033   3.955  0.00  0.00    +0.309 C 
BRANCH   3   4
ATOM      4  O   LIG    1       23.607 -21.533   2.703  0.00  0.00    -0.480 OA
ATOM      5  H   LIG    1       23.820 -20.882   1.994  0.00  0.00    +0.295 HD
ENDBRANCH   3   4
ENDBRANCH   1   3
BRANCH   1   6
ATOM      6  C   LIG    1       25.086 -19.989   5.698  0.00  0.00    +0.050 C 
BRANCH   6   7
ATOM      7  C   LIG    1       26.550 -20.223   6.004  0.00  0.00    -0.047 A 
ATOM      8  C   LIG    1       27.524 -19.323   5.555  0.00  0.00    +0.003 A 
ATOM      9  C   LIG    1       28.868 -19.511   5.880  0.00  0.00    +0.000 A 
ATOM     10  C   LIG    1       29.257 -20.612   6.639  0.00  0.00    +0.000 A 
ATOM     11  C   LIG    1       28.303 -21.536   7.062  0.00  0.00    +0.000 A 
ATOM     12  C   LIG    1       26.956 -21.345   6.744  0.00  0.00    +0.003 A 
ENDBRANCH   6   7
ENDBRANCH   1   6
BRANCH   1  13
ATOM     13  C   LIG    1       24.298 -18.553   3.714  0.00  0.00    +0.110 C 
BRANCH  13  14
ATOM     14  C   LIG    1       25.453 -17.650   3.285  0.00  0.00    +0.216 C 
ATOM     15  N   LIG    1       25.325 -16.307   3.513  0.00  0.00    -0.301 N 
ATOM     16  C   LIG    1       26.350 -15.355   3.102  0.00  0.00    +0.111 C 
ATOM     17  C   LIG    1       26.061 -14.120   3.950  0.00  0.00    +0.011 C 
ATOM     18  C   LIG    1       24.535 -14.176   4.140  0.00  0.00    +0.011 C 
ATOM     19  C   LIG    1       23.743 -13.581   2.972  0.00  0.00    +0.005 C 
ATOM     20  C   LIG    1       24.259 -12.201   2.595  0.00  0.00    +0.000 C 
ATOM     21  C   LIG    1       25.736 -12.264   2.222  0.00  0.00    +0.000 C 
ATOM     22  C   LIG    1       26.578 -12.805   3.375  0.00  0.00    +0.005 C 
ATOM     23  C   LIG    1       24.264 -15.670   4.270  0.00  0.00    +0.111 C 
ATOM     24  O   LIG    1       26.461 -18.095   2.737  0.00  0.00    -0.276 OA
ENDBRANCH  13  14
ENDBRANCH   1  13
TORSDOF 6
ENDMDL
MODEL 4
REMARK VINA RESULT:      -4.8      2.053      6.921
REMARK  Name = *****
REMARK                            x       y       z     vdW  Elec       q    Type
REMARK                         _______ _______ _______ _____ _____    ______ ____
ROOT
ATOM      1  C   LIG    1       26.981 -14.742   2.911  0.00  0.00    +0.111 C 
ENDROOT
BRANCH   1   3
ATOM      2  O   LIG    1       27.935 -14.470   5.127  0.00  0.00    -0.251 OA
ATOM      3  C   LIG    1       28.028 -14.295   3.931  0.00  0.00    +0.309 C 
BRANCH   3   4
ATOM      4  O   LIG    1       29.054 -13.589   3.416  0.00  0.00    -0.480 OA
ATOM      5  H   LIG    1       29.042 -13.503   2.433  0.00  0.00    +0.295 HD
ENDBRANCH   3   4
ENDBRANCH   1   3
BRANCH   1   6
ATOM      6  C   LIG    1       26.373 -13.453   2.274  0.00  0.00    +0.050 C 
BRANCH   6   7
ATOM      7  C   LIG    1       25.353 -12.727   3.125  0.00  0.00    -0.047 A 
ATOM      8  C   LIG    1       24.266 -12.073   2.531  0.00  0.00    +0.003 A 
ATOM      9  C   LIG    1       23.298 -11.447   3.318  0.00  0.00    +0.000 A 
ATOM     10  C   LIG    1       23.417 -11.447   4.706  0.00  0.00    +0.000 A 
ATOM     11  C   LIG    1       24.513 -12.062   5.309  0.00  0.00    +0.000 A 
ATOM     12  C   LIG    1       25.478 -12.696   4.522  0.00  0.00    +0.003 A 
ENDBRANCH   6   7
ENDBRANCH   1   6
BRANCH   1  13
ATOM     13  C   LIG    1       25.896 -15.671   3.488  0.00  0.00    +0.110 C 
BRANCH  13  14
ATOM     14  C   LIG    1       26.304 -17.137   3.617  0.00  0.00    +0.216 C 
ATOM     15  N   LIG    1       25.305 -18.067   3.701  0.00  0.00    -0.301 N 
ATOM     16  C   LIG    1       25.589 -19.488   3.871  0.00  0.00    +0.111 C 
ATOM     17  C   LIG    1       24.297 -20.171   3.431  0.00  0.00    +0.011 C 
ATOM     18  C   LIG    1       23.213 -19.147   3.813  0.00  0.00    +0.011 C 
ATOM     19  C   LIG    1       22.776 -19.225   5.279  0.00  0.00    +0.005 C 
ATOM     20  C   LIG    1       22.436 -20.652   5.684  0.00  0.00    +0.000 C 
ATOM     21  C   LIG    1       23.632 -21.571   5.464  0.00  0.00    +0.000 C 
ATOM     22  C   LIG    1       24.076 -21.567   4.004  0.00  0.00    +0.005 C 
ATOM     23  C   LIG    1       23.889 -17.813   3.522  0.00  0.00    +0.111 C 
ATOM     24  O   LIG    1       27.484 -17.485   3.661  0.00  0.00    -0.276 OA
ENDBRANCH  13  14
ENDBRANCH   1  13
TORSDOF 6
ENDMDL
MODEL 5
REMARK VINA RESULT:      -4.2      2.317      7.412
REMARK  Name = *****
REMARK                            x       y       z     vdW  Elec       q    Type
REMARK                         _______ _______ _______ _____ _____    ______ ____
ROOT
ATOM      1  C   LIG    1       24.572 -14.742   4.109  0.00  0.00    +0.111 C 
ENDROOT
BRANCH   1   3
ATOM      2  O   LIG    1       23.902 -12.438   4.482  0.00  0.00    -0.251 OA
ATOM      3  C   LIG    1       24.123 -13.339   3.702  0.00  0.00    +0.309 C 
BRANCH   3   4
ATOM      4  O   LIG    1       23.889 -13.181   2.383  0.00  0.00    -0.480 OA
ATOM      5  H   LIG    1       24.316 -13.857   1.806  0.00  0.00    +0.295 HD
ENDBRANCH   3   4
ENDBRANCH   1   3
BRANCH   1   6
ATOM      6  C   LIG    1       25.699 -14.577   5.176  0.00  0.00    +0.050 C 
BRANCH   6   7
ATOM      7  C   LIG    1       26.889 -13.748   4.743  0.00  0.00    -0.047 A 
ATOM      8  C   LIG    1       27.596 -12.976   5.673  0.00  0.00    +0.003 A 
ATOM      9  C   LIG    1       28.724 -12.252   5.283  0.00  0.00    +0.000 A 
ATOM     10  C   LIG    1       29.145 -12.273   3.955  0.00  0.00    +0.000 A 
ATOM     11  C   LIG    1       28.429 -13.008   3.011  0.00  0.00    +0.000 A 
ATOM     12  C   LIG    1       27.305 -13.740   3.402  0.00  0.00    +0.003 A 
ENDBRANCH   6   7
ENDBRANCH   1   6
BRANCH   1  13
ATOM     13  C   LIG    1       25.016 -15.627   2.929  0.00  0.00    +0.110 C 
BRANCH  13  14
ATOM     14  C   LIG    1       25.754 -16.905   3.324  0.00  0.00    +0.216 C 
ATOM     15  N   LIG    1       25.000 -18.008   3.616  0.00  0.00    -0.301 N 
ATOM     16  C   LIG    1       25.606 -19.263   4.046  0.00  0.00    +0.111 C 
ATOM     17  C   LIG    1       24.517 -20.300   3.786  0.00  0.00    +0.011 C 
ATOM     18  C   LIG    1       23.217 -19.503   3.997  0.00  0.00    +0.011 C 
ATOM     19  C   LIG    1       22.789 -19.395   5.464  0.00  0.00    +0.005 C 
ATOM     20  C   LIG    1       22.786 -20.755   6.145  0.00  0.00    +0.000 C 
ATOM     21  C   LIG    1       24.167 -21.395   6.070  0.00  0.00    +0.000 C 
ATOM     22  C   LIG    1       24.620 -21.571   4.623  0.00  0.00    +0.005 C 
ATOM     23  C   LIG    1       23.566 -18.130   3.435  0.00  0.00    +0.111 C 
ATOM     24  O   LIG    1       26.981 -16.953   3.398  0.00  0.00    -0.276 OA
ENDBRANCH  13  14
ENDBRANCH   1  13
TORSDOF 6
ENDMDL
MODEL 6
REMARK VINA RESULT:      -4.0      2.964      4.165
REMARK  Name = *****
REMARK                            x       y       z     vdW  Elec       q    Type
REMARK                         _______ _______ _______ _____ _____    ______ ____
ROOT
ATOM      1  C   LIG    1       22.897 -18.603   3.682  0.00  0.00    +0.111 C 
ENDROOT
BRANCH   1   3
ATOM      2  O   LIG    1       20.492 -18.432   3.396  0.00  0.00    -0.251 OA
ATOM      3  C   LIG    1       21.444 -19.059   3.809  0.00  0.00    +0.309 C 
BRANCH   3   4
ATOM      4  O   LIG    1       21.267 -20.194   4.515  0.00  0.00    -0.480 OA
ATOM      5  H   LIG    1       20.325 -20.459   4.637  0.00  0.00    +0.295 HD
ENDBRANCH   3   4
ENDBRANCH   1   3
BRANCH   1   6
ATOM      6  C   LIG    1       23.778 -19.887   3.569  0.00  0.00    +0.050 C 
BRANCH   6   7
ATOM      7  C   LIG    1       24.681 -20.163   4.753  0.00  0.00    -0.047 A 
ATOM      8  C   LIG    1       26.058 -19.922   4.670  0.00  0.00    +0.003 A 
ATOM      9  C   LIG    1       26.882 -20.128   5.777  0.00  0.00    +0.000 A 
ATOM     10  C   LIG    1       26.344 -20.598   6.973  0.00  0.00    +0.000 A 
ATOM     11  C   LIG    1       24.981 -20.877   7.058  0.00  0.00    +0.000 A 
ATOM     12  C   LIG    1       24.153 -20.664   5.953  0.00  0.00    +0.003 A 
ENDBRANCH   6   7
ENDBRANCH   1   6
BRANCH   1  13
ATOM     13  C   LIG    1       23.368 -17.676   4.818  0.00  0.00    +0.110 C 
BRANCH  13  14
ATOM     14  C   LIG    1       23.336 -16.185   4.488  0.00  0.00    +0.216 C 
ATOM     15  N   LIG    1       24.449 -15.640   3.909  0.00  0.00    -0.301 N 
ATOM     16  C   LIG    1       24.536 -14.218   3.596  0.00  0.00    +0.111 C 
ATOM     17  C   LIG    1       25.660 -14.141   2.567  0.00  0.00    +0.011 C 
ATOM     18  C   LIG    1       26.586 -15.302   2.973  0.00  0.00    +0.011 C 
ATOM     19  C   LIG    1       27.565 -14.948   4.096  0.00  0.00    +0.005 C 
ATOM     20  C   LIG    1       28.307 -13.653   3.802  0.00  0.00    +0.000 C 
ATOM     21  C   LIG    1       27.323 -12.504   3.611  0.00  0.00    +0.000 C 
ATOM     22  C   LIG    1       26.354 -12.786   2.467  0.00  0.00    +0.005 C 
ATOM     23  C   LIG    1       25.604 -16.374   3.430  0.00  0.00    +0.111 C 
ATOM     24  O   LIG    1       22.359 -15.481   4.742  0.00  0.00    -0.276 OA
ENDBRANCH  13  14
ENDBRANCH   1  13
TORSDOF 6
ENDMDL
MODEL 7
REMARK VINA RESULT:      -3.6      1.386      2.325
REMARK  Name = *****
REMARK                            x       y       z     vdW  Elec       q    Type
REMARK                         _______ _______ _______ _____ _____    ______ ____
ROOT
ATOM      1  C   LIG    1       27.213 -18.519   4.759  0.00  0.00    +0.111 C 
ENDROOT
BRANCH   1   3
ATOM      2  O   LIG    1       28.785 -20.096   5.729  0.00  0.00    -0.251 OA
ATOM      3  C   LIG    1       28.555 -18.973   5.332  0.00  0.00    +0.309 C 
BRANCH   3   4
ATOM      4  O   LIG    1       29.475 -17.996   5.461  0.00  0.00    -0.480 OA
ATOM      5  H   LIG    1       29.270 -17.171   4.961  0.00  0.00    +0.295 HD
ENDBRANCH   3   4
ENDBRANCH   1   3
BRANCH   1   6
ATOM      6  C   LIG    1       26.478 -19.792   4.232  0.00  0.00    +0.050 C 
BRANCH   6   7
ATOM      7  C   LIG    1       25.003 -19.875   4.561  0.00  0.00    -0.047 A 
ATOM      8  C   LIG    1       24.555 -20.650   5.637  0.00  0.00    +0.003 A 
ATOM      9  C   LIG    1       23.200 -20.686   5.971  0.00  0.00    +0.000 A 
ATOM     10  C   LIG    1       22.275 -19.964   5.221  0.00  0.00    +0.000 A 
ATOM     11  C   LIG    1       22.702 -19.217   4.124  0.00  0.00    +0.000 A 
ATOM     12  C   LIG    1       24.059 -19.174   3.794  0.00  0.00    +0.003 A 
ENDBRANCH   6   7
ENDBRANCH   1   6
BRANCH   1  13
ATOM     13  C   LIG    1       27.328 -17.428   3.678  0.00  0.00    +0.110 C 
BRANCH  13  14
ATOM     14  C   LIG    1       27.387 -15.997   4.210  0.00  0.00    +0.216 C 
ATOM     15  N   LIG    1       26.296 -15.199   4.003  0.00  0.00    -0.301 N 
ATOM     16  C   LIG    1       26.270 -13.805   4.432  0.00  0.00    +0.111 C 
ATOM     17  C   LIG    1       24.783 -13.463   4.463  0.00  0.00    +0.011 C 
ATOM     18  C   LIG    1       24.197 -14.348   3.349  0.00  0.00    +0.011 C 
ATOM     19  C   LIG    1       24.325 -13.745   1.947  0.00  0.00    +0.005 C 
ATOM     20  C   LIG    1       23.823 -12.309   1.910  0.00  0.00    +0.000 C 
ATOM     21  C   LIG    1       24.595 -11.447   2.902  0.00  0.00    +0.000 C 
ATOM     22  C   LIG    1       24.458 -11.979   4.326  0.00  0.00    +0.005 C 
ATOM     23  C   LIG    1       25.020 -15.626   3.464  0.00  0.00    +0.111 C 
ATOM     24  O   LIG    1       28.379 -15.558   4.792  0.00  0.00    -0.276 OA
ENDBRANCH  13  14
ENDBRANCH   1  13
TORSDOF 6
ENDMDL
MODEL 8
REMARK VINA RESULT:      -3.6      2.184      3.969
REMARK  Name = *****
REMARK                            x       y       z     vdW  Elec       q    Type
REMARK                         _______ _______ _______ _____ _____    ______ ____
ROOT
ATOM      1  C   LIG    1       24.399 -19.396   4.318  0.00  0.00    +0.111 C 
ENDROOT
BRANCH   1   3
ATOM      2  O   LIG    1       23.935 -21.443   3.096  0.00  0.00    -0.251 OA
ATOM      3  C   LIG    1       24.623 -20.455   3.239  0.00  0.00    +0.309 C 
BRANCH   3   4
ATOM      4  O   LIG    1       25.725 -20.269   2.484  0.00  0.00    -0.480 OA
ATOM      5  H   LIG    1       26.564 -20.574   2.901  0.00  0.00    +0.295 HD
ENDBRANCH   3   4
ENDBRANCH   1   3
BRANCH   1   6
ATOM      6  C   LIG    1       24.719 -20.060   5.694  0.00  0.00    +0.050 C 
BRANCH   6   7
ATOM      7  C   LIG    1       26.187 -20.294   5.978  0.00  0.00    -0.047 A 
ATOM      8  C   LIG    1       26.592 -21.322   6.839  0.00  0.00    +0.003 A 
ATOM      9  C   LIG    1       27.947 -21.570   7.061  0.00  0.00    +0.000 A 
ATOM     10  C   LIG    1       28.914 -20.780   6.442  0.00  0.00    +0.000 A 
ATOM     11  C   LIG    1       28.525 -19.731   5.611  0.00  0.00    +0.000 A 
ATOM     12  C   LIG    1       27.168 -19.486   5.382  0.00  0.00    +0.003 A 
ENDBRANCH   6   7
ENDBRANCH   1   6
BRANCH   1  13
ATOM     13  C   LIG    1       22.996 -18.760   4.294  0.00  0.00    +0.110 C 
BRANCH  13  14
ATOM     14  C   LIG    1       22.969 -17.249   4.516  0.00  0.00    +0.216 C 
ATOM     15  N   LIG    1       24.032 -16.522   4.057  0.00  0.00    -0.301 N 
ATOM     16  C   LIG    1       24.124 -15.080   4.258  0.00  0.00    +0.111 C 
ATOM     17  C   LIG    1       25.142 -14.631   3.214  0.00  0.00    +0.011 C 
ATOM     18  C   LIG    1       26.074 -15.850   3.088  0.00  0.00    +0.011 C 
ATOM     19  C   LIG    1       27.169 -15.905   4.158  0.00  0.00    +0.005 C 
ATOM     20  C   LIG    1       27.909 -14.580   4.266  0.00  0.00    +0.000 C 
ATOM     21  C   LIG    1       26.941 -13.450   4.594  0.00  0.00    +0.000 C 
ATOM     22  C   LIG    1       25.856 -13.320   3.528  0.00  0.00    +0.005 C 
ATOM     23  C   LIG    1       25.116 -17.026   3.235  0.00  0.00    +0.111 C 
ATOM     24  O   LIG    1       22.040 -16.692   5.100  0.00  0.00    -0.276 OA
ENDBRANCH  13  14
ENDBRANCH   1  13
TORSDOF 6
ENDMDL
