MODEL 1
REMARK VINA RESULT:      -0.0      0.000      0.000
REMARK  Name = *****
REMARK                            x       y       z     vdW  Elec       q    Type
REMARK                         _______ _______ _______ _____ _____    ______ ____
ROOT
ATOM      1  C   LIG    1       25.811 -13.822   5.894  0.00  0.00    +0.025 C 
ATOM      2  C   LIG    1       24.873 -13.593   4.693  0.00  0.00    +0.042 C 
ATOM      3  CA  LIG    1       25.676 -13.297   3.398  0.00  0.00    +0.201 C 
ATOM      4  N   LIG    1       25.968 -14.591   2.760  0.00  0.00    -0.271 N 
ATOM      5  C   LIG    1       24.972 -15.664   2.930  0.00  0.00    +0.165 C 
ATOM      6  CA  LIG    1       26.143 -16.651   3.155  0.00  0.00    +0.190 C 
ATOM      7  C   LIG    1       27.005 -15.365   3.212  0.00  0.00    +0.240 C 
ATOM      8  O   LIG    1       28.086 -15.035   3.662  0.00  0.00    -0.273 OA
ATOM      9  S   LIG    1       23.974 -15.193   4.393  0.00  0.00    -0.127 S 
ATOM     10  C   LIG    1       23.857 -12.518   5.101  0.00  0.00    +0.025 C 
ENDROOT
BRANCH   6  11
ATOM     11  N   LIG    1       26.090 -17.473   4.395  0.00  0.00    -0.301 N 
ATOM     12  H   LIG    1       26.106 -17.016   5.303  0.00  0.00    +0.150 HD
ATOM     13  C   LIG    1       26.045 -18.848   4.338  0.00  0.00    +0.232 C 
ATOM     14  O   LIG    1       26.048 -19.445   3.259  0.00  0.00    -0.275 OA
BRANCH  13  15
ATOM     15  C   LIG    1       26.003 -19.579   5.678  0.00  0.00    +0.213 C 
BRANCH  15  16
ATOM     16  C   LIG    1       24.706 -20.362   5.798  0.00  0.00    -0.018 A 
ATOM     17  C   LIG    1       23.876 -20.682   4.735  0.00  0.00    +0.050 A 
ATOM     18  S   LIG    1       22.487 -21.555   5.211  0.00  0.00    -0.105 S 
ATOM     19  C   LIG    1       22.970 -21.537   6.848  0.00  0.00    +0.045 A 
ATOM     20  C   LIG    1       24.163 -20.872   7.028  0.00  0.00    +0.012 A 
ENDBRANCH  15  16
BRANCH  15  21
ATOM     21  C   LIG    1       27.203 -20.481   5.965  0.00  0.00    +0.321 C 
ATOM     22  O   LIG    1       27.198 -21.326   6.856  0.00  0.00    -0.250 OA
BRANCH  21  23
ATOM     23  O   LIG    1       28.303 -20.315   5.196  0.00  0.00    -0.480 OA
ATOM     24  H   LIG    1       29.039 -20.952   5.377  0.00  0.00    +0.295 HD
ENDBRANCH  21  23
ENDBRANCH  15  21
ENDBRANCH  13  15
ENDBRANCH   6  11
BRANCH   3  25
ATOM     25  C   LIG    1       24.954 -12.399   2.378  0.00  0.00    +0.327 C 
ATOM     26  O   LIG    1       25.471 -11.447   1.812  0.00  0.00    -0.249 OA
BRANCH  25  27
ATOM     27  OXT LIG    1       23.667 -12.747   2.135  0.00  0.00    -0.479 OA
ATOM     28  HXT LIG    1       23.354 -13.414   2.775  0.00  0.00    +0.295 HD
ENDBRANCH  25  27
ENDBRANCH   3  25
TORSDOF 7
ENDMDL
MODEL 2
REMARK VINA RESULT:       1.3      1.746      2.127
REMARK  Name = *****
REMARK                            x       y       z     vdW  Elec       q    Type
REMARK                         _______ _______ _______ _____ _____    ______ ____
ROOT
ATOM      1  C   LIG    1       25.898 -14.210   6.132  0.00  0.00    +0.025 C 
ATOM      2  C   LIG    1       25.610 -13.565   4.763  0.00  0.00    +0.042 C 
ATOM      3  CA  LIG    1       26.860 -13.608   3.843  0.00  0.00    +0.201 C 
ATOM      4  N   LIG    1       26.819 -14.883   3.109  0.00  0.00    -0.271 N 
ATOM      5  C   LIG    1       25.489 -15.426   2.780  0.00  0.00    +0.165 C 
ATOM      6  CA  LIG    1       26.016 -16.828   3.174  0.00  0.00    +0.190 C 
ATOM      7  C   LIG    1       27.237 -16.040   3.712  0.00  0.00    +0.240 C 
ATOM      8  O   LIG    1       28.130 -16.221   4.519  0.00  0.00    -0.273 OA
ATOM      9  S   LIG    1       24.317 -14.613   3.930  0.00  0.00    -0.127 S 
ATOM     10  C   LIG    1       25.029 -12.169   5.025  0.00  0.00    +0.025 C 
ENDROOT
BRANCH   6  11
ATOM     11  N   LIG    1       25.215 -17.581   4.177  0.00  0.00    -0.301 N 
ATOM     12  H   LIG    1       24.848 -17.099   4.993  0.00  0.00    +0.150 HD
ATOM     13  C   LIG    1       24.979 -18.930   4.034  0.00  0.00    +0.232 C 
ATOM     14  O   LIG    1       25.423 -19.560   3.071  0.00  0.00    -0.275 OA
BRANCH  13  15
ATOM     15  C   LIG    1       24.152 -19.592   5.133  0.00  0.00    +0.213 C 
BRANCH  15  16
ATOM     16  C   LIG    1       22.712 -19.749   4.672  0.00  0.00    -0.018 A 
ATOM     17  C   LIG    1       21.967 -18.755   4.058  0.00  0.00    +0.050 A 
ATOM     18  S   LIG    1       20.376 -19.249   3.678  0.00  0.00    -0.105 S 
ATOM     19  C   LIG    1       20.651 -20.809   4.315  0.00  0.00    +0.045 A 
ATOM     20  C   LIG    1       21.928 -20.947   4.813  0.00  0.00    +0.012 A 
ENDBRANCH  15  16
BRANCH  15  21
ATOM     21  C   LIG    1       24.699 -20.923   5.647  0.00  0.00    +0.321 C 
ATOM     22  O   LIG    1       24.363 -21.405   6.725  0.00  0.00    -0.250 OA
BRANCH  21  23
ATOM     23  O   LIG    1       25.591 -21.572   4.865  0.00  0.00    -0.480 OA
ATOM     24  H   LIG    1       25.245 -22.390   4.428  0.00  0.00    +0.295 HD
ENDBRANCH  21  23
ENDBRANCH  15  21
ENDBRANCH  13  15
ENDBRANCH   6  11
BRANCH   3  25
ATOM     25  C   LIG    1       26.956 -12.458   2.826  0.00  0.00    +0.327 C 
ATOM     26  O   LIG    1       26.035 -12.091   2.112  0.00  0.00    -0.249 OA
BRANCH  25  27
ATOM     27  OXT LIG    1       28.168 -11.852   2.775  0.00  0.00    -0.479 OA
ATOM     28  HXT LIG    1       28.466 -11.732   1.853  0.00  0.00    +0.295 HD
ENDBRANCH  25  27
ENDBRANCH   3  25
TORSDOF 7
ENDMDL
MODEL 3
REMARK VINA RESULT:       2.4      1.741      2.219
REMARK  Name = *****
REMARK                            x       y       z     vdW  Elec       q    Type
REMARK                         _______ _______ _______ _____ _____    ______ ____
ROOT
ATOM      1  C   LIG    1       24.123 -14.441   5.183  0.00  0.00    +0.025 C 
ATOM      2  C   LIG    1       24.461 -14.079   3.724  0.00  0.00    +0.042 C 
ATOM      3  CA  LIG    1       25.601 -13.028   3.651  0.00  0.00    +0.201 C 
ATOM      4  N   LIG    1       26.874 -13.765   3.629  0.00  0.00    -0.271 N 
ATOM      5  C   LIG    1       26.876 -15.084   2.972  0.00  0.00    +0.165 C 
ATOM      6  CA  LIG    1       27.750 -15.611   4.137  0.00  0.00    +0.190 C 
ATOM      7  C   LIG    1       27.411 -14.250   4.793  0.00  0.00    +0.240 C 
ATOM      8  O   LIG    1       27.389 -13.782   5.917  0.00  0.00    -0.273 OA
ATOM      9  S   LIG    1       25.125 -15.621   2.923  0.00  0.00    -0.127 S 
ATOM     10  C   LIG    1       23.150 -13.683   3.033  0.00  0.00    +0.025 C 
ENDROOT
BRANCH   6  11
ATOM     11  N   LIG    1       27.259 -16.829   4.837  0.00  0.00    -0.301 N 
ATOM     12  H   LIG    1       26.336 -16.827   5.264  0.00  0.00    +0.150 HD
ATOM     13  C   LIG    1       28.042 -17.957   4.942  0.00  0.00    +0.232 C 
ATOM     14  O   LIG    1       29.176 -17.996   4.459  0.00  0.00    -0.275 OA
BRANCH  13  15
ATOM     15  C   LIG    1       27.431 -19.138   5.692  0.00  0.00    +0.213 C 
BRANCH  15  16
ATOM     16  C   LIG    1       26.259 -19.699   4.903  0.00  0.00    -0.018 A 
ATOM     17  C   LIG    1       25.516 -20.808   5.276  0.00  0.00    +0.050 A 
ATOM     18  S   LIG    1       24.277 -21.187   4.162  0.00  0.00    -0.105 S 
ATOM     19  C   LIG    1       24.698 -19.870   3.162  0.00  0.00    +0.045 A 
ATOM     20  C   LIG    1       25.766 -19.159   3.664  0.00  0.00    +0.012 A 
ENDBRANCH  15  16
BRANCH  15  21
ATOM     21  C   LIG    1       28.411 -20.250   6.064  0.00  0.00    +0.321 C 
ATOM     22  O   LIG    1       28.268 -20.950   7.062  0.00  0.00    -0.250 OA
BRANCH  21  23
ATOM     23  O   LIG    1       29.469 -20.445   5.245  0.00  0.00    -0.480 OA
ATOM     24  H   LIG    1       29.556 -19.785   4.512  0.00  0.00    +0.295 HD
ENDBRANCH  21  23
ENDBRANCH  15  21
ENDBRANCH  13  15
ENDBRANCH   6  11
BRANCH   3  25
ATOM     25  C   LIG    1       25.549 -12.100   2.425  0.00  0.00    +0.327 C 
ATOM     26  O   LIG    1       24.519 -11.663   1.934  0.00  0.00    -0.249 OA
BRANCH  25  27
ATOM     27  OXT LIG    1       26.762 -11.781   1.910  0.00  0.00    -0.479 OA
ATOM     28  HXT LIG    1       26.873 -10.813   1.838  0.00  0.00    +0.295 HD
ENDBRANCH  25  27
ENDBRANCH   3  25
TORSDOF 7
ENDMDL
