MODEL 1
REMARK VINA RESULT:      -7.1      0.000      0.000
REMARK  Name = *****
REMARK                            x       y       z     vdW  Elec       q    Type
REMARK                         _______ _______ _______ _____ _____    ______ ____
ROOT
ATOM      1  O   LIG    1       24.752 -20.742   6.949  0.00  0.00    -0.454 OA
ENDROOT
BRANCH   1   2
ATOM      2  C   LIG    1       24.057 -21.709   6.108  0.00  0.00    +0.123 C 
ATOM      3  C   LIG    1       23.009 -22.359   7.030  0.00  0.00    +0.057 C 
BRANCH   2   5
ATOM      4  C   LIG    1       22.623 -19.674   5.353  0.00  0.00    +0.008 C 
ATOM      5  C   LIG    1       23.331 -20.967   4.948  0.00  0.00    +0.045 C 
ENDBRANCH   2   5
BRANCH   2   6
ATOM      6  C   LIG    1       25.001 -22.833   5.516  0.00  0.00    +0.131 C 
BRANCH   6   7
ATOM      7  N   LIG    1       24.847 -24.241   5.982  0.00  0.00    -0.305 NA
ATOM      8  C   LIG    1       25.862 -24.604   6.970  0.00  0.00    +0.104 C 
ATOM      9  C   LIG    1       24.965 -25.165   4.843  0.00  0.00    +0.104 C 
ENDBRANCH   6   7
ENDBRANCH   2   6
ENDBRANCH   1   2
BRANCH   1  10
ATOM     10  C   LIG    1       25.666 -21.131   7.874  0.00  0.00    +0.340 C 
ATOM     11  O   LIG    1       25.450 -21.528   8.999  0.00  0.00    -0.245 OA
BRANCH  10  12
ATOM     12  C   LIG    1       27.025 -20.822   7.347  0.00  0.00    +0.059 A 
ATOM     13  C   LIG    1       28.136 -21.282   8.068  0.00  0.00    +0.015 A 
ATOM     14  C   LIG    1       29.423 -20.891   7.694  0.00  0.00    +0.001 A 
ATOM     15  C   LIG    1       29.607 -20.057   6.591  0.00  0.00    +0.000 A 
ATOM     16  C   LIG    1       28.508 -19.636   5.842  0.00  0.00    +0.001 A 
ATOM     17  C   LIG    1       27.218 -20.021   6.213  0.00  0.00    +0.015 A 
ENDBRANCH  10  12
ENDBRANCH   1  10
TORSDOF 6
ENDMDL
MODEL 2
REMARK VINA RESULT:      -7.1      1.932      4.871
REMARK  Name = *****
REMARK                            x       y       z     vdW  Elec       q    Type
REMARK                         _______ _______ _______ _____ _____    ______ ____
ROOT
ATOM      1  O   LIG    1       24.534 -22.832   7.214  0.00  0.00    -0.454 OA
ENDROOT
BRANCH   1   2
ATOM      2  C   LIG    1       24.622 -21.517   6.592  0.00  0.00    +0.123 C 
ATOM      3  C   LIG    1       24.732 -21.797   5.082  0.00  0.00    +0.057 C 
BRANCH   2   5
ATOM      4  C   LIG    1       22.694 -20.048   5.647  0.00  0.00    +0.008 C 
ATOM      5  C   LIG    1       23.317 -20.717   6.873  0.00  0.00    +0.045 C 
ENDBRANCH   2   5
BRANCH   2   6
ATOM      6  C   LIG    1       25.877 -20.674   7.059  0.00  0.00    +0.131 C 
BRANCH   6   7
ATOM      7  N   LIG    1       27.243 -21.096   6.637  0.00  0.00    -0.305 NA
ATOM      8  C   LIG    1       28.082 -21.456   7.780  0.00  0.00    +0.104 C 
ATOM      9  C   LIG    1       27.906 -20.003   5.908  0.00  0.00    +0.104 C 
ENDBRANCH   6   7
ENDBRANCH   2   6
ENDBRANCH   1   2
BRANCH   1  10
ATOM     10  C   LIG    1       23.697 -23.789   6.741  0.00  0.00    +0.340 C 
ATOM     11  O   LIG    1       22.485 -23.790   6.782  0.00  0.00    -0.245 OA
BRANCH  10  12
ATOM     12  C   LIG    1       24.516 -24.956   6.307  0.00  0.00    +0.059 A 
ATOM     13  C   LIG    1       23.859 -26.043   5.714  0.00  0.00    +0.015 A 
ATOM     14  C   LIG    1       24.563 -27.215   5.430  0.00  0.00    +0.001 A 
ATOM     15  C   LIG    1       25.925 -27.299   5.718  0.00  0.00    +0.000 A 
ATOM     16  C   LIG    1       26.593 -26.202   6.264  0.00  0.00    +0.001 A 
ATOM     17  C   LIG    1       25.893 -25.029   6.554  0.00  0.00    +0.015 A 
ENDBRANCH  10  12
ENDBRANCH   1  10
TORSDOF 6
ENDMDL
MODEL 3
REMARK VINA RESULT:      -7.0      1.309      1.534
REMARK  Name = *****
REMARK                            x       y       z     vdW  Elec       q    Type
REMARK                         _______ _______ _______ _____ _____    ______ ____
ROOT
ATOM      1  O   LIG    1       25.893 -20.315   6.818  0.00  0.00    -0.454 OA
ENDROOT
BRANCH   1   2
ATOM      2  C   LIG    1       24.927 -21.344   6.453  0.00  0.00    +0.123 C 
ATOM      3  C   LIG    1       23.610 -20.910   7.123  0.00  0.00    +0.057 C 
BRANCH   2   5
ATOM      4  C   LIG    1       25.274 -20.126   4.181  0.00  0.00    +0.008 C 
ATOM      5  C   LIG    1       24.738 -21.360   4.908  0.00  0.00    +0.045 C 
ENDBRANCH   2   5
BRANCH   2   6
ATOM      6  C   LIG    1       25.317 -22.791   6.959  0.00  0.00    +0.131 C 
BRANCH   6   7
ATOM      7  N   LIG    1       24.931 -23.982   6.149  0.00  0.00    -0.305 NA
ATOM      8  C   LIG    1       23.627 -24.513   6.546  0.00  0.00    +0.104 C 
ATOM      9  C   LIG    1       25.930 -25.050   6.313  0.00  0.00    +0.104 C 
ENDBRANCH   6   7
ENDBRANCH   2   6
ENDBRANCH   1   2
BRANCH   1  10
ATOM     10  C   LIG    1       26.773 -20.493   7.836  0.00  0.00    +0.340 C 
ATOM     11  O   LIG    1       26.516 -20.741   8.994  0.00  0.00    -0.245 OA
BRANCH  10  12
ATOM     12  C   LIG    1       28.137 -20.157   7.339  0.00  0.00    +0.059 A 
ATOM     13  C   LIG    1       29.238 -20.529   8.123  0.00  0.00    +0.015 A 
ATOM     14  C   LIG    1       30.521 -20.106   7.772  0.00  0.00    +0.001 A 
ATOM     15  C   LIG    1       30.712 -19.326   6.631  0.00  0.00    +0.000 A 
ATOM     16  C   LIG    1       29.625 -18.993   5.822  0.00  0.00    +0.001 A 
ATOM     17  C   LIG    1       28.338 -19.412   6.170  0.00  0.00    +0.015 A 
ENDBRANCH  10  12
ENDBRANCH   1  10
TORSDOF 6
ENDMDL
MODEL 4
REMARK VINA RESULT:      -6.8      1.872      4.275
REMARK  Name = *****
REMARK                            x       y       z     vdW  Elec       q    Type
REMARK                         _______ _______ _______ _____ _____    ______ ____
ROOT
ATOM      1  O   LIG    1       25.132 -22.199   5.864  0.00  0.00    -0.454 OA
ENDROOT
BRANCH   1   2
ATOM      2  C   LIG    1       25.841 -22.644   7.057  0.00  0.00    +0.123 C 
ATOM      3  C   LIG    1       27.287 -22.149   6.869  0.00  0.00    +0.057 C 
BRANCH   2   5
ATOM      4  C   LIG    1       25.889 -20.654   8.732  0.00  0.00    +0.008 C 
ATOM      5  C   LIG    1       25.225 -21.967   8.316  0.00  0.00    +0.045 C 
ENDBRANCH   2   5
BRANCH   2   6
ATOM      6  C   LIG    1       25.848 -24.215   7.244  0.00  0.00    +0.131 C 
BRANCH   6   7
ATOM      7  N   LIG    1       25.532 -25.094   6.081  0.00  0.00    -0.305 NA
ATOM      8  C   LIG    1       24.166 -25.612   6.143  0.00  0.00    +0.104 C 
ATOM      9  C   LIG    1       26.456 -26.240   6.049  0.00  0.00    +0.104 C 
ENDBRANCH   6   7
ENDBRANCH   2   6
ENDBRANCH   1   2
BRANCH   1  10
ATOM     10  C   LIG    1       23.830 -21.816   5.911  0.00  0.00    +0.340 C 
ATOM     11  O   LIG    1       22.888 -22.465   6.314  0.00  0.00    -0.245 OA
BRANCH  10  12
ATOM     12  C   LIG    1       23.701 -20.508   5.211  0.00  0.00    +0.059 A 
ATOM     13  C   LIG    1       22.511 -19.784   5.372  0.00  0.00    +0.015 A 
ATOM     14  C   LIG    1       22.288 -18.629   4.620  0.00  0.00    +0.001 A 
ATOM     15  C   LIG    1       23.256 -18.183   3.720  0.00  0.00    +0.000 A 
ATOM     16  C   LIG    1       24.461 -18.874   3.591  0.00  0.00    +0.001 A 
ATOM     17  C   LIG    1       24.689 -20.032   4.339  0.00  0.00    +0.015 A 
ENDBRANCH  10  12
ENDBRANCH   1  10
TORSDOF 6
ENDMDL
MODEL 5
REMARK VINA RESULT:      -6.8      2.007      5.006
REMARK  Name = *****
REMARK                            x       y       z     vdW  Elec       q    Type
REMARK                         _______ _______ _______ _____ _____    ______ ____
ROOT
ATOM      1  O   LIG    1       24.557 -22.716   7.591  0.00  0.00    -0.454 OA
ENDROOT
BRANCH   1   2
ATOM      2  C   LIG    1       24.826 -21.333   7.216  0.00  0.00    +0.123 C 
ATOM      3  C   LIG    1       23.462 -20.623   7.311  0.00  0.00    +0.057 C 
BRANCH   2   5
ATOM      4  C   LIG    1       27.222 -20.446   7.706  0.00  0.00    +0.008 C 
ATOM      5  C   LIG    1       25.810 -20.696   8.239  0.00  0.00    +0.045 C 
ENDBRANCH   2   5
BRANCH   2   6
ATOM      6  C   LIG    1       25.397 -21.171   5.750  0.00  0.00    +0.131 C 
BRANCH   6   7
ATOM      7  N   LIG    1       24.618 -20.400   4.739  0.00  0.00    -0.305 NA
ATOM      8  C   LIG    1       23.983 -21.275   3.754  0.00  0.00    +0.104 C 
ATOM      9  C   LIG    1       25.504 -19.470   4.021  0.00  0.00    +0.104 C 
ENDBRANCH   6   7
ENDBRANCH   2   6
ENDBRANCH   1   2
BRANCH   1  10
ATOM     10  C   LIG    1       23.735 -23.507   6.855  0.00  0.00    +0.340 C 
ATOM     11  O   LIG    1       22.543 -23.369   6.684  0.00  0.00    -0.245 OA
BRANCH  10  12
ATOM     12  C   LIG    1       24.506 -24.704   6.418  0.00  0.00    +0.059 A 
ATOM     13  C   LIG    1       23.801 -25.774   5.848  0.00  0.00    +0.015 A 
ATOM     14  C   LIG    1       24.459 -26.972   5.561  0.00  0.00    +0.001 A 
ATOM     15  C   LIG    1       25.823 -27.100   5.825  0.00  0.00    +0.000 A 
ATOM     16  C   LIG    1       26.538 -26.022   6.348  0.00  0.00    +0.001 A 
ATOM     17  C   LIG    1       25.884 -24.822   6.640  0.00  0.00    +0.015 A 
ENDBRANCH  10  12
ENDBRANCH   1  10
TORSDOF 6
ENDMDL
MODEL 6
REMARK VINA RESULT:      -6.8      2.969      5.987
REMARK  Name = *****
REMARK                            x       y       z     vdW  Elec       q    Type
REMARK                         _______ _______ _______ _____ _____    ______ ____
ROOT
ATOM      1  O   LIG    1       27.585 -20.228   8.011  0.00  0.00    -0.454 OA
ENDROOT
BRANCH   1   2
ATOM      2  C   LIG    1       28.985 -19.929   7.733  0.00  0.00    +0.123 C 
ATOM      3  C   LIG    1       29.768 -21.126   8.302  0.00  0.00    +0.057 C 
BRANCH   2   5
ATOM      4  C   LIG    1       29.271 -18.437   5.621  0.00  0.00    +0.008 C 
ATOM      5  C   LIG    1       29.207 -19.853   6.194  0.00  0.00    +0.045 C 
ENDBRANCH   2   5
BRANCH   2   6
ATOM      6  C   LIG    1       29.498 -18.597   8.414  0.00  0.00    +0.131 C 
BRANCH   6   7
ATOM      7  N   LIG    1       30.632 -18.657   9.381  0.00  0.00    -0.305 NA
ATOM      8  C   LIG    1       30.400 -17.808  10.549  0.00  0.00    +0.104 C 
ATOM      9  C   LIG    1       31.875 -18.211   8.729  0.00  0.00    +0.104 C 
ENDBRANCH   6   7
ENDBRANCH   2   6
ENDBRANCH   1   2
BRANCH   1  10
ATOM     10  C   LIG    1       26.962 -21.299   7.457  0.00  0.00    +0.340 C 
ATOM     11  O   LIG    1       27.385 -22.432   7.372  0.00  0.00    -0.245 OA
BRANCH  10  12
ATOM     12  C   LIG    1       25.716 -20.825   6.793  0.00  0.00    +0.059 A 
ATOM     13  C   LIG    1       24.519 -20.869   7.522  0.00  0.00    +0.015 A 
ATOM     14  C   LIG    1       23.307 -20.575   6.894  0.00  0.00    +0.001 A 
ATOM     15  C   LIG    1       23.287 -20.221   5.545  0.00  0.00    +0.000 A 
ATOM     16  C   LIG    1       24.480 -20.130   4.828  0.00  0.00    +0.001 A 
ATOM     17  C   LIG    1       25.696 -20.425   5.451  0.00  0.00    +0.015 A 
ENDBRANCH  10  12
ENDBRANCH   1  10
TORSDOF 6
ENDMDL
MODEL 7
REMARK VINA RESULT:      -6.7      1.869      4.997
REMARK  Name = *****
REMARK                            x       y       z     vdW  Elec       q    Type
REMARK                         _______ _______ _______ _____ _____    ______ ____
ROOT
ATOM      1  O   LIG    1       25.286 -21.974   5.955  0.00  0.00    -0.454 OA
ENDROOT
BRANCH   1   2
ATOM      2  C   LIG    1       26.028 -22.029   7.209  0.00  0.00    +0.123 C 
ATOM      3  C   LIG    1       25.308 -21.038   8.141  0.00  0.00    +0.057 C 
BRANCH   2   5
ATOM      4  C   LIG    1       25.912 -24.592   6.780  0.00  0.00    +0.008 C 
ATOM      5  C   LIG    1       25.933 -23.462   7.809  0.00  0.00    +0.045 C 
ENDBRANCH   2   5
BRANCH   2   6
ATOM      6  C   LIG    1       27.546 -21.607   7.069  0.00  0.00    +0.131 C 
BRANCH   6   7
ATOM      7  N   LIG    1       27.901 -20.161   6.989  0.00  0.00    -0.305 NA
ATOM      8  C   LIG    1       28.119 -19.726   5.610  0.00  0.00    +0.104 C 
ATOM      9  C   LIG    1       29.134 -19.901   7.752  0.00  0.00    +0.104 C 
ENDBRANCH   6   7
ENDBRANCH   2   6
ENDBRANCH   1   2
BRANCH   1  10
ATOM     10  C   LIG    1       23.940 -21.801   5.931  0.00  0.00    +0.340 C 
ATOM     11  O   LIG    1       23.095 -22.556   6.363  0.00  0.00    -0.245 OA
BRANCH  10  12
ATOM     12  C   LIG    1       23.637 -20.593   5.114  0.00  0.00    +0.059 A 
ATOM     13  C   LIG    1       24.616 -20.134   4.222  0.00  0.00    +0.015 A 
ATOM     14  C   LIG    1       24.435 -18.924   3.548  0.00  0.00    +0.001 A 
ATOM     15  C   LIG    1       23.272 -18.180   3.747  0.00  0.00    +0.000 A 
ATOM     16  C   LIG    1       22.275 -18.657   4.598  0.00  0.00    +0.001 A 
ATOM     17  C   LIG    1       22.451 -19.864   5.278  0.00  0.00    +0.015 A 
ENDBRANCH  10  12
ENDBRANCH   1  10
TORSDOF 6
ENDMDL
MODEL 8
REMARK VINA RESULT:      -6.7      1.499      2.813
REMARK  Name = *****
REMARK                            x       y       z     vdW  Elec       q    Type
REMARK                         _______ _______ _______ _____ _____    ______ ____
ROOT
ATOM      1  O   LIG    1       25.358 -20.874   7.215  0.00  0.00    -0.454 OA
ENDROOT
BRANCH   1   2
ATOM      2  C   LIG    1       24.596 -21.865   6.464  0.00  0.00    +0.123 C 
ATOM      3  C   LIG    1       25.533 -23.081   6.345  0.00  0.00    +0.057 C 
BRANCH   2   5
ATOM      4  C   LIG    1       22.616 -23.525   6.764  0.00  0.00    +0.008 C 
ATOM      5  C   LIG    1       23.328 -22.269   7.270  0.00  0.00    +0.045 C 
ENDBRANCH   2   5
BRANCH   2   6
ATOM      6  C   LIG    1       24.179 -21.383   5.016  0.00  0.00    +0.131 C 
BRANCH   6   7
ATOM      7  N   LIG    1       24.164 -19.926   4.703  0.00  0.00    -0.305 NA
ATOM      8  C   LIG    1       22.804 -19.419   4.525  0.00  0.00    +0.104 C 
ATOM      9  C   LIG    1       24.915 -19.668   3.463  0.00  0.00    +0.104 C 
ENDBRANCH   6   7
ENDBRANCH   2   6
ENDBRANCH   1   2
BRANCH   1  10
ATOM     10  C   LIG    1       26.410 -21.227   7.996  0.00  0.00    +0.340 C 
ATOM     11  O   LIG    1       26.371 -21.762   9.084  0.00  0.00    -0.245 OA
BRANCH  10  12
ATOM     12  C   LIG    1       27.654 -20.686   7.380  0.00  0.00    +0.059 A 
ATOM     13  C   LIG    1       28.863 -20.858   8.067  0.00  0.00    +0.015 A 
ATOM     14  C   LIG    1       30.026 -20.240   7.602  0.00  0.00    +0.001 A 
ATOM     15  C   LIG    1       29.990 -19.466   6.442  0.00  0.00    +0.000 A 
ATOM     16  C   LIG    1       28.798 -19.331   5.729  0.00  0.00    +0.001 A 
ATOM     17  C   LIG    1       27.631 -19.945   6.191  0.00  0.00    +0.015 A 
ENDBRANCH  10  12
ENDBRANCH   1  10
TORSDOF 6
ENDMDL
MODEL 9
REMARK VINA RESULT:      -6.7      1.882      5.009
REMARK  Name = *****
REMARK                            x       y       z     vdW  Elec       q    Type
REMARK                         _______ _______ _______ _____ _____    ______ ____
ROOT
ATOM      1  O   LIG    1       25.345 -21.998   5.978  0.00  0.00    -0.454 OA
ENDROOT
BRANCH   1   2
ATOM      2  C   LIG    1       26.096 -22.022   7.228  0.00  0.00    +0.123 C 
ATOM      3  C   LIG    1       25.405 -20.979   8.127  0.00  0.00    +0.057 C 
BRANCH   2   5
ATOM      4  C   LIG    1       25.900 -24.595   6.898  0.00  0.00    +0.008 C 
ATOM      5  C   LIG    1       25.974 -23.428   7.884  0.00  0.00    +0.045 C 
ENDBRANCH   2   5
BRANCH   2   6
ATOM      6  C   LIG    1       27.622 -21.638   7.061  0.00  0.00    +0.131 C 
BRANCH   6   7
ATOM      7  N   LIG    1       28.019 -20.202   7.034  0.00  0.00    -0.305 NA
ATOM      8  C   LIG    1       28.214 -19.714   5.669  0.00  0.00    +0.104 C 
ATOM      9  C   LIG    1       29.278 -20.012   7.774  0.00  0.00    +0.104 C 
ENDBRANCH   6   7
ENDBRANCH   2   6
ENDBRANCH   1   2
BRANCH   1  10
ATOM     10  C   LIG    1       24.011 -21.748   5.953  0.00  0.00    +0.340 C 
ATOM     11  O   LIG    1       23.120 -22.484   6.319  0.00  0.00    -0.245 OA
BRANCH  10  12
ATOM     12  C   LIG    1       23.788 -20.468   5.226  0.00  0.00    +0.059 A 
ATOM     13  C   LIG    1       22.560 -19.813   5.398  0.00  0.00    +0.015 A 
ATOM     14  C   LIG    1       22.250 -18.693   4.624  0.00  0.00    +0.001 A 
ATOM     15  C   LIG    1       23.169 -18.212   3.691  0.00  0.00    +0.000 A 
ATOM     16  C   LIG    1       24.411 -18.832   3.550  0.00  0.00    +0.001 A 
ATOM     17  C   LIG    1       24.725 -19.955   4.320  0.00  0.00    +0.015 A 
ENDBRANCH  10  12
ENDBRANCH   1  10
TORSDOF 6
ENDMDL
