MODEL 1
REMARK VINA RESULT:      -5.3      0.000      0.000
REMARK  Name = *****
REMARK                            x       y       z     vdW  Elec       q    Type
REMARK                         _______ _______ _______ _____ _____    ______ ____
ROOT
ATOM      1  C   LIG    1       24.498 -21.347   6.738  0.00  0.00    +0.218 C 
ATOM      2  C   LIG    1       23.210 -20.541   6.543  0.00  0.00    +0.058 C 
ENDROOT
BRANCH   1   3
ATOM      3  O   LIG    1       25.563 -20.400   6.998  0.00  0.00    -0.456 OA
BRANCH   3   5
ATOM      4  C   LIG    1       27.770 -20.377   7.794  0.00  0.00    +0.136 C 
ATOM      5  C   LIG    1       26.324 -20.542   8.112  0.00  0.00    +0.304 C 
ATOM      6  O   LIG    1       25.883 -20.779   9.233  0.00  0.00    -0.251 OA
ENDBRANCH   3   5
ENDBRANCH   1   3
BRANCH   1   7
ATOM      7  C   LIG    1       24.734 -22.384   5.602  0.00  0.00    +0.177 C 
BRANCH   7   8
ATOM      8  N   LIG    1       24.802 -23.877   6.061  0.00  0.00    +0.239 N 
ATOM      9  C   LIG    1       23.444 -24.237   6.676  0.00  0.00    +0.192 C 
ATOM     10  C   LIG    1       25.882 -24.077   7.111  0.00  0.00    +0.192 C 
ATOM     11  C   LIG    1       25.035 -24.847   4.911  0.00  0.00    +0.192 C 
ENDBRANCH   7   8
ENDBRANCH   1   7
TORSDOF 4
ENDMDL
MODEL 2
REMARK VINA RESULT:      -4.8      2.064      3.187
REMARK  Name = *****
REMARK                            x       y       z     vdW  Elec       q    Type
REMARK                         _______ _______ _______ _____ _____    ______ ____
ROOT
ATOM      1  C   LIG    1       23.912 -21.849   6.793  0.00  0.00    +0.218 C 
ATOM      2  C   LIG    1       22.965 -23.052   6.800  0.00  0.00    +0.058 C 
ENDROOT
BRANCH   1   3
ATOM      3  O   LIG    1       24.280 -21.583   8.169  0.00  0.00    -0.456 OA
BRANCH   3   5
ATOM      4  C   LIG    1       26.453 -22.339   7.710  0.00  0.00    +0.136 C 
ATOM      5  C   LIG    1       25.587 -21.411   8.489  0.00  0.00    +0.304 C 
ATOM      6  O   LIG    1       26.003 -20.600   9.312  0.00  0.00    -0.251 OA
ENDBRANCH   3   5
ENDBRANCH   1   3
BRANCH   1   7
ATOM      7  C   LIG    1       23.358 -20.654   5.965  0.00  0.00    +0.177 C 
BRANCH   7   8
ATOM      8  N   LIG    1       24.154 -20.315   4.662  0.00  0.00    +0.239 N 
ATOM      9  C   LIG    1       24.019 -21.511   3.710  0.00  0.00    +0.192 C 
ATOM     10  C   LIG    1       25.627 -20.095   4.964  0.00  0.00    +0.192 C 
ATOM     11  C   LIG    1       23.606 -19.102   3.924  0.00  0.00    +0.192 C 
ENDBRANCH   7   8
ENDBRANCH   1   7
TORSDOF 4
ENDMDL
MODEL 3
REMARK VINA RESULT:      -4.8      3.345      4.987
REMARK  Name = *****
REMARK                            x       y       z     vdW  Elec       q    Type
REMARK                         _______ _______ _______ _____ _____    ______ ____
ROOT
ATOM      1  C   LIG    1       29.316 -20.032   7.663  0.00  0.00    +0.218 C 
ATOM      2  C   LIG    1       30.164 -19.432   6.537  0.00  0.00    +0.058 C 
ENDROOT
BRANCH   1   3
ATOM      3  O   LIG    1       30.171 -20.158   8.825  0.00  0.00    -0.456 OA
BRANCH   3   5
ATOM      4  C   LIG    1       30.157 -17.900   9.461  0.00  0.00    +0.136 C 
ATOM      5  C   LIG    1       30.966 -19.119   9.185  0.00  0.00    +0.304 C 
ATOM      6  O   LIG    1       32.190 -19.173   9.269  0.00  0.00    -0.251 OA
ENDBRANCH   3   5
ENDBRANCH   1   3
BRANCH   1   7
ATOM      7  C   LIG    1       28.538 -21.303   7.214  0.00  0.00    +0.177 C 
BRANCH   7   8
ATOM      8  N   LIG    1       26.983 -21.149   7.151  0.00  0.00    +0.239 N 
ATOM      9  C   LIG    1       26.379 -22.557   7.087  0.00  0.00    +0.192 C 
ATOM     10  C   LIG    1       26.560 -20.379   5.912  0.00  0.00    +0.192 C 
ATOM     11  C   LIG    1       26.398 -20.475   8.385  0.00  0.00    +0.192 C 
ENDBRANCH   7   8
ENDBRANCH   1   7
TORSDOF 4
ENDMDL
MODEL 4
REMARK VINA RESULT:      -4.6      2.977      4.887
REMARK  Name = *****
REMARK                            x       y       z     vdW  Elec       q    Type
REMARK                         _______ _______ _______ _____ _____    ______ ____
ROOT
ATOM      1  C   LIG    1       24.917 -23.977   5.844  0.00  0.00    +0.218 C 
ATOM      2  C   LIG    1       26.016 -24.044   6.908  0.00  0.00    +0.058 C 
ENDROOT
BRANCH   1   3
ATOM      3  O   LIG    1       25.270 -24.921   4.802  0.00  0.00    -0.456 OA
BRANCH   3   5
ATOM      4  C   LIG    1       24.339 -26.891   5.671  0.00  0.00    +0.136 C 
ATOM      5  C   LIG    1       25.547 -26.207   5.133  0.00  0.00    +0.304 C 
ATOM      6  O   LIG    1       26.648 -26.737   5.010  0.00  0.00    -0.251 OA
ENDBRANCH   3   5
ENDBRANCH   1   3
BRANCH   1   7
ATOM      7  C   LIG    1       24.598 -22.520   5.402  0.00  0.00    +0.177 C 
BRANCH   7   8
ATOM      8  N   LIG    1       23.414 -21.834   6.159  0.00  0.00    +0.239 N 
ATOM      9  C   LIG    1       22.560 -22.942   6.787  0.00  0.00    +0.192 C 
ATOM     10  C   LIG    1       22.547 -21.031   5.204  0.00  0.00    +0.192 C 
ATOM     11  C   LIG    1       23.873 -20.934   7.298  0.00  0.00    +0.192 C 
ENDBRANCH   7   8
ENDBRANCH   1   7
TORSDOF 4
ENDMDL
MODEL 5
REMARK VINA RESULT:      -4.5      2.230      3.660
REMARK  Name = *****
REMARK                            x       y       z     vdW  Elec       q    Type
REMARK                         _______ _______ _______ _____ _____    ______ ____
ROOT
ATOM      1  C   LIG    1       25.493 -23.352   6.773  0.00  0.00    +0.218 C 
ATOM      2  C   LIG    1       26.643 -22.415   7.153  0.00  0.00    +0.058 C 
ENDROOT
BRANCH   1   3
ATOM      3  O   LIG    1       24.300 -22.855   7.427  0.00  0.00    -0.456 OA
BRANCH   3   5
ATOM      4  C   LIG    1       22.885 -21.597   6.042  0.00  0.00    +0.136 C 
ATOM      5  C   LIG    1       23.117 -22.879   6.764  0.00  0.00    +0.304 C 
ATOM      6  O   LIG    1       22.338 -23.828   6.760  0.00  0.00    -0.251 OA
ENDBRANCH   3   5
ENDBRANCH   1   3
BRANCH   1   7
ATOM      7  C   LIG    1       25.847 -24.852   6.988  0.00  0.00    +0.177 C 
BRANCH   7   8
ATOM      8  N   LIG    1       25.427 -25.812   5.827  0.00  0.00    +0.239 N 
ATOM      9  C   LIG    1       26.629 -26.710   5.508  0.00  0.00    +0.192 C 
ATOM     10  C   LIG    1       25.057 -25.030   4.578  0.00  0.00    +0.192 C 
ATOM     11  C   LIG    1       24.276 -26.736   6.200  0.00  0.00    +0.192 C 
ENDBRANCH   7   8
ENDBRANCH   1   7
TORSDOF 4
ENDMDL
MODEL 6
REMARK VINA RESULT:      -4.5      3.173      5.685
REMARK  Name = *****
REMARK                            x       y       z     vdW  Elec       q    Type
REMARK                         _______ _______ _______ _____ _____    ______ ____
ROOT
ATOM      1  C   LIG    1       28.327 -20.736   7.382  0.00  0.00    +0.218 C 
ATOM      2  C   LIG    1       27.463 -20.237   6.220  0.00  0.00    +0.058 C 
ENDROOT
BRANCH   1   3
ATOM      3  O   LIG    1       27.533 -21.690   8.129  0.00  0.00    -0.456 OA
BRANCH   3   5
ATOM      4  C   LIG    1       25.254 -22.181   7.858  0.00  0.00    +0.136 C 
ATOM      5  C   LIG    1       26.285 -21.346   8.535  0.00  0.00    +0.304 C 
ATOM      6  O   LIG    1       26.035 -20.461   9.349  0.00  0.00    -0.251 OA
ENDBRANCH   3   5
ENDBRANCH   1   3
BRANCH   1   7
ATOM      7  C   LIG    1       28.980 -19.575   8.185  0.00  0.00    +0.177 C 
BRANCH   7   8
ATOM      8  N   LIG    1       30.534 -19.662   8.345  0.00  0.00    +0.239 N 
ATOM      9  C   LIG    1       31.160 -19.328   6.985  0.00  0.00    +0.192 C 
ATOM     10  C   LIG    1       30.964 -21.061   8.751  0.00  0.00    +0.192 C 
ATOM     11  C   LIG    1       31.090 -18.656   9.343  0.00  0.00    +0.192 C 
ENDBRANCH   7   8
ENDBRANCH   1   7
TORSDOF 4
ENDMDL
MODEL 7
REMARK VINA RESULT:      -4.5      2.280      4.064
REMARK  Name = *****
REMARK                            x       y       z     vdW  Elec       q    Type
REMARK                         _______ _______ _______ _____ _____    ______ ____
ROOT
ATOM      1  C   LIG    1       25.229 -20.701   5.303  0.00  0.00    +0.218 C 
ATOM      2  C   LIG    1       25.155 -20.095   3.898  0.00  0.00    +0.058 C 
ENDROOT
BRANCH   1   3
ATOM      3  O   LIG    1       24.007 -20.341   5.992  0.00  0.00    -0.456 OA
BRANCH   3   5
ATOM      4  C   LIG    1       23.020 -22.205   7.020  0.00  0.00    +0.136 C 
ATOM      5  C   LIG    1       22.941 -21.179   5.943  0.00  0.00    +0.304 C 
ATOM      6  O   LIG    1       22.034 -21.106   5.119  0.00  0.00    -0.251 OA
ENDBRANCH   3   5
ENDBRANCH   1   3
BRANCH   1   7
ATOM      7  C   LIG    1       26.570 -20.380   6.023  0.00  0.00    +0.177 C 
BRANCH   7   8
ATOM      8  N   LIG    1       26.852 -21.212   7.317  0.00  0.00    +0.239 N 
ATOM      9  C   LIG    1       28.357 -21.134   7.602  0.00  0.00    +0.192 C 
ATOM     10  C   LIG    1       26.467 -22.669   7.124  0.00  0.00    +0.192 C 
ATOM     11  C   LIG    1       26.143 -20.665   8.548  0.00  0.00    +0.192 C 
ENDBRANCH   7   8
ENDBRANCH   1   7
TORSDOF 4
ENDMDL
MODEL 8
REMARK VINA RESULT:      -4.5      1.582      3.046
REMARK  Name = *****
REMARK                            x       y       z     vdW  Elec       q    Type
REMARK                         _______ _______ _______ _____ _____    ______ ____
ROOT
ATOM      1  C   LIG    1       25.332 -23.175   6.717  0.00  0.00    +0.218 C 
ATOM      2  C   LIG    1       25.632 -24.618   6.299  0.00  0.00    +0.058 C 
ENDROOT
BRANCH   1   3
ATOM      3  O   LIG    1       25.902 -22.982   8.035  0.00  0.00    -0.456 OA
BRANCH   3   5
ATOM      4  C   LIG    1       27.523 -21.371   7.504  0.00  0.00    +0.136 C 
ATOM      5  C   LIG    1       26.384 -21.762   8.381  0.00  0.00    +0.304 C 
ATOM      6  O   LIG    1       25.944 -21.071   9.296  0.00  0.00    -0.251 OA
ENDBRANCH   3   5
ENDBRANCH   1   3
BRANCH   1   7
ATOM      7  C   LIG    1       23.834 -22.797   6.531  0.00  0.00    +0.177 C 
BRANCH   7   8
ATOM      8  N   LIG    1       23.572 -21.376   5.932  0.00  0.00    +0.239 N 
ATOM      9  C   LIG    1       23.402 -20.402   7.105  0.00  0.00    +0.192 C 
ATOM     10  C   LIG    1       22.303 -21.361   5.097  0.00  0.00    +0.192 C 
ATOM     11  C   LIG    1       24.731 -20.856   5.093  0.00  0.00    +0.192 C 
ENDBRANCH   7   8
ENDBRANCH   1   7
TORSDOF 4
ENDMDL
MODEL 9
REMARK VINA RESULT:      -4.4      2.650      4.562
REMARK  Name = *****
REMARK                            x       y       z     vdW  Elec       q    Type
REMARK                         _______ _______ _______ _____ _____    ______ ____
ROOT
ATOM      1  C   LIG    1       24.892 -23.270   6.061  0.00  0.00    +0.218 C 
ATOM      2  C   LIG    1       23.518 -23.397   6.725  0.00  0.00    +0.058 C 
ENDROOT
BRANCH   1   3
ATOM      3  O   LIG    1       25.033 -24.386   5.148  0.00  0.00    -0.456 OA
BRANCH   3   5
ATOM      4  C   LIG    1       24.313 -26.470   5.951  0.00  0.00    +0.136 C 
ATOM      5  C   LIG    1       25.463 -25.584   5.619  0.00  0.00    +0.304 C 
ATOM      6  O   LIG    1       26.642 -25.896   5.758  0.00  0.00    -0.251 OA
ENDBRANCH   3   5
ENDBRANCH   1   3
BRANCH   1   7
ATOM      7  C   LIG    1       26.037 -23.049   7.091  0.00  0.00    +0.177 C 
BRANCH   7   8
ATOM      8  N   LIG    1       26.540 -21.574   7.226  0.00  0.00    +0.239 N 
ATOM      9  C   LIG    1       25.976 -21.009   8.535  0.00  0.00    +0.192 C 
ATOM     10  C   LIG    1       26.045 -20.720   6.072  0.00  0.00    +0.192 C 
ATOM     11  C   LIG    1       28.056 -21.464   7.317  0.00  0.00    +0.192 C 
ENDBRANCH   7   8
ENDBRANCH   1   7
TORSDOF 4
ENDMDL
