MODEL 1
REMARK VINA RESULT:      -9.8      0.000      0.000
REMARK  Name = *****
REMARK                            x       y       z     vdW  Elec       q    Type
REMARK                         _______ _______ _______ _____ _____    ______ ____
ROOT
ATOM      1  N   LIG    1       31.170 -18.205   7.627  0.00  0.00    -0.109 NA
ATOM      2  C   LIG    1       30.257 -19.084   7.403  0.00  0.00    +0.201 C 
ATOM      3  N   LIG    1       29.383 -19.009   6.316  0.00  0.00    -0.326 N 
ATOM      4  H   LIG    1       29.284 -18.151   5.800  0.00  0.00    +0.169 HD
ATOM      5  C   LIG    1       28.324 -19.899   6.529  0.00  0.00    +0.066 A 
ATOM      6  C   LIG    1       28.633 -20.648   7.680  0.00  0.00    +0.065 A 
ATOM      7  C   LIG    1       27.842 -21.687   8.103  0.00  0.00    +0.028 A 
ATOM      8  C   LIG    1       26.687 -21.948   7.358  0.00  0.00    +0.014 A 
ATOM      9  C   LIG    1       26.374 -21.200   6.192  0.00  0.00    +0.024 A 
ATOM     10  C   LIG    1       27.208 -20.156   5.768  0.00  0.00    +0.039 A 
ATOM     11  N   LIG    1       29.866 -20.197   8.148  0.00  0.00    -0.326 N 
ATOM     12  H   LIG    1       30.173 -20.301   9.106  0.00  0.00    +0.169 HD
ENDROOT
BRANCH   1  13
ATOM     13  C   LIG    1       31.924 -18.354   8.759  0.00  0.00    +0.427 C 
ATOM     14  O   LIG    1       32.244 -19.409   9.289  0.00  0.00    -0.224 OA
BRANCH  13  16
ATOM     15  C   LIG    1       31.191 -16.481   9.927  0.00  0.00    +0.282 C 
ATOM     16  O   LIG    1       32.260 -17.131   9.247  0.00  0.00    -0.452 OA
ENDBRANCH  13  16
ENDBRANCH   1  13
BRANCH   9  17
ATOM     17  C   LIG    1       25.108 -21.528   5.484  0.00  0.00    +0.193 C 
ATOM     18  O   LIG    1       24.849 -22.713   5.280  0.00  0.00    -0.287 OA
BRANCH  17  19
ATOM     19  C   LIG    1       24.144 -20.495   5.016  0.00  0.00    +0.022 A 
ATOM     20  C   LIG    1       22.963 -20.194   5.704  0.00  0.00    +0.012 A 
ATOM     21  C   LIG    1       22.126 -19.172   5.246  0.00  0.00    +0.001 A 
ATOM     22  C   LIG    1       22.468 -18.440   4.109  0.00  0.00    +0.000 A 
ATOM     23  C   LIG    1       23.646 -18.728   3.424  0.00  0.00    +0.001 A 
ATOM     24  C   LIG    1       24.483 -19.749   3.877  0.00  0.00    +0.012 A 
ENDBRANCH  17  19
ENDBRANCH   9  17
TORSDOF 4
ENDMDL
MODEL 2
REMARK VINA RESULT:      -9.7      1.838      2.676
REMARK  Name = *****
REMARK                            x       y       z     vdW  Elec       q    Type
REMARK                         _______ _______ _______ _____ _____    ______ ____
ROOT
ATOM      1  N   LIG    1       31.743 -17.983   7.705  0.00  0.00    -0.109 NA
ATOM      2  C   LIG    1       30.683 -18.709   7.623  0.00  0.00    +0.201 C 
ATOM      3  N   LIG    1       30.115 -19.086   6.404  0.00  0.00    -0.326 N 
ATOM      4  H   LIG    1       30.376 -18.617   5.553  0.00  0.00    +0.169 HD
ATOM      5  C   LIG    1       28.825 -19.574   6.641  0.00  0.00    +0.066 A 
ATOM      6  C   LIG    1       28.657 -19.651   8.037  0.00  0.00    +0.065 A 
ATOM      7  C   LIG    1       27.532 -20.193   8.604  0.00  0.00    +0.028 A 
ATOM      8  C   LIG    1       26.533 -20.635   7.730  0.00  0.00    +0.014 A 
ATOM      9  C   LIG    1       26.698 -20.566   6.321  0.00  0.00    +0.024 A 
ATOM     10  C   LIG    1       27.866 -20.026   5.765  0.00  0.00    +0.039 A 
ATOM     11  N   LIG    1       29.842 -19.203   8.620  0.00  0.00    -0.326 N 
ATOM     12  H   LIG    1       29.899 -18.838   9.561  0.00  0.00    +0.169 HD
ENDROOT
BRANCH   1  13
ATOM     13  C   LIG    1       32.168 -17.628   8.956  0.00  0.00    +0.427 C 
ATOM     14  O   LIG    1       32.212 -18.348   9.943  0.00  0.00    -0.224 OA
BRANCH  13  16
ATOM     15  C   LIG    1       32.787 -15.807  10.264  0.00  0.00    +0.282 C 
ATOM     16  O   LIG    1       32.524 -16.316   8.960  0.00  0.00    -0.452 OA
ENDBRANCH  13  16
ENDBRANCH   1  13
BRANCH   9  17
ATOM     17  C   LIG    1       25.568 -21.029   5.473  0.00  0.00    +0.193 C 
ATOM     18  O   LIG    1       25.356 -20.436   4.416  0.00  0.00    -0.287 OA
BRANCH  17  19
ATOM     19  C   LIG    1       24.689 -22.173   5.839  0.00  0.00    +0.022 A 
ATOM     20  C   LIG    1       25.123 -23.504   5.807  0.00  0.00    +0.012 A 
ATOM     21  C   LIG    1       24.268 -24.530   6.218  0.00  0.00    +0.001 A 
ATOM     22  C   LIG    1       22.984 -24.235   6.674  0.00  0.00    +0.000 A 
ATOM     23  C   LIG    1       22.548 -22.913   6.718  0.00  0.00    +0.001 A 
ATOM     24  C   LIG    1       23.398 -21.885   6.306  0.00  0.00    +0.012 A 
ENDBRANCH  17  19
ENDBRANCH   9  17
TORSDOF 4
ENDMDL
MODEL 3
REMARK VINA RESULT:      -9.6      5.140      8.439
REMARK  Name = *****
REMARK                            x       y       z     vdW  Elec       q    Type
REMARK                         _______ _______ _______ _____ _____    ______ ____
ROOT
ATOM      1  N   LIG    1       25.733 -28.377   5.916  0.00  0.00    -0.109 NA
ATOM      2  C   LIG    1       25.356 -27.148   5.979  0.00  0.00    +0.201 C 
ATOM      3  N   LIG    1       26.243 -26.092   6.199  0.00  0.00    -0.326 N 
ATOM      4  H   LIG    1       27.172 -26.270   6.543  0.00  0.00    +0.169 HD
ATOM      5  C   LIG    1       25.509 -24.951   6.541  0.00  0.00    +0.066 A 
ATOM      6  C   LIG    1       24.147 -25.264   6.370  0.00  0.00    +0.065 A 
ATOM      7  C   LIG    1       23.161 -24.322   6.523  0.00  0.00    +0.028 A 
ATOM      8  C   LIG    1       23.567 -23.035   6.894  0.00  0.00    +0.014 A 
ATOM      9  C   LIG    1       24.940 -22.711   7.061  0.00  0.00    +0.024 A 
ATOM     10  C   LIG    1       25.930 -23.687   6.881  0.00  0.00    +0.039 A 
ATOM     11  N   LIG    1       24.079 -26.587   5.937  0.00  0.00    -0.326 N 
ATOM     12  H   LIG    1       23.262 -27.173   6.052  0.00  0.00    +0.169 HD
ENDROOT
BRANCH   1  13
ATOM     13  C   LIG    1       24.762 -29.327   5.758  0.00  0.00    +0.427 C 
ATOM     14  O   LIG    1       23.652 -29.329   6.273  0.00  0.00    -0.224 OA
BRANCH  13  16
ATOM     15  C   LIG    1       25.866 -31.372   5.653  0.00  0.00    +0.282 C 
ATOM     16  O   LIG    1       25.221 -30.317   4.947  0.00  0.00    -0.452 OA
ENDBRANCH  13  16
ENDBRANCH   1  13
BRANCH   9  17
ATOM     17  C   LIG    1       25.272 -21.327   7.489  0.00  0.00    +0.193 C 
ATOM     18  O   LIG    1       24.433 -20.704   8.137  0.00  0.00    -0.287 OA
BRANCH  17  19
ATOM     19  C   LIG    1       26.568 -20.665   7.174  0.00  0.00    +0.022 A 
ATOM     20  C   LIG    1       27.595 -20.524   8.113  0.00  0.00    +0.012 A 
ATOM     21  C   LIG    1       28.811 -19.944   7.740  0.00  0.00    +0.001 A 
ATOM     22  C   LIG    1       29.012 -19.514   6.430  0.00  0.00    +0.000 A 
ATOM     23  C   LIG    1       27.997 -19.659   5.486  0.00  0.00    +0.001 A 
ATOM     24  C   LIG    1       26.781 -20.235   5.855  0.00  0.00    +0.012 A 
ENDBRANCH  17  19
ENDBRANCH   9  17
TORSDOF 4
ENDMDL
MODEL 4
REMARK VINA RESULT:      -9.6      2.169      7.802
REMARK  Name = *****
REMARK                            x       y       z     vdW  Elec       q    Type
REMARK                         _______ _______ _______ _____ _____    ______ ____
ROOT
ATOM      1  N   LIG    1       24.582 -21.258   5.285  0.00  0.00    -0.109 NA
ATOM      2  C   LIG    1       25.799 -20.889   5.483  0.00  0.00    +0.201 C 
ATOM      3  N   LIG    1       26.573 -21.363   6.545  0.00  0.00    -0.326 N 
ATOM      4  H   LIG    1       26.138 -21.832   7.322  0.00  0.00    +0.169 HD
ATOM      5  C   LIG    1       27.701 -20.546   6.679  0.00  0.00    +0.066 A 
ATOM      6  C   LIG    1       27.706 -19.658   5.587  0.00  0.00    +0.065 A 
ATOM      7  C   LIG    1       28.743 -18.788   5.364  0.00  0.00    +0.028 A 
ATOM      8  C   LIG    1       29.786 -18.794   6.297  0.00  0.00    +0.014 A 
ATOM      9  C   LIG    1       29.790 -19.692   7.398  0.00  0.00    +0.024 A 
ATOM     10  C   LIG    1       28.728 -20.586   7.593  0.00  0.00    +0.039 A 
ATOM     11  N   LIG    1       26.581 -19.946   4.816  0.00  0.00    -0.326 N 
ATOM     12  H   LIG    1       26.151 -19.283   4.184  0.00  0.00    +0.169 HD
ENDROOT
BRANCH   1  13
ATOM     13  C   LIG    1       23.907 -20.677   4.247  0.00  0.00    +0.427 C 
ATOM     14  O   LIG    1       24.346 -20.449   3.128  0.00  0.00    -0.224 OA
BRANCH  13  16
ATOM     15  C   LIG    1       22.380 -18.954   4.580  0.00  0.00    +0.282 C 
ATOM     16  O   LIG    1       22.650 -20.351   4.648  0.00  0.00    -0.452 OA
ENDBRANCH  13  16
ENDBRANCH   1  13
BRANCH   9  17
ATOM     17  C   LIG    1       30.924 -19.602   8.354  0.00  0.00    +0.193 C 
ATOM     18  O   LIG    1       31.696 -20.556   8.429  0.00  0.00    -0.287 OA
BRANCH  17  19
ATOM     19  C   LIG    1       31.169 -18.415   9.220  0.00  0.00    +0.022 A 
ATOM     20  C   LIG    1       30.445 -18.170  10.392  0.00  0.00    +0.012 A 
ATOM     21  C   LIG    1       30.760 -17.069  11.193  0.00  0.00    +0.001 A 
ATOM     22  C   LIG    1       31.804 -16.217  10.837  0.00  0.00    +0.000 A 
ATOM     23  C   LIG    1       32.536 -16.459   9.677  0.00  0.00    +0.001 A 
ATOM     24  C   LIG    1       32.222 -17.556   8.873  0.00  0.00    +0.012 A 
ENDBRANCH  17  19
ENDBRANCH   9  17
TORSDOF 4
ENDMDL
MODEL 5
REMARK VINA RESULT:      -9.5      1.940      2.751
REMARK  Name = *****
REMARK                            x       y       z     vdW  Elec       q    Type
REMARK                         _______ _______ _______ _____ _____    ______ ____
ROOT
ATOM      1  N   LIG    1       31.795 -18.224   7.608  0.00  0.00    -0.109 NA
ATOM      2  C   LIG    1       30.693 -18.888   7.603  0.00  0.00    +0.201 C 
ATOM      3  N   LIG    1       30.115 -19.391   6.435  0.00  0.00    -0.326 N 
ATOM      4  H   LIG    1       30.415 -19.058   5.535  0.00  0.00    +0.169 HD
ATOM      5  C   LIG    1       28.794 -19.761   6.712  0.00  0.00    +0.066 A 
ATOM      6  C   LIG    1       28.607 -19.639   8.101  0.00  0.00    +0.065 A 
ATOM      7  C   LIG    1       27.443 -20.028   8.714  0.00  0.00    +0.028 A 
ATOM      8  C   LIG    1       26.427 -20.522   7.888  0.00  0.00    +0.014 A 
ATOM      9  C   LIG    1       26.612 -20.655   6.486  0.00  0.00    +0.024 A 
ATOM     10  C   LIG    1       27.818 -20.268   5.885  0.00  0.00    +0.039 A 
ATOM     11  N   LIG    1       29.811 -19.190   8.641  0.00  0.00    -0.326 N 
ATOM     12  H   LIG    1       29.881 -18.704   9.526  0.00  0.00    +0.169 HD
ENDROOT
BRANCH   1  13
ATOM     13  C   LIG    1       32.229 -17.730   8.808  0.00  0.00    +0.427 C 
ATOM     14  O   LIG    1       32.355 -18.355   9.852  0.00  0.00    -0.224 OA
BRANCH  13  16
ATOM     15  C   LIG    1       32.763 -15.763   9.930  0.00  0.00    +0.282 C 
ATOM     16  O   LIG    1       32.486 -16.400   8.687  0.00  0.00    -0.452 OA
ENDBRANCH  13  16
ENDBRANCH   1  13
BRANCH   9  17
ATOM     17  C   LIG    1       25.465 -21.159   5.686  0.00  0.00    +0.193 C 
ATOM     18  O   LIG    1       25.126 -20.518   4.692  0.00  0.00    -0.287 OA
BRANCH  17  19
ATOM     19  C   LIG    1       24.712 -22.397   6.029  0.00  0.00    +0.022 A 
ATOM     20  C   LIG    1       23.375 -22.381   6.442  0.00  0.00    +0.012 A 
ATOM     21  C   LIG    1       22.705 -23.581   6.695  0.00  0.00    +0.001 A 
ATOM     22  C   LIG    1       23.359 -24.800   6.525  0.00  0.00    +0.000 A 
ATOM     23  C   LIG    1       24.688 -24.825   6.106  0.00  0.00    +0.001 A 
ATOM     24  C   LIG    1       25.361 -23.628   5.855  0.00  0.00    +0.012 A 
ENDBRANCH  17  19
ENDBRANCH   9  17
TORSDOF 4
ENDMDL
MODEL 6
REMARK VINA RESULT:      -9.4      3.318      4.910
REMARK  Name = *****
REMARK                            x       y       z     vdW  Elec       q    Type
REMARK                         _______ _______ _______ _____ _____    ______ ____
ROOT
ATOM      1  N   LIG    1       29.712 -19.861   7.692  0.00  0.00    -0.109 NA
ATOM      2  C   LIG    1       28.549 -20.335   7.411  0.00  0.00    +0.201 C 
ATOM      3  N   LIG    1       28.090 -21.560   7.901  0.00  0.00    -0.326 N 
ATOM      4  H   LIG    1       28.734 -22.221   8.303  0.00  0.00    +0.169 HD
ATOM      5  C   LIG    1       26.959 -21.942   7.171  0.00  0.00    +0.066 A 
ATOM      6  C   LIG    1       26.621 -20.864   6.331  0.00  0.00    +0.065 A 
ATOM      7  C   LIG    1       25.490 -20.876   5.554  0.00  0.00    +0.028 A 
ATOM      8  C   LIG    1       24.701 -22.030   5.604  0.00  0.00    +0.014 A 
ATOM      9  C   LIG    1       25.032 -23.118   6.455  0.00  0.00    +0.024 A 
ATOM     10  C   LIG    1       26.183 -23.074   7.254  0.00  0.00    +0.039 A 
ATOM     11  N   LIG    1       27.554 -19.853   6.560  0.00  0.00    -0.326 N 
ATOM     12  H   LIG    1       27.765 -19.124   5.892  0.00  0.00    +0.169 HD
ENDROOT
BRANCH   1  13
ATOM     13  C   LIG    1       30.072 -18.681   7.101  0.00  0.00    +0.427 C 
ATOM     14  O   LIG    1       30.016 -18.416   5.908  0.00  0.00    -0.224 OA
BRANCH  13  16
ATOM     15  C   LIG    1       31.793 -18.217   8.595  0.00  0.00    +0.282 C 
ATOM     16  O   LIG    1       30.540 -17.823   8.046  0.00  0.00    -0.452 OA
ENDBRANCH  13  16
ENDBRANCH   1  13
BRANCH   9  17
ATOM     17  C   LIG    1       24.151 -24.315   6.415  0.00  0.00    +0.193 C 
ATOM     18  O   LIG    1       22.992 -24.194   6.808  0.00  0.00    -0.287 OA
BRANCH  17  19
ATOM     19  C   LIG    1       24.604 -25.645   5.923  0.00  0.00    +0.022 A 
ATOM     20  C   LIG    1       25.514 -25.794   4.870  0.00  0.00    +0.012 A 
ATOM     21  C   LIG    1       25.945 -27.068   4.491  0.00  0.00    +0.001 A 
ATOM     22  C   LIG    1       25.483 -28.197   5.166  0.00  0.00    +0.000 A 
ATOM     23  C   LIG    1       24.584 -28.056   6.221  0.00  0.00    +0.001 A 
ATOM     24  C   LIG    1       24.149 -26.786   6.601  0.00  0.00    +0.012 A 
ENDBRANCH  17  19
ENDBRANCH   9  17
TORSDOF 4
ENDMDL
MODEL 7
REMARK VINA RESULT:      -9.4      2.979      7.821
REMARK  Name = *****
REMARK                            x       y       z     vdW  Elec       q    Type
REMARK                         _______ _______ _______ _____ _____    ______ ____
ROOT
ATOM      1  N   LIG    1       24.722 -23.000   7.469  0.00  0.00    -0.109 NA
ATOM      2  C   LIG    1       25.758 -22.322   7.116  0.00  0.00    +0.201 C 
ATOM      3  N   LIG    1       26.946 -22.316   7.849  0.00  0.00    -0.326 N 
ATOM      4  H   LIG    1       26.962 -22.656   8.796  0.00  0.00    +0.169 HD
ATOM      5  C   LIG    1       27.743 -21.255   7.405  0.00  0.00    +0.066 A 
ATOM      6  C   LIG    1       27.110 -20.702   6.276  0.00  0.00    +0.065 A 
ATOM      7  C   LIG    1       27.691 -19.703   5.535  0.00  0.00    +0.028 A 
ATOM      8  C   LIG    1       28.932 -19.229   5.974  0.00  0.00    +0.014 A 
ATOM      9  C   LIG    1       29.579 -19.788   7.109  0.00  0.00    +0.024 A 
ATOM     10  C   LIG    1       28.974 -20.821   7.838  0.00  0.00    +0.039 A 
ATOM     11  N   LIG    1       25.941 -21.429   6.060  0.00  0.00    -0.326 N 
ATOM     12  H   LIG    1       25.143 -21.068   5.554  0.00  0.00    +0.169 HD
ENDROOT
BRANCH   1  13
ATOM     13  C   LIG    1       23.596 -22.876   6.703  0.00  0.00    +0.427 C 
ATOM     14  O   LIG    1       23.181 -21.853   6.175  0.00  0.00    -0.224 OA
BRANCH  13  16
ATOM     15  C   LIG    1       23.833 -25.152   6.285  0.00  0.00    +0.282 C 
ATOM     16  O   LIG    1       22.963 -24.077   6.625  0.00  0.00    -0.452 OA
ENDBRANCH  13  16
ENDBRANCH   1  13
BRANCH   9  17
ATOM     17  C   LIG    1       30.879 -19.196   7.519  0.00  0.00    +0.193 C 
ATOM     18  O   LIG    1       31.886 -19.516   6.889  0.00  0.00    -0.287 OA
BRANCH  17  19
ATOM     19  C   LIG    1       31.018 -18.237   8.649  0.00  0.00    +0.022 A 
ATOM     20  C   LIG    1       30.035 -18.077   9.632  0.00  0.00    +0.012 A 
ATOM     21  C   LIG    1       30.249 -17.201  10.701  0.00  0.00    +0.001 A 
ATOM     22  C   LIG    1       31.445 -16.493  10.802  0.00  0.00    +0.000 A 
ATOM     23  C   LIG    1       32.433 -16.655   9.832  0.00  0.00    +0.001 A 
ATOM     24  C   LIG    1       32.222 -17.526   8.762  0.00  0.00    +0.012 A 
ENDBRANCH  17  19
ENDBRANCH   9  17
TORSDOF 4
ENDMDL
MODEL 8
REMARK VINA RESULT:      -8.7      5.498      8.365
REMARK  Name = *****
REMARK                            x       y       z     vdW  Elec       q    Type
REMARK                         _______ _______ _______ _____ _____    ______ ____
ROOT
ATOM      1  N   LIG    1       25.307 -29.157   7.227  0.00  0.00    -0.109 NA
ATOM      2  C   LIG    1       25.400 -27.975   6.725  0.00  0.00    +0.201 C 
ATOM      3  N   LIG    1       25.867 -26.877   7.450  0.00  0.00    -0.326 N 
ATOM      4  H   LIG    1       25.932 -26.920   8.453  0.00  0.00    +0.169 HD
ATOM      5  C   LIG    1       25.542 -25.707   6.755  0.00  0.00    +0.066 A 
ATOM      6  C   LIG    1       25.013 -26.095   5.509  0.00  0.00    +0.065 A 
ATOM      7  C   LIG    1       24.690 -25.178   4.541  0.00  0.00    +0.028 A 
ATOM      8  C   LIG    1       24.875 -23.828   4.860  0.00  0.00    +0.014 A 
ATOM      9  C   LIG    1       25.415 -23.431   6.113  0.00  0.00    +0.024 A 
ATOM     10  C   LIG    1       25.756 -24.388   7.079  0.00  0.00    +0.039 A 
ATOM     11  N   LIG    1       25.020 -27.488   5.474  0.00  0.00    -0.326 N 
ATOM     12  H   LIG    1       24.414 -28.036   4.877  0.00  0.00    +0.169 HD
ENDROOT
BRANCH   1  13
ATOM     13  C   LIG    1       24.775 -30.138   6.436  0.00  0.00    +0.427 C 
ATOM     14  O   LIG    1       23.725 -30.737   6.622  0.00  0.00    -0.224 OA
BRANCH  13  16
ATOM     15  C   LIG    1       25.960 -31.761   5.263  0.00  0.00    +0.282 C 
ATOM     16  O   LIG    1       25.612 -30.386   5.394  0.00  0.00    -0.452 OA
ENDBRANCH  13  16
ENDBRANCH   1  13
BRANCH   9  17
ATOM     17  C   LIG    1       25.544 -21.973   6.374  0.00  0.00    +0.193 C 
ATOM     18  O   LIG    1       26.342 -21.608   7.236  0.00  0.00    -0.287 OA
BRANCH  17  19
ATOM     19  C   LIG    1       24.759 -20.941   5.644  0.00  0.00    +0.022 A 
ATOM     20  C   LIG    1       25.232 -20.305   4.490  0.00  0.00    +0.012 A 
ATOM     21  C   LIG    1       24.423 -19.385   3.816  0.00  0.00    +0.001 A 
ATOM     22  C   LIG    1       23.138 -19.106   4.279  0.00  0.00    +0.000 A 
ATOM     23  C   LIG    1       22.657 -19.742   5.421  0.00  0.00    +0.001 A 
ATOM     24  C   LIG    1       23.462 -20.659   6.099  0.00  0.00    +0.012 A 
ENDBRANCH  17  19
ENDBRANCH   9  17
TORSDOF 4
ENDMDL
MODEL 9
REMARK VINA RESULT:      -8.7      2.706      4.098
REMARK  Name = *****
REMARK                            x       y       z     vdW  Elec       q    Type
REMARK                         _______ _______ _______ _____ _____    ______ ____
ROOT
ATOM      1  N   LIG    1       31.241 -19.835   7.899  0.00  0.00    -0.109 NA
ATOM      2  C   LIG    1       30.037 -20.280   7.992  0.00  0.00    +0.201 C 
ATOM      3  N   LIG    1       29.608 -21.446   7.355  0.00  0.00    -0.326 N 
ATOM      4  H   LIG    1       30.157 -21.856   6.619  0.00  0.00    +0.169 HD
ATOM      5  C   LIG    1       28.209 -21.479   7.373  0.00  0.00    +0.066 A 
ATOM      6  C   LIG    1       27.776 -20.405   8.172  0.00  0.00    +0.065 A 
ATOM      7  C   LIG    1       26.452 -20.217   8.481  0.00  0.00    +0.028 A 
ATOM      8  C   LIG    1       25.539 -21.125   7.932  0.00  0.00    +0.014 A 
ATOM      9  C   LIG    1       25.971 -22.215   7.130  0.00  0.00    +0.024 A 
ATOM     10  C   LIG    1       27.331 -22.397   6.845  0.00  0.00    +0.039 A 
ATOM     11  N   LIG    1       28.915 -19.736   8.618  0.00  0.00    -0.326 N 
ATOM     12  H   LIG    1       28.916 -18.769   8.915  0.00  0.00    +0.169 HD
ENDROOT
BRANCH   1  13
ATOM     13  C   LIG    1       31.525 -18.648   8.518  0.00  0.00    +0.427 C 
ATOM     14  O   LIG    1       31.958 -17.635   7.988  0.00  0.00    -0.224 OA
BRANCH  13  16
ATOM     15  C   LIG    1       31.469 -17.541  10.563  0.00  0.00    +0.282 C 
ATOM     16  O   LIG    1       31.279 -18.759   9.850  0.00  0.00    -0.452 OA
ENDBRANCH  13  16
ENDBRANCH   1  13
BRANCH   9  17
ATOM     17  C   LIG    1       24.925 -23.107   6.563  0.00  0.00    +0.193 C 
ATOM     18  O   LIG    1       23.786 -22.660   6.442  0.00  0.00    -0.287 OA
BRANCH  17  19
ATOM     19  C   LIG    1       25.193 -24.508   6.136  0.00  0.00    +0.022 A 
ATOM     20  C   LIG    1       25.049 -24.937   4.811  0.00  0.00    +0.012 A 
ATOM     21  C   LIG    1       25.371 -26.251   4.461  0.00  0.00    +0.001 A 
ATOM     22  C   LIG    1       25.849 -27.138   5.425  0.00  0.00    +0.000 A 
ATOM     23  C   LIG    1       26.004 -26.717   6.744  0.00  0.00    +0.001 A 
ATOM     24  C   LIG    1       25.681 -25.406   7.098  0.00  0.00    +0.012 A 
ENDBRANCH  17  19
ENDBRANCH   9  17
TORSDOF 4
ENDMDL
