MODEL 1
REMARK VINA RESULT:      -5.8      0.000      0.000
REMARK  Name = *****
REMARK                            x       y       z     vdW  Elec       q    Type
REMARK                         _______ _______ _______ _____ _____    ______ ____
ROOT
ATOM      1  C   LIG    1       31.086 -20.654   8.821  0.00  0.00    +0.147 A 
ATOM      2  C   LIG    1       30.108 -20.415   7.841  0.00  0.00    +0.147 A 
ATOM      3  C   LIG    1       30.111 -19.158   7.260  0.00  0.00    +0.163 A 
ATOM      4  N   LIG    1       29.107 -19.190   6.338  0.00  0.00    -0.329 N 
ATOM      5  H   LIG    1       28.857 -18.431   5.721  0.00  0.00    +0.168 HD
ATOM      6  C   LIG    1       28.524 -20.426   6.405  0.00  0.00    +0.198 A 
ATOM      7  N   LIG    1       30.933 -18.132   7.526  0.00  0.00    -0.216 NA
ATOM      8  C   LIG    1       31.810 -18.469   8.494  0.00  0.00    +0.225 A 
ATOM      9  N   LIG    1       29.099 -21.195   7.307  0.00  0.00    -0.231 NA
ATOM     10  N   LIG    1       31.928 -19.646   9.151  0.00  0.00    -0.219 NA
ENDROOT
BRANCH   1  11
ATOM     11  N   LIG    1       31.235 -21.873   9.469  0.00  0.00    -0.341 N 
ATOM     12  H   LIG    1       30.360 -22.354   9.649  0.00  0.00    +0.144 HD
ATOM     13  H   LIG    1       31.929 -21.848  10.202  0.00  0.00    +0.144 HD
ENDBRANCH   1  11
TORSDOF 1
ENDMDL
MODEL 2
REMARK VINA RESULT:      -5.6      1.011      3.838
REMARK  Name = *****
REMARK                            x       y       z     vdW  Elec       q    Type
REMARK                         _______ _______ _______ _____ _____    ______ ____
ROOT
ATOM      1  C   LIG    1       29.504 -19.162   6.309  0.00  0.00    +0.147 A 
ATOM      2  C   LIG    1       30.426 -19.039   7.362  0.00  0.00    +0.147 A 
ATOM      3  C   LIG    1       30.481 -20.092   8.261  0.00  0.00    +0.163 A 
ATOM      4  N   LIG    1       31.456 -19.750   9.150  0.00  0.00    -0.329 N 
ATOM      5  H   LIG    1       31.762 -20.317   9.927  0.00  0.00    +0.168 HD
ATOM      6  C   LIG    1       31.933 -18.519   8.788  0.00  0.00    +0.198 A 
ATOM      7  N   LIG    1       29.751 -21.216   8.254  0.00  0.00    -0.216 NA
ATOM      8  C   LIG    1       28.889 -21.212   7.217  0.00  0.00    +0.225 A 
ATOM      9  N   LIG    1       31.331 -18.054   7.712  0.00  0.00    -0.231 NA
ATOM     10  N   LIG    1       28.720 -20.265   6.265  0.00  0.00    -0.219 NA
ENDROOT
BRANCH   1  11
ATOM     11  N   LIG    1       29.357 -18.210   5.310  0.00  0.00    -0.341 N 
ATOM     12  H   LIG    1       29.908 -18.394   4.479  0.00  0.00    +0.144 HD
ATOM     13  H   LIG    1       29.326 -17.265   5.666  0.00  0.00    +0.144 HD
ENDBRANCH   1  11
TORSDOF 1
ENDMDL
MODEL 3
REMARK VINA RESULT:      -5.6      1.068      2.438
REMARK  Name = *****
REMARK                            x       y       z     vdW  Elec       q    Type
REMARK                         _______ _______ _______ _____ _____    ______ ____
ROOT
ATOM      1  C   LIG    1       31.577 -18.882   8.330  0.00  0.00    +0.147 A 
ATOM      2  C   LIG    1       30.555 -19.087   7.388  0.00  0.00    +0.147 A 
ATOM      3  C   LIG    1       29.892 -20.301   7.451  0.00  0.00    +0.163 A 
ATOM      4  N   LIG    1       28.944 -20.241   6.473  0.00  0.00    -0.329 N 
ATOM      5  H   LIG    1       28.272 -20.964   6.266  0.00  0.00    +0.168 HD
ATOM      6  C   LIG    1       29.075 -19.031   5.845  0.00  0.00    +0.198 A 
ATOM      7  N   LIG    1       30.114 -21.315   8.300  0.00  0.00    -0.216 NA
ATOM      8  C   LIG    1       31.128 -21.015   9.137  0.00  0.00    +0.225 A 
ATOM      9  N   LIG    1       30.043 -18.307   6.368  0.00  0.00    -0.231 NA
ATOM     10  N   LIG    1       31.864 -19.882   9.197  0.00  0.00    -0.219 NA
ENDROOT
BRANCH   1  11
ATOM     11  N   LIG    1       32.309 -17.705   8.418  0.00  0.00    -0.341 N 
ATOM     12  H   LIG    1       32.869 -17.629   9.260  0.00  0.00    +0.144 HD
ATOM     13  H   LIG    1       31.790 -16.894   8.111  0.00  0.00    +0.144 HD
ENDBRANCH   1  11
TORSDOF 1
ENDMDL
MODEL 4
REMARK VINA RESULT:      -5.6      1.087      3.105
REMARK  Name = *****
REMARK                            x       y       z     vdW  Elec       q    Type
REMARK                         _______ _______ _______ _____ _____    ______ ____
ROOT
ATOM      1  C   LIG    1       31.346 -18.587   8.060  0.00  0.00    +0.147 A 
ATOM      2  C   LIG    1       31.229 -19.938   8.429  0.00  0.00    +0.147 A 
ATOM      3  C   LIG    1       30.218 -20.661   7.818  0.00  0.00    +0.163 A 
ATOM      4  N   LIG    1       30.335 -21.925   8.314  0.00  0.00    -0.329 N 
ATOM      5  H   LIG    1       29.756 -22.710   8.053  0.00  0.00    +0.168 HD
ATOM      6  C   LIG    1       31.372 -21.925   9.207  0.00  0.00    +0.198 A 
ATOM      7  N   LIG    1       29.325 -20.224   6.919  0.00  0.00    -0.216 NA
ATOM      8  C   LIG    1       29.519 -18.914   6.660  0.00  0.00    +0.225 A 
ATOM      9  N   LIG    1       31.935 -20.738   9.308  0.00  0.00    -0.231 NA
ATOM     10  N   LIG    1       30.455 -18.083   7.173  0.00  0.00    -0.219 NA
ENDROOT
BRANCH   1  11
ATOM     11  N   LIG    1       32.329 -17.743   8.556  0.00  0.00    -0.341 N 
ATOM     12  H   LIG    1       33.058 -18.219   9.077  0.00  0.00    +0.144 HD
ATOM     13  H   LIG    1       31.958 -16.880   8.928  0.00  0.00    +0.144 HD
ENDBRANCH   1  11
TORSDOF 1
ENDMDL
MODEL 5
REMARK VINA RESULT:      -5.6      1.671      2.932
REMARK  Name = *****
REMARK                            x       y       z     vdW  Elec       q    Type
REMARK                         _______ _______ _______ _____ _____    ______ ____
ROOT
ATOM      1  C   LIG    1       31.297 -20.232   8.775  0.00  0.00    +0.147 A 
ATOM      2  C   LIG    1       30.915 -19.040   9.414  0.00  0.00    +0.147 A 
ATOM      3  C   LIG    1       30.463 -18.018   8.595  0.00  0.00    +0.163 A 
ATOM      4  N   LIG    1       30.130 -17.004   9.443  0.00  0.00    -0.329 N 
ATOM      5  H   LIG    1       29.745 -16.113   9.165  0.00  0.00    +0.168 HD
ATOM      6  C   LIG    1       30.408 -17.422  10.716  0.00  0.00    +0.198 A 
ATOM      7  N   LIG    1       30.354 -18.024   7.259  0.00  0.00    -0.216 NA
ATOM      8  C   LIG    1       30.769 -19.205   6.757  0.00  0.00    +0.225 A 
ATOM      9  N   LIG    1       30.890 -18.648  10.739  0.00  0.00    -0.231 NA
ATOM     10  N   LIG    1       31.233 -20.287   7.424  0.00  0.00    -0.219 NA
ENDROOT
BRANCH   1  11
ATOM     11  N   LIG    1       31.737 -21.357   9.459  0.00  0.00    -0.341 N 
ATOM     12  H   LIG    1       31.471 -21.375  10.438  0.00  0.00    +0.144 HD
ATOM     13  H   LIG    1       32.679 -21.626   9.212  0.00  0.00    +0.144 HD
ENDBRANCH   1  11
TORSDOF 1
ENDMDL
MODEL 6
REMARK VINA RESULT:      -5.4      1.206      3.180
REMARK  Name = *****
REMARK                            x       y       z     vdW  Elec       q    Type
REMARK                         _______ _______ _______ _____ _____    ______ ____
ROOT
ATOM      1  C   LIG    1       28.411 -20.489   6.612  0.00  0.00    +0.147 A 
ATOM      2  C   LIG    1       29.547 -20.557   7.435  0.00  0.00    +0.147 A 
ATOM      3  C   LIG    1       30.509 -19.579   7.243  0.00  0.00    +0.163 A 
ATOM      4  N   LIG    1       31.475 -19.844   8.168  0.00  0.00    -0.329 N 
ATOM      5  H   LIG    1       32.314 -19.299   8.308  0.00  0.00    +0.168 HD
ATOM      6  C   LIG    1       31.092 -20.962   8.858  0.00  0.00    +0.198 A 
ATOM      7  N   LIG    1       30.492 -18.574   6.356  0.00  0.00    -0.216 NA
ATOM      8  C   LIG    1       29.370 -18.623   5.610  0.00  0.00    +0.225 A 
ATOM      9  N   LIG    1       29.932 -21.426   8.440  0.00  0.00    -0.231 NA
ATOM     10  N   LIG    1       28.350 -19.510   5.679  0.00  0.00    -0.219 NA
ENDROOT
BRANCH   1  11
ATOM     11  N   LIG    1       27.346 -21.374   6.707  0.00  0.00    -0.341 N 
ATOM     12  H   LIG    1       27.530 -22.287   6.306  0.00  0.00    +0.144 HD
ATOM     13  H   LIG    1       26.453 -20.939   6.522  0.00  0.00    +0.144 HD
ENDBRANCH   1  11
TORSDOF 1
ENDMDL
MODEL 7
REMARK VINA RESULT:      -5.4      2.876      4.199
REMARK  Name = *****
REMARK                            x       y       z     vdW  Elec       q    Type
REMARK                         _______ _______ _______ _____ _____    ______ ____
ROOT
ATOM      1  C   LIG    1       26.430 -20.516   7.999  0.00  0.00    +0.147 A 
ATOM      2  C   LIG    1       26.071 -20.458   6.642  0.00  0.00    +0.147 A 
ATOM      3  C   LIG    1       27.086 -20.167   5.746  0.00  0.00    +0.163 A 
ATOM      4  N   LIG    1       26.497 -20.200   4.517  0.00  0.00    -0.329 N 
ATOM      5  H   LIG    1       26.971 -20.050   3.638  0.00  0.00    +0.168 HD
ATOM      6  C   LIG    1       25.170 -20.478   4.703  0.00  0.00    +0.198 A 
ATOM      7  N   LIG    1       28.376 -19.924   6.018  0.00  0.00    -0.216 NA
ATOM      8  C   LIG    1       28.597 -19.984   7.347  0.00  0.00    +0.225 A 
ATOM      9  N   LIG    1       24.872 -20.635   5.976  0.00  0.00    -0.231 NA
ATOM     10  N   LIG    1       27.715 -20.253   8.336  0.00  0.00    -0.219 NA
ENDROOT
BRANCH   1  11
ATOM     11  N   LIG    1       25.535 -20.830   9.012  0.00  0.00    -0.341 N 
ATOM     12  H   LIG    1       24.971 -21.652   8.825  0.00  0.00    +0.144 HD
ATOM     13  H   LIG    1       25.083 -20.017   9.405  0.00  0.00    +0.144 HD
ENDBRANCH   1  11
TORSDOF 1
ENDMDL
MODEL 8
REMARK VINA RESULT:      -5.2      4.022      5.735
REMARK  Name = *****
REMARK                            x       y       z     vdW  Elec       q    Type
REMARK                         _______ _______ _______ _____ _____    ______ ____
ROOT
ATOM      1  C   LIG    1       26.413 -20.401   5.998  0.00  0.00    +0.147 A 
ATOM      2  C   LIG    1       25.069 -20.742   6.228  0.00  0.00    +0.147 A 
ATOM      3  C   LIG    1       24.690 -20.906   7.549  0.00  0.00    +0.163 A 
ATOM      4  N   LIG    1       23.359 -21.196   7.505  0.00  0.00    -0.329 N 
ATOM      5  H   LIG    1       22.768 -21.354   8.308  0.00  0.00    +0.168 HD
ATOM      6  C   LIG    1       22.986 -21.224   6.188  0.00  0.00    +0.198 A 
ATOM      7  N   LIG    1       25.456 -20.788   8.644  0.00  0.00    -0.216 NA
ATOM      8  C   LIG    1       26.724 -20.483   8.301  0.00  0.00    +0.225 A 
ATOM      9  N   LIG    1       23.995 -20.958   5.384  0.00  0.00    -0.231 NA
ATOM     10  N   LIG    1       27.240 -20.293   7.065  0.00  0.00    -0.219 NA
ENDROOT
BRANCH   1  11
ATOM     11  N   LIG    1       26.935 -20.168   4.734  0.00  0.00    -0.341 N 
ATOM     12  H   LIG    1       26.605 -19.312   4.302  0.00  0.00    +0.144 HD
ATOM     13  H   LIG    1       26.987 -21.003   4.168  0.00  0.00    +0.144 HD
ENDBRANCH   1  11
TORSDOF 1
ENDMDL
MODEL 9
REMARK VINA RESULT:      -5.2      4.023      5.559
REMARK  Name = *****
REMARK                            x       y       z     vdW  Elec       q    Type
REMARK                         _______ _______ _______ _____ _____    ______ ____
ROOT
ATOM      1  C   LIG    1       24.539 -21.012   7.469  0.00  0.00    +0.147 A 
ATOM      2  C   LIG    1       24.942 -20.709   6.157  0.00  0.00    +0.147 A 
ATOM      3  C   LIG    1       26.273 -20.372   5.982  0.00  0.00    +0.163 A 
ATOM      4  N   LIG    1       26.413 -20.159   4.642  0.00  0.00    -0.329 N 
ATOM      5  H   LIG    1       27.275 -19.915   4.177  0.00  0.00    +0.168 HD
ATOM      6  C   LIG    1       25.186 -20.343   4.065  0.00  0.00    +0.198 A 
ATOM      7  N   LIG    1       27.230 -20.290   6.917  0.00  0.00    -0.216 NA
ATOM      8  C   LIG    1       26.724 -20.578   8.134  0.00  0.00    +0.225 A 
ATOM      9  N   LIG    1       24.268 -20.673   4.951  0.00  0.00    -0.231 NA
ATOM     10  N   LIG    1       25.457 -20.921   8.461  0.00  0.00    -0.219 NA
ENDROOT
BRANCH   1  11
ATOM     11  N   LIG    1       23.249 -21.401   7.801  0.00  0.00    -0.341 N 
ATOM     12  H   LIG    1       22.975 -21.158   8.747  0.00  0.00    +0.144 HD
ATOM     13  H   LIG    1       23.011 -22.319   7.452  0.00  0.00    +0.144 HD
ENDBRANCH   1  11
TORSDOF 1
ENDMDL
