MODEL 1
REMARK VINA RESULT:      -7.1      0.000      0.000
REMARK  Name = *****
REMARK                            x       y       z     vdW  Elec       q    Type
REMARK                         _______ _______ _______ _____ _____    ______ ____
ROOT
ATOM      1  C   LIG    1       22.869 -20.885   5.882  0.00  0.00    +0.001 A 
ATOM      2  C   LIG    1       23.791 -20.850   6.927  0.00  0.00    +0.010 A 
ATOM      3  C   LIG    1       25.168 -20.602   6.708  0.00  0.00    -0.002 A 
ATOM      4  C   LIG    1       25.990 -20.600   7.919  0.00  0.00    +0.011 C 
ATOM      5  C   LIG    1       27.301 -20.398   8.027  0.00  0.00    +0.022 C 
ATOM      6  C   LIG    1       28.233 -20.130   6.928  0.00  0.00    +0.130 C 
ATOM      7  N   LIG    1       28.096 -20.013   5.656  0.00  0.00    -0.191 NA
ATOM      8  N   LIG    1       26.941 -20.125   4.985  0.00  0.00    -0.237 N 
ATOM      9  H   LIG    1       27.036 -20.001   3.980  0.00  0.00    +0.174 HD
ATOM     10  C   LIG    1       25.622 -20.386   5.400  0.00  0.00    +0.055 A 
ATOM     11  C   LIG    1       24.661 -20.428   4.358  0.00  0.00    +0.025 A 
ATOM     12  C   LIG    1       23.307 -20.674   4.588  0.00  0.00    +0.002 A 
ENDROOT
TORSDOF 0
ENDMDL
MODEL 2
REMARK VINA RESULT:      -7.0      1.967      2.556
REMARK  Name = *****
REMARK                            x       y       z     vdW  Elec       q    Type
REMARK                         _______ _______ _______ _____ _____    ______ ____
ROOT
ATOM      1  C   LIG    1       22.800 -18.826   4.162  0.00  0.00    +0.001 A 
ATOM      2  C   LIG    1       22.589 -19.619   5.287  0.00  0.00    +0.010 A 
ATOM      3  C   LIG    1       23.597 -20.464   5.814  0.00  0.00    -0.002 A 
ATOM      4  C   LIG    1       23.201 -21.224   7.000  0.00  0.00    +0.011 C 
ATOM      5  C   LIG    1       23.926 -22.089   7.706  0.00  0.00    +0.022 C 
ATOM      6  C   LIG    1       25.313 -22.480   7.443  0.00  0.00    +0.130 C 
ATOM      7  N   LIG    1       26.175 -22.148   6.550  0.00  0.00    -0.191 NA
ATOM      8  N   LIG    1       25.966 -21.274   5.555  0.00  0.00    -0.237 N 
ATOM      9  H   LIG    1       26.772 -21.143   4.947  0.00  0.00    +0.174 HD
ATOM     10  C   LIG    1       24.848 -20.506   5.184  0.00  0.00    +0.055 A 
ATOM     11  C   LIG    1       25.033 -19.687   4.040  0.00  0.00    +0.025 A 
ATOM     12  C   LIG    1       24.030 -18.860   3.533  0.00  0.00    +0.002 A 
ENDROOT
TORSDOF 0
ENDMDL
MODEL 3
REMARK VINA RESULT:      -7.0      1.825      2.422
REMARK  Name = *****
REMARK                            x       y       z     vdW  Elec       q    Type
REMARK                         _______ _______ _______ _____ _____    ______ ____
ROOT
ATOM      1  C   LIG    1       23.535 -20.609   4.328  0.00  0.00    +0.001 A 
ATOM      2  C   LIG    1       24.894 -20.461   4.595  0.00  0.00    +0.010 A 
ATOM      3  C   LIG    1       25.412 -20.513   5.912  0.00  0.00    -0.002 A 
ATOM      4  C   LIG    1       26.862 -20.339   6.006  0.00  0.00    +0.011 C 
ATOM      5  C   LIG    1       27.625 -20.340   7.098  0.00  0.00    +0.022 C 
ATOM      6  C   LIG    1       27.167 -20.519   8.478  0.00  0.00    +0.130 C 
ATOM      7  N   LIG    1       26.016 -20.714   9.014  0.00  0.00    -0.191 NA
ATOM      8  N   LIG    1       24.855 -20.803   8.350  0.00  0.00    -0.237 N 
ATOM      9  H   LIG    1       24.048 -20.957   8.951  0.00  0.00    +0.174 HD
ATOM     10  C   LIG    1       24.533 -20.720   6.983  0.00  0.00    +0.055 A 
ATOM     11  C   LIG    1       23.155 -20.867   6.679  0.00  0.00    +0.025 A 
ATOM     12  C   LIG    1       22.659 -20.813   5.377  0.00  0.00    +0.002 A 
ENDROOT
TORSDOF 0
ENDMDL
MODEL 4
REMARK VINA RESULT:      -6.9      1.054      3.650
REMARK  Name = *****
REMARK                            x       y       z     vdW  Elec       q    Type
REMARK                         _______ _______ _______ _____ _____    ______ ____
ROOT
ATOM      1  C   LIG    1       26.798 -20.687   8.487  0.00  0.00    +0.001 A 
ATOM      2  C   LIG    1       25.469 -20.744   8.075  0.00  0.00    +0.010 A 
ATOM      3  C   LIG    1       25.094 -20.602   6.716  0.00  0.00    -0.002 A 
ATOM      4  C   LIG    1       23.655 -20.689   6.465  0.00  0.00    +0.011 C 
ATOM      5  C   LIG    1       23.012 -20.594   5.304  0.00  0.00    +0.022 C 
ATOM      6  C   LIG    1       23.620 -20.374   3.988  0.00  0.00    +0.130 C 
ATOM      7  N   LIG    1       24.830 -20.224   3.583  0.00  0.00    -0.191 NA
ATOM      8  N   LIG    1       25.919 -20.236   4.366  0.00  0.00    -0.237 N 
ATOM      9  H   LIG    1       26.791 -20.098   3.859  0.00  0.00    +0.174 HD
ATOM     10  C   LIG    1       26.091 -20.397   5.752  0.00  0.00    +0.055 A 
ATOM     11  C   LIG    1       27.436 -20.344   6.202  0.00  0.00    +0.025 A 
ATOM     12  C   LIG    1       27.789 -20.485   7.544  0.00  0.00    +0.002 A 
ENDROOT
TORSDOF 0
ENDMDL
MODEL 5
REMARK VINA RESULT:      -6.7      3.752      4.559
REMARK  Name = *****
REMARK                            x       y       z     vdW  Elec       q    Type
REMARK                         _______ _______ _______ _____ _____    ______ ____
ROOT
ATOM      1  C   LIG    1       25.199 -20.671   7.709  0.00  0.00    +0.001 A 
ATOM      2  C   LIG    1       25.908 -21.857   7.536  0.00  0.00    +0.010 A 
ATOM      3  C   LIG    1       25.280 -23.055   7.113  0.00  0.00    -0.002 A 
ATOM      4  C   LIG    1       26.178 -24.203   6.983  0.00  0.00    +0.011 C 
ATOM      5  C   LIG    1       25.881 -25.446   6.610  0.00  0.00    +0.022 C 
ATOM      6  C   LIG    1       24.554 -25.949   6.240  0.00  0.00    +0.130 C 
ATOM      7  N   LIG    1       23.390 -25.411   6.164  0.00  0.00    -0.191 NA
ATOM      8  N   LIG    1       23.107 -24.130   6.438  0.00  0.00    -0.237 N 
ATOM      9  H   LIG    1       22.124 -23.892   6.320  0.00  0.00    +0.174 HD
ATOM     10  C   LIG    1       23.902 -23.050   6.862  0.00  0.00    +0.055 A 
ATOM     11  C   LIG    1       23.207 -21.827   7.048  0.00  0.00    +0.025 A 
ATOM     12  C   LIG    1       23.839 -20.655   7.464  0.00  0.00    +0.002 A 
ENDROOT
TORSDOF 0
ENDMDL
MODEL 6
REMARK VINA RESULT:      -6.7      2.543      3.569
REMARK  Name = *****
REMARK                            x       y       z     vdW  Elec       q    Type
REMARK                         _______ _______ _______ _____ _____    ______ ____
ROOT
ATOM      1  C   LIG    1       23.120 -23.498   6.883  0.00  0.00    +0.001 A 
ATOM      2  C   LIG    1       22.530 -22.327   6.415  0.00  0.00    +0.010 A 
ATOM      3  C   LIG    1       23.228 -21.408   5.593  0.00  0.00    -0.002 A 
ATOM      4  C   LIG    1       22.452 -20.233   5.194  0.00  0.00    +0.011 C 
ATOM      5  C   LIG    1       22.836 -19.210   4.433  0.00  0.00    +0.022 C 
ATOM      6  C   LIG    1       24.153 -19.032   3.814  0.00  0.00    +0.130 C 
ATOM      7  N   LIG    1       25.232 -19.729   3.807  0.00  0.00    -0.191 NA
ATOM      8  N   LIG    1       25.405 -20.900   4.436  0.00  0.00    -0.237 N 
ATOM      9  H   LIG    1       26.333 -21.299   4.313  0.00  0.00    +0.174 HD
ATOM     10  C   LIG    1       24.555 -21.683   5.238  0.00  0.00    +0.055 A 
ATOM     11  C   LIG    1       25.129 -22.884   5.730  0.00  0.00    +0.025 A 
ATOM     12  C   LIG    1       24.429 -23.779   6.539  0.00  0.00    +0.002 A 
ENDROOT
TORSDOF 0
ENDMDL
MODEL 7
REMARK VINA RESULT:      -6.6      1.914      4.363
REMARK  Name = *****
REMARK                            x       y       z     vdW  Elec       q    Type
REMARK                         _______ _______ _______ _____ _____    ______ ____
ROOT
ATOM      1  C   LIG    1       28.536 -19.910   6.380  0.00  0.00    +0.001 A 
ATOM      2  C   LIG    1       27.432 -19.996   5.535  0.00  0.00    +0.010 A 
ATOM      3  C   LIG    1       26.139 -20.317   6.016  0.00  0.00    -0.002 A 
ATOM      4  C   LIG    1       25.098 -20.363   4.988  0.00  0.00    +0.011 C 
ATOM      5  C   LIG    1       23.803 -20.634   5.136  0.00  0.00    +0.022 C 
ATOM      6  C   LIG    1       23.120 -20.955   6.392  0.00  0.00    +0.130 C 
ATOM      7  N   LIG    1       23.507 -21.061   7.612  0.00  0.00    -0.191 NA
ATOM      8  N   LIG    1       24.763 -20.882   8.046  0.00  0.00    -0.237 N 
ATOM      9  H   LIG    1       24.873 -21.012   9.050  0.00  0.00    +0.174 HD
ATOM     10  C   LIG    1       25.960 -20.555   7.385  0.00  0.00    +0.055 A 
ATOM     11  C   LIG    1       27.103 -20.460   8.220  0.00  0.00    +0.025 A 
ATOM     12  C   LIG    1       28.371 -20.144   7.732  0.00  0.00    +0.002 A 
ENDROOT
TORSDOF 0
ENDMDL
MODEL 8
REMARK VINA RESULT:      -6.5      3.343      3.930
REMARK  Name = *****
REMARK                            x       y       z     vdW  Elec       q    Type
REMARK                         _______ _______ _______ _____ _____    ______ ____
ROOT
ATOM      1  C   LIG    1       23.983 -25.726   6.196  0.00  0.00    +0.001 A 
ATOM      2  C   LIG    1       23.441 -24.477   6.492  0.00  0.00    +0.010 A 
ATOM      3  C   LIG    1       24.247 -23.377   6.874  0.00  0.00    -0.002 A 
ATOM      4  C   LIG    1       23.509 -22.143   7.147  0.00  0.00    +0.011 C 
ATOM      5  C   LIG    1       23.990 -20.959   7.522  0.00  0.00    +0.022 C 
ATOM      6  C   LIG    1       25.399 -20.625   7.749  0.00  0.00    +0.130 C 
ATOM      7  N   LIG    1       26.494 -21.291   7.666  0.00  0.00    -0.191 NA
ATOM      8  N   LIG    1       26.594 -22.581   7.314  0.00  0.00    -0.237 N 
ATOM      9  H   LIG    1       27.550 -22.932   7.308  0.00  0.00    +0.174 HD
ATOM     10  C   LIG    1       25.636 -23.546   6.957  0.00  0.00    +0.055 A 
ATOM     11  C   LIG    1       26.158 -24.829   6.649  0.00  0.00    +0.025 A 
ATOM     12  C   LIG    1       25.351 -25.903   6.275  0.00  0.00    +0.002 A 
ENDROOT
TORSDOF 0
ENDMDL
MODEL 9
REMARK VINA RESULT:      -6.5      3.542      4.034
REMARK  Name = *****
REMARK                            x       y       z     vdW  Elec       q    Type
REMARK                         _______ _______ _______ _____ _____    ______ ____
ROOT
ATOM      1  C   LIG    1       25.294 -25.764   6.180  0.00  0.00    +0.001 A 
ATOM      2  C   LIG    1       26.138 -24.726   6.568  0.00  0.00    +0.010 A 
ATOM      3  C   LIG    1       25.640 -23.464   6.978  0.00  0.00    -0.002 A 
ATOM      4  C   LIG    1       26.669 -22.493   7.352  0.00  0.00    +0.011 C 
ATOM      5  C   LIG    1       26.508 -21.241   7.772  0.00  0.00    +0.022 C 
ATOM      6  C   LIG    1       25.232 -20.542   7.956  0.00  0.00    +0.130 C 
ATOM      7  N   LIG    1       24.004 -20.879   7.792  0.00  0.00    -0.191 NA
ATOM      8  N   LIG    1       23.576 -22.077   7.368  0.00  0.00    -0.237 N 
ATOM      9  H   LIG    1       22.564 -22.152   7.300  0.00  0.00    +0.174 HD
ATOM     10  C   LIG    1       24.255 -23.251   6.994  0.00  0.00    +0.055 A 
ATOM     11  C   LIG    1       23.422 -24.327   6.594  0.00  0.00    +0.025 A 
ATOM     12  C   LIG    1       23.926 -25.564   6.192  0.00  0.00    +0.002 A 
ENDROOT
TORSDOF 0
ENDMDL
