MODEL 1
REMARK VINA RESULT:      -7.2      0.000      0.000
REMARK  Name = *****
REMARK                            x       y       z     vdW  Elec       q    Type
REMARK                         _______ _______ _______ _____ _____    ______ ____
ROOT
ATOM      1  C   LIG    1       25.552 -21.106   8.254  0.00  0.00    +0.350 C 
ATOM      2  O   LIG    1       25.490 -21.218   9.474  0.00  0.00    -0.247 OA
ENDROOT
BRANCH   1   3
ATOM      3  O   LIG    1       26.629 -20.544   7.628  0.00  0.00    -0.458 OA
BRANCH   3  11
ATOM      4  C   LIG    1       31.566 -18.900   6.413  0.00  0.00    +0.193 C 
ATOM      5  N   LIG    1       30.192 -19.420   6.857  0.00  0.00    +0.247 N 
ATOM      6  C   LIG    1       30.212 -20.967   6.983  0.00  0.00    +0.102 C 
ATOM      7  C   LIG    1       31.023 -21.250   8.236  0.00  0.00    +0.201 C 
ATOM      8  C   LIG    1       30.854 -20.043   9.119  0.00  0.00    +0.201 C 
ATOM      9  O   LIG    1       30.348 -21.325   9.490  0.00  0.00    -0.357 OA
ATOM     10  C   LIG    1       28.771 -21.462   7.132  0.00  0.00    +0.102 C 
ATOM     11  C   LIG    1       27.938 -20.727   8.214  0.00  0.00    +0.187 C 
ATOM     12  C   LIG    1       28.475 -19.351   8.681  0.00  0.00    +0.102 C 
ATOM     13  C   LIG    1       29.949 -19.091   8.354  0.00  0.00    +0.102 C 
ATOM     14  C   LIG    1       29.188 -18.843   5.865  0.00  0.00    +0.193 C 
ENDBRANCH   3  11
ENDBRANCH   1   3
BRANCH   1  15
ATOM     15  C   LIG    1       24.504 -21.645   7.224  0.00  0.00    +0.226 C 
BRANCH  15  16
ATOM     16  C   LIG    1       24.735 -23.139   6.973  0.00  0.00    +0.037 A 
ATOM     17  S   LIG    1       23.448 -24.198   6.530  0.00  0.00    -0.098 S 
ATOM     18  C   LIG    1       24.494 -25.539   6.375  0.00  0.00    +0.045 A 
ATOM     19  C   LIG    1       25.805 -25.200   6.610  0.00  0.00    +0.008 A 
ATOM     20  C   LIG    1       25.942 -23.826   6.961  0.00  0.00    +0.015 A 
ENDBRANCH  15  16
BRANCH  15  21
ATOM     21  C   LIG    1       24.431 -20.788   5.963  0.00  0.00    +0.037 A 
ATOM     22  S   LIG    1       22.966 -20.007   5.480  0.00  0.00    -0.098 S 
ATOM     23  C   LIG    1       23.662 -19.412   4.042  0.00  0.00    +0.045 A 
ATOM     24  C   LIG    1       25.001 -19.704   3.959  0.00  0.00    +0.008 A 
ATOM     25  C   LIG    1       25.451 -20.473   5.074  0.00  0.00    +0.015 A 
ENDBRANCH  15  21
BRANCH  15  26
ATOM     26  O   LIG    1       23.217 -21.542   7.858  0.00  0.00    -0.369 OA
ATOM     27  H   LIG    1       23.301 -20.844   8.533  0.00  0.00    +0.212 HD
ENDBRANCH  15  26
ENDBRANCH   1  15
TORSDOF 6
ENDMDL
MODEL 2
REMARK VINA RESULT:      -6.9      1.257      2.114
REMARK  Name = *****
REMARK                            x       y       z     vdW  Elec       q    Type
REMARK                         _______ _______ _______ _____ _____    ______ ____
ROOT
ATOM      1  C   LIG    1       25.620 -20.974   8.002  0.00  0.00    +0.350 C 
ATOM      2  O   LIG    1       25.548 -20.322   9.038  0.00  0.00    -0.247 OA
ENDROOT
BRANCH   1   3
ATOM      3  O   LIG    1       26.817 -21.320   7.442  0.00  0.00    -0.458 OA
BRANCH   3  11
ATOM      4  C   LIG    1       31.891 -20.226   8.710  0.00  0.00    +0.193 C 
ATOM      5  N   LIG    1       30.436 -20.450   8.276  0.00  0.00    +0.247 N 
ATOM      6  C   LIG    1       29.571 -19.208   8.620  0.00  0.00    +0.102 C 
ATOM      7  C   LIG    1       29.989 -18.146   7.618  0.00  0.00    +0.201 C 
ATOM      8  C   LIG    1       30.469 -18.891   6.402  0.00  0.00    +0.201 C 
ATOM      9  O   LIG    1       29.303 -18.069   6.370  0.00  0.00    -0.357 OA
ATOM     10  C   LIG    1       28.095 -19.580   8.449  0.00  0.00    +0.102 C 
ATOM     11  C   LIG    1       27.749 -20.269   7.104  0.00  0.00    +0.187 C 
ATOM     12  C   LIG    1       28.935 -20.883   6.318  0.00  0.00    +0.102 C 
ATOM     13  C   LIG    1       30.316 -20.367   6.731  0.00  0.00    +0.102 C 
ATOM     14  C   LIG    1       30.006 -21.763   8.920  0.00  0.00    +0.193 C 
ENDBRANCH   3  11
ENDBRANCH   1   3
BRANCH   1  15
ATOM     15  C   LIG    1       24.415 -21.585   7.211  0.00  0.00    +0.226 C 
BRANCH  15  16
ATOM     16  C   LIG    1       24.674 -23.069   6.926  0.00  0.00    +0.037 A 
ATOM     17  S   LIG    1       23.394 -24.159   6.542  0.00  0.00    -0.098 S 
ATOM     18  C   LIG    1       24.467 -25.466   6.307  0.00  0.00    +0.045 A 
ATOM     19  C   LIG    1       25.779 -25.093   6.472  0.00  0.00    +0.008 A 
ATOM     20  C   LIG    1       25.897 -23.720   6.835  0.00  0.00    +0.015 A 
ENDBRANCH  15  16
BRANCH  15  21
ATOM     21  C   LIG    1       24.039 -20.754   5.987  0.00  0.00    +0.037 A 
ATOM     22  S   LIG    1       25.076 -20.650   4.607  0.00  0.00    -0.098 S 
ATOM     23  C   LIG    1       24.053 -19.535   3.822  0.00  0.00    +0.045 A 
ATOM     24  C   LIG    1       22.897 -19.310   4.528  0.00  0.00    +0.008 A 
ATOM     25  C   LIG    1       22.876 -20.030   5.761  0.00  0.00    +0.015 A 
ENDBRANCH  15  21
BRANCH  15  26
ATOM     26  O   LIG    1       23.281 -21.541   8.095  0.00  0.00    -0.369 OA
ATOM     27  H   LIG    1       22.588 -21.046   7.622  0.00  0.00    +0.212 HD
ENDBRANCH  15  26
ENDBRANCH   1  15
TORSDOF 6
ENDMDL
MODEL 3
REMARK VINA RESULT:      -6.6      1.147      3.447
REMARK  Name = *****
REMARK                            x       y       z     vdW  Elec       q    Type
REMARK                         _______ _______ _______ _____ _____    ______ ____
ROOT
ATOM      1  C   LIG    1       25.548 -20.767   7.506  0.00  0.00    +0.350 C 
ATOM      2  O   LIG    1       25.049 -20.965   8.609  0.00  0.00    -0.247 OA
ENDROOT
BRANCH   1   3
ATOM      3  O   LIG    1       26.694 -20.041   7.345  0.00  0.00    -0.458 OA
BRANCH   3  11
ATOM      4  C   LIG    1       31.905 -18.947   6.896  0.00  0.00    +0.193 C 
ATOM      5  N   LIG    1       30.434 -19.327   7.115  0.00  0.00    +0.247 N 
ATOM      6  C   LIG    1       30.249 -20.864   7.001  0.00  0.00    +0.102 C 
ATOM      7  C   LIG    1       30.863 -21.431   8.269  0.00  0.00    +0.201 C 
ATOM      8  C   LIG    1       30.741 -20.349   9.307  0.00  0.00    +0.201 C 
ATOM      9  O   LIG    1       30.040 -21.586   9.423  0.00  0.00    -0.357 OA
ATOM     10  C   LIG    1       28.749 -21.170   6.928  0.00  0.00    +0.102 C 
ATOM     11  C   LIG    1       27.891 -20.485   8.022  0.00  0.00    +0.187 C 
ATOM     12  C   LIG    1       28.534 -19.276   8.748  0.00  0.00    +0.102 C 
ATOM     13  C   LIG    1       30.057 -19.182   8.614  0.00  0.00    +0.102 C 
ATOM     14  C   LIG    1       29.634 -18.483   6.130  0.00  0.00    +0.193 C 
ENDBRANCH   3  11
ENDBRANCH   1   3
BRANCH   1  15
ATOM     15  C   LIG    1       25.045 -21.359   6.147  0.00  0.00    +0.226 C 
BRANCH  15  16
ATOM     16  C   LIG    1       24.120 -20.355   5.448  0.00  0.00    +0.037 A 
ATOM     17  S   LIG    1       24.515 -19.666   3.918  0.00  0.00    -0.098 S 
ATOM     18  C   LIG    1       23.044 -18.804   3.833  0.00  0.00    +0.045 A 
ATOM     19  C   LIG    1       22.237 -19.053   4.917  0.00  0.00    +0.008 A 
ATOM     20  C   LIG    1       22.858 -19.936   5.848  0.00  0.00    +0.015 A 
ENDBRANCH  15  16
BRANCH  15  21
ATOM     21  C   LIG    1       24.466 -22.763   6.299  0.00  0.00    +0.037 A 
ATOM     22  S   LIG    1       25.418 -24.174   6.001  0.00  0.00    -0.098 S 
ATOM     23  C   LIG    1       24.097 -25.220   6.262  0.00  0.00    +0.045 A 
ATOM     24  C   LIG    1       22.974 -24.539   6.665  0.00  0.00    +0.008 A 
ATOM     25  C   LIG    1       23.191 -23.130   6.712  0.00  0.00    +0.015 A 
ENDBRANCH  15  21
BRANCH  15  26
ATOM     26  O   LIG    1       26.203 -21.487   5.303  0.00  0.00    -0.369 OA
ATOM     27  H   LIG    1       25.942 -21.141   4.430  0.00  0.00    +0.212 HD
ENDBRANCH  15  26
ENDBRANCH   1  15
TORSDOF 6
ENDMDL
MODEL 4
REMARK VINA RESULT:      -6.3      1.543      3.945
REMARK  Name = *****
REMARK                            x       y       z     vdW  Elec       q    Type
REMARK                         _______ _______ _______ _____ _____    ______ ____
ROOT
ATOM      1  C   LIG    1       25.590 -20.895   7.487  0.00  0.00    +0.350 C 
ATOM      2  O   LIG    1       24.916 -20.340   8.348  0.00  0.00    -0.247 OA
ENDROOT
BRANCH   1   3
ATOM      3  O   LIG    1       26.917 -21.169   7.666  0.00  0.00    -0.458 OA
BRANCH   3  11
ATOM      4  C   LIG    1       32.048 -20.249   8.838  0.00  0.00    +0.193 C 
ATOM      5  N   LIG    1       30.579 -20.425   8.429  0.00  0.00    +0.247 N 
ATOM      6  C   LIG    1       29.770 -19.140   8.751  0.00  0.00    +0.102 C 
ATOM      7  C   LIG    1       30.216 -18.122   7.717  0.00  0.00    +0.201 C 
ATOM      8  C   LIG    1       30.649 -18.917   6.514  0.00  0.00    +0.201 C 
ATOM      9  O   LIG    1       29.516 -18.050   6.476  0.00  0.00    -0.357 OA
ATOM     10  C   LIG    1       28.278 -19.457   8.610  0.00  0.00    +0.102 C 
ATOM     11  C   LIG    1       27.885 -20.165   7.288  0.00  0.00    +0.187 C 
ATOM     12  C   LIG    1       29.034 -20.847   6.503  0.00  0.00    +0.102 C 
ATOM     13  C   LIG    1       30.441 -20.377   6.884  0.00  0.00    +0.102 C 
ATOM     14  C   LIG    1       30.106 -21.702   9.113  0.00  0.00    +0.193 C 
ENDBRANCH   3  11
ENDBRANCH   1   3
BRANCH   1  15
ATOM     15  C   LIG    1       25.066 -21.452   6.121  0.00  0.00    +0.226 C 
BRANCH  15  16
ATOM     16  C   LIG    1       24.160 -20.416   5.445  0.00  0.00    +0.037 A 
ATOM     17  S   LIG    1       24.608 -19.638   3.973  0.00  0.00    -0.098 S 
ATOM     18  C   LIG    1       23.133 -18.783   3.880  0.00  0.00    +0.045 A 
ATOM     19  C   LIG    1       22.287 -19.099   4.916  0.00  0.00    +0.008 A 
ATOM     20  C   LIG    1       22.879 -20.029   5.818  0.00  0.00    +0.015 A 
ENDBRANCH  15  16
BRANCH  15  21
ATOM     21  C   LIG    1       24.456 -22.845   6.255  0.00  0.00    +0.037 A 
ATOM     22  S   LIG    1       25.328 -24.265   5.794  0.00  0.00    -0.098 S 
ATOM     23  C   LIG    1       24.002 -25.285   6.125  0.00  0.00    +0.045 A 
ATOM     24  C   LIG    1       22.945 -24.595   6.668  0.00  0.00    +0.008 A 
ATOM     25  C   LIG    1       23.214 -23.197   6.767  0.00  0.00    +0.015 A 
ENDBRANCH  15  21
BRANCH  15  26
ATOM     26  O   LIG    1       26.215 -21.593   5.268  0.00  0.00    -0.369 OA
ATOM     27  H   LIG    1       26.312 -20.744   4.801  0.00  0.00    +0.212 HD
ENDBRANCH  15  26
ENDBRANCH   1  15
TORSDOF 6
ENDMDL
MODEL 5
REMARK VINA RESULT:      -5.8      7.246      9.692
REMARK  Name = *****
REMARK                            x       y       z     vdW  Elec       q    Type
REMARK                         _______ _______ _______ _____ _____    ______ ____
ROOT
ATOM      1  C   LIG    1       25.869 -30.447   8.723  0.00  0.00    +0.350 C 
ATOM      2  O   LIG    1       26.911 -31.088   8.632  0.00  0.00    -0.247 OA
ENDROOT
BRANCH   1   3
ATOM      3  O   LIG    1       25.452 -29.899   9.903  0.00  0.00    -0.458 OA
BRANCH   3  11
ATOM      4  C   LIG    1       25.280 -28.055  14.915  0.00  0.00    +0.193 C 
ATOM      5  N   LIG    1       25.431 -28.631  13.501  0.00  0.00    +0.247 N 
ATOM      6  C   LIG    1       26.711 -28.074  12.822  0.00  0.00    +0.102 C 
ATOM      7  C   LIG    1       27.865 -28.773  13.520  0.00  0.00    +0.201 C 
ATOM      8  C   LIG    1       27.319 -30.091  14.002  0.00  0.00    +0.201 C 
ATOM      9  O   LIG    1       28.333 -30.016  13.000  0.00  0.00    -0.357 OA
ATOM     10  C   LIG    1       26.667 -28.431  11.333  0.00  0.00    +0.102 C 
ATOM     11  C   LIG    1       26.358 -29.920  11.029  0.00  0.00    +0.187 C 
ATOM     12  C   LIG    1       25.714 -30.739  12.176  0.00  0.00    +0.102 C 
ATOM     13  C   LIG    1       25.863 -30.121  13.569  0.00  0.00    +0.102 C 
ATOM     14  C   LIG    1       24.115 -28.339  12.789  0.00  0.00    +0.193 C 
ENDBRANCH   3  11
ENDBRANCH   1   3
BRANCH   1  15
ATOM     15  C   LIG    1       24.910 -30.073   7.543  0.00  0.00    +0.226 C 
BRANCH  15  16
ATOM     16  C   LIG    1       24.952 -31.164   6.467  0.00  0.00    +0.037 A 
ATOM     17  S   LIG    1       23.711 -32.352   6.325  0.00  0.00    -0.098 S 
ATOM     18  C   LIG    1       24.429 -33.058   4.946  0.00  0.00    +0.045 A 
ATOM     19  C   LIG    1       25.568 -32.393   4.560  0.00  0.00    +0.008 A 
ATOM     20  C   LIG    1       25.873 -31.312   5.437  0.00  0.00    +0.015 A 
ENDBRANCH  15  16
BRANCH  15  21
ATOM     21  C   LIG    1       25.144 -28.656   7.027  0.00  0.00    +0.037 A 
ATOM     22  S   LIG    1       24.308 -28.045   5.643  0.00  0.00    -0.098 S 
ATOM     23  C   LIG    1       25.162 -26.569   5.678  0.00  0.00    +0.045 A 
ATOM     24  C   LIG    1       25.995 -26.483   6.766  0.00  0.00    +0.008 A 
ATOM     25  C   LIG    1       25.967 -27.671   7.556  0.00  0.00    +0.015 A 
ENDBRANCH  15  21
BRANCH  15  26
ATOM     26  O   LIG    1       23.575 -30.094   8.078  0.00  0.00    -0.369 OA
ATOM     27  H   LIG    1       23.019 -30.525   7.404  0.00  0.00    +0.212 HD
ENDBRANCH  15  26
ENDBRANCH   1  15
TORSDOF 6
ENDMDL
MODEL 6
REMARK VINA RESULT:      -5.6      7.227      9.859
REMARK  Name = *****
REMARK                            x       y       z     vdW  Elec       q    Type
REMARK                         _______ _______ _______ _____ _____    ______ ____
ROOT
ATOM      1  C   LIG    1       23.934 -30.346   8.460  0.00  0.00    +0.350 C 
ATOM      2  O   LIG    1       22.990 -31.061   8.780  0.00  0.00    -0.247 OA
ENDROOT
BRANCH   1   3
ATOM      3  O   LIG    1       24.684 -29.674   9.384  0.00  0.00    -0.458 OA
BRANCH   3  11
ATOM      4  C   LIG    1       27.110 -28.170  13.900  0.00  0.00    +0.193 C 
ATOM      5  N   LIG    1       26.362 -28.685  12.663  0.00  0.00    +0.247 N 
ATOM      6  C   LIG    1       26.734 -30.165  12.382  0.00  0.00    +0.102 C 
ATOM      7  C   LIG    1       26.034 -30.962  13.469  0.00  0.00    +0.201 C 
ATOM      8  C   LIG    1       24.828 -30.152  13.864  0.00  0.00    +0.201 C 
ATOM      9  O   LIG    1       24.706 -31.427  13.235  0.00  0.00    -0.357 OA
ATOM     10  C   LIG    1       26.210 -30.544  10.993  0.00  0.00    +0.102 C 
ATOM     11  C   LIG    1       24.725 -30.180  10.737  0.00  0.00    +0.187 C 
ATOM     12  C   LIG    1       24.098 -29.127  11.685  0.00  0.00    +0.102 C 
ATOM     13  C   LIG    1       24.861 -28.906  12.994  0.00  0.00    +0.102 C 
ATOM     14  C   LIG    1       26.671 -27.694  11.547  0.00  0.00    +0.193 C 
ENDBRANCH   3  11
ENDBRANCH   1   3
BRANCH   1  15
ATOM     15  C   LIG    1       24.492 -30.150   7.011  0.00  0.00    +0.226 C 
BRANCH  15  16
ATOM     16  C   LIG    1       25.529 -31.235   6.697  0.00  0.00    +0.037 A 
ATOM     17  S   LIG    1       25.855 -31.742   5.081  0.00  0.00    -0.098 S 
ATOM     18  C   LIG    1       27.084 -32.818   5.579  0.00  0.00    +0.045 A 
ATOM     19  C   LIG    1       27.286 -32.777   6.938  0.00  0.00    +0.008 A 
ATOM     20  C   LIG    1       26.388 -31.876   7.579  0.00  0.00    +0.015 A 
ENDBRANCH  15  16
BRANCH  15  21
ATOM     21  C   LIG    1       24.965 -28.721   6.755  0.00  0.00    +0.037 A 
ATOM     22  S   LIG    1       24.395 -27.804   5.405  0.00  0.00    -0.098 S 
ATOM     23  C   LIG    1       25.414 -26.486   5.766  0.00  0.00    +0.045 A 
ATOM     24  C   LIG    1       26.106 -26.677   6.936  0.00  0.00    +0.008 A 
ATOM     25  C   LIG    1       25.830 -27.949   7.520  0.00  0.00    +0.015 A 
ENDBRANCH  15  21
BRANCH  15  26
ATOM     26  O   LIG    1       23.392 -30.379   6.113  0.00  0.00    -0.369 OA
ATOM     27  H   LIG    1       23.510 -29.756   5.374  0.00  0.00    +0.212 HD
ENDBRANCH  15  26
ENDBRANCH   1  15
TORSDOF 6
ENDMDL
MODEL 7
REMARK VINA RESULT:      -5.6      1.684      2.472
REMARK  Name = *****
REMARK                            x       y       z     vdW  Elec       q    Type
REMARK                         _______ _______ _______ _____ _____    ______ ____
ROOT
ATOM      1  C   LIG    1       26.908 -20.398   6.195  0.00  0.00    +0.350 C 
ATOM      2  O   LIG    1       27.373 -20.198   5.078  0.00  0.00    -0.247 OA
ENDROOT
BRANCH   1   3
ATOM      3  O   LIG    1       27.594 -20.087   7.335  0.00  0.00    -0.458 OA
BRANCH   3  11
ATOM      4  C   LIG    1       31.380 -17.929  10.427  0.00  0.00    +0.193 C 
ATOM      5  N   LIG    1       30.376 -18.589   9.472  0.00  0.00    +0.247 N 
ATOM      6  C   LIG    1       30.539 -18.021   8.037  0.00  0.00    +0.102 C 
ATOM      7  C   LIG    1       31.835 -18.620   7.519  0.00  0.00    +0.201 C 
ATOM      8  C   LIG    1       32.006 -19.926   8.246  0.00  0.00    +0.201 C 
ATOM      9  O   LIG    1       31.790 -19.871   6.837  0.00  0.00    -0.357 OA
ATOM     10  C   LIG    1       29.343 -18.475   7.195  0.00  0.00    +0.102 C 
ATOM     11  C   LIG    1       29.034 -19.993   7.268  0.00  0.00    +0.187 C 
ATOM     12  C   LIG    1       29.644 -20.764   8.466  0.00  0.00    +0.102 C 
ATOM     13  C   LIG    1       30.803 -20.050   9.167  0.00  0.00    +0.102 C 
ATOM     14  C   LIG    1       29.006 -18.403  10.114  0.00  0.00    +0.193 C 
ENDBRANCH   3  11
ENDBRANCH   1   3
BRANCH   1  15
ATOM     15  C   LIG    1       25.472 -20.934   6.514  0.00  0.00    +0.226 C 
BRANCH  15  16
ATOM     16  C   LIG    1       25.462 -22.466   6.466  0.00  0.00    +0.037 A 
ATOM     17  S   LIG    1       24.754 -23.331   5.154  0.00  0.00    -0.098 S 
ATOM     18  C   LIG    1       25.212 -24.845   5.796  0.00  0.00    +0.045 A 
ATOM     19  C   LIG    1       25.927 -24.716   6.963  0.00  0.00    +0.008 A 
ATOM     20  C   LIG    1       26.062 -23.352   7.352  0.00  0.00    +0.015 A 
ENDBRANCH  15  16
BRANCH  15  21
ATOM     21  C   LIG    1       24.396 -20.260   5.667  0.00  0.00    +0.037 A 
ATOM     22  S   LIG    1       24.733 -19.658   4.082  0.00  0.00    -0.098 S 
ATOM     23  C   LIG    1       23.163 -19.017   3.904  0.00  0.00    +0.045 A 
ATOM     24  C   LIG    1       22.356 -19.328   4.970  0.00  0.00    +0.008 A 
ATOM     25  C   LIG    1       23.055 -20.064   5.973  0.00  0.00    +0.015 A 
ENDBRANCH  15  21
BRANCH  15  26
ATOM     26  O   LIG    1       25.196 -20.576   7.880  0.00  0.00    -0.369 OA
ATOM     27  H   LIG    1       25.755 -21.153   8.430  0.00  0.00    +0.212 HD
ENDBRANCH  15  26
ENDBRANCH   1  15
TORSDOF 6
ENDMDL
MODEL 8
REMARK VINA RESULT:      -5.4      7.468     10.059
REMARK  Name = *****
REMARK                            x       y       z     vdW  Elec       q    Type
REMARK                         _______ _______ _______ _____ _____    ______ ____
ROOT
ATOM      1  C   LIG    1       24.654 -30.101   9.600  0.00  0.00    +0.350 C 
ATOM      2  O   LIG    1       23.428 -30.101   9.646  0.00  0.00    -0.247 OA
ENDROOT
BRANCH   1   3
ATOM      3  O   LIG    1       25.424 -30.041  10.728  0.00  0.00    -0.458 OA
BRANCH   3  11
ATOM      4  C   LIG    1       28.198 -27.966  14.796  0.00  0.00    +0.193 C 
ATOM      5  N   LIG    1       27.326 -28.476  13.640  0.00  0.00    +0.247 N 
ATOM      6  C   LIG    1       25.893 -28.798  14.144  0.00  0.00    +0.102 C 
ATOM      7  C   LIG    1       25.247 -27.446  14.389  0.00  0.00    +0.201 C 
ATOM      8  C   LIG    1       25.931 -26.485  13.453  0.00  0.00    +0.201 C 
ATOM      9  O   LIG    1       24.548 -26.813  13.319  0.00  0.00    -0.357 OA
ATOM     10  C   LIG    1       25.155 -29.574  13.048  0.00  0.00    +0.102 C 
ATOM     11  C   LIG    1       25.227 -28.935  11.637  0.00  0.00    +0.187 C 
ATOM     12  C   LIG    1       26.349 -27.891  11.408  0.00  0.00    +0.102 C 
ATOM     13  C   LIG    1       26.955 -27.307  12.688  0.00  0.00    +0.102 C 
ATOM     14  C   LIG    1       28.094 -29.638  13.021  0.00  0.00    +0.193 C 
ENDBRANCH   3  11
ENDBRANCH   1   3
BRANCH   1  15
ATOM     15  C   LIG    1       25.528 -30.258   8.312  0.00  0.00    +0.226 C 
BRANCH  15  16
ATOM     16  C   LIG    1       25.290 -29.073   7.369  0.00  0.00    +0.037 A 
ATOM     17  S   LIG    1       24.231 -29.188   6.013  0.00  0.00    -0.098 S 
ATOM     18  C   LIG    1       24.457 -27.548   5.593  0.00  0.00    +0.045 A 
ATOM     19  C   LIG    1       25.283 -26.898   6.478  0.00  0.00    +0.008 A 
ATOM     20  C   LIG    1       25.768 -27.775   7.491  0.00  0.00    +0.015 A 
ENDBRANCH  15  16
BRANCH  15  21
ATOM     21  C   LIG    1       25.374 -31.632   7.665  0.00  0.00    +0.037 A 
ATOM     22  S   LIG    1       26.613 -32.309   6.667  0.00  0.00    -0.098 S 
ATOM     23  C   LIG    1       25.673 -33.681   6.291  0.00  0.00    +0.045 A 
ATOM     24  C   LIG    1       24.482 -33.692   6.975  0.00  0.00    +0.008 A 
ATOM     25  C   LIG    1       24.320 -32.528   7.785  0.00  0.00    +0.015 A 
ENDBRANCH  15  21
BRANCH  15  26
ATOM     26  O   LIG    1       26.900 -30.161   8.734  0.00  0.00    -0.369 OA
ATOM     27  H   LIG    1       27.181 -29.250   8.535  0.00  0.00    +0.212 HD
ENDBRANCH  15  26
ENDBRANCH   1  15
TORSDOF 6
ENDMDL
MODEL 9
REMARK VINA RESULT:      -5.4      7.501      9.986
REMARK  Name = *****
REMARK                            x       y       z     vdW  Elec       q    Type
REMARK                         _______ _______ _______ _____ _____    ______ ____
ROOT
ATOM      1  C   LIG    1       26.568 -29.566   9.847  0.00  0.00    +0.350 C 
ATOM      2  O   LIG    1       27.793 -29.624   9.883  0.00  0.00    -0.247 OA
ENDROOT
BRANCH   1   3
ATOM      3  O   LIG    1       25.839 -28.956  10.829  0.00  0.00    -0.458 OA
BRANCH   3  11
ATOM      4  C   LIG    1       24.279 -26.792  15.459  0.00  0.00    +0.193 C 
ATOM      5  N   LIG    1       24.827 -27.439  14.180  0.00  0.00    +0.247 N 
ATOM      6  C   LIG    1       26.119 -26.715  13.716  0.00  0.00    +0.102 C 
ATOM      7  C   LIG    1       27.187 -27.139  14.709  0.00  0.00    +0.201 C 
ATOM      8  C   LIG    1       26.767 -28.492  15.216  0.00  0.00    +0.201 C 
ATOM      9  O   LIG    1       27.950 -28.313  14.439  0.00  0.00    -0.357 OA
ATOM     10  C   LIG    1       26.461 -27.187  12.300  0.00  0.00    +0.102 C 
ATOM     11  C   LIG    1       26.467 -28.726  12.110  0.00  0.00    +0.187 C 
ATOM     12  C   LIG    1       25.727 -29.557  13.188  0.00  0.00    +0.102 C 
ATOM     13  C   LIG    1       25.465 -28.817  14.503  0.00  0.00    +0.102 C 
ATOM     14  C   LIG    1       23.670 -27.444  13.187  0.00  0.00    +0.193 C 
ENDBRANCH   3  11
ENDBRANCH   1   3
BRANCH   1  15
ATOM     15  C   LIG    1       25.654 -30.073   8.682  0.00  0.00    +0.226 C 
BRANCH  15  16
ATOM     16  C   LIG    1       25.412 -28.942   7.676  0.00  0.00    +0.037 A 
ATOM     17  S   LIG    1       24.293 -29.106   6.374  0.00  0.00    -0.098 S 
ATOM     18  C   LIG    1       24.550 -27.504   5.842  0.00  0.00    +0.045 A 
ATOM     19  C   LIG    1       25.433 -26.828   6.649  0.00  0.00    +0.008 A 
ATOM     20  C   LIG    1       25.934 -27.655   7.696  0.00  0.00    +0.015 A 
ENDBRANCH  15  16
BRANCH  15  21
ATOM     21  C   LIG    1       24.389 -30.761   9.189  0.00  0.00    +0.037 A 
ATOM     22  S   LIG    1       24.196 -32.477   9.109  0.00  0.00    -0.098 S 
ATOM     23  C   LIG    1       22.604 -32.407   9.717  0.00  0.00    +0.045 A 
ATOM     24  C   LIG    1       22.245 -31.130  10.072  0.00  0.00    +0.008 A 
ATOM     25  C   LIG    1       23.278 -30.187   9.793  0.00  0.00    +0.015 A 
ENDBRANCH  15  21
BRANCH  15  26
ATOM     26  O   LIG    1       26.407 -31.077   7.978  0.00  0.00    -0.369 OA
ATOM     27  H   LIG    1       27.077 -30.598   7.457  0.00  0.00    +0.212 HD
ENDBRANCH  15  26
ENDBRANCH   1  15
TORSDOF 6
ENDMDL
