MODEL 1
REMARK VINA RESULT:      -4.5      0.000      0.000
REMARK  Name = *****
REMARK                            x       y       z     vdW  Elec       q    Type
REMARK                         _______ _______ _______ _____ _____    ______ ____
ROOT
ATOM      1  C   LIG    1       25.944 -15.378   3.111  0.00  0.00    +0.069 C 
ENDROOT
BRANCH   1   2
ATOM      2  C   LIG    1       25.040 -16.574   3.481  0.00  0.00    -0.038 A 
ATOM      3  C   LIG    1       23.739 -16.401   3.982  0.00  0.00    +0.005 A 
ATOM      4  C   LIG    1       22.943 -17.487   4.357  0.00  0.00    +0.015 A 
ATOM      5  C   LIG    1       23.436 -18.779   4.225  0.00  0.00    +0.018 A 
ATOM      6 BR   LIG    1       22.350 -20.244   4.726  0.00  0.00    -0.050 Br
ATOM      7  C   LIG    1       24.716 -18.990   3.724  0.00  0.00    +0.015 A 
ATOM      8  C   LIG    1       25.514 -17.897   3.350  0.00  0.00    +0.005 A 
ENDBRANCH   1   2
BRANCH   1   9
ATOM      9  C   LIG    1       25.195 -14.045   3.081  0.00  0.00    +0.049 A 
ATOM     10  N   LIG    1       25.221 -13.348   1.904  0.00  0.00    -0.259 NA
ATOM     11  C   LIG    1       24.549 -12.178   1.846  0.00  0.00    +0.111 A 
ATOM     12  C   LIG    1       23.829 -11.641   2.896  0.00  0.00    +0.020 A 
ATOM     13  C   LIG    1       23.827 -12.343   4.098  0.00  0.00    +0.003 A 
ATOM     14  C   LIG    1       24.524 -13.544   4.194  0.00  0.00    +0.024 A 
ENDBRANCH   1   9
BRANCH   1  15
ATOM     15  C   LIG    1       27.251 -15.354   3.966  0.00  0.00    +0.029 C 
BRANCH  15  16
ATOM     16  C   LIG    1       28.131 -14.112   3.760  0.00  0.00    +0.085 C 
BRANCH  16  18
ATOM     17  C   LIG    1       27.422 -13.400   6.010  0.00  0.00    +0.104 C 
ATOM     18  N   LIG    1       27.823 -12.979   4.665  0.00  0.00    -0.308 NA
ATOM     19  C   LIG    1       29.008 -12.116   4.768  0.00  0.00    +0.104 C 
ENDBRANCH  16  18
ENDBRANCH  15  16
ENDBRANCH   1  15
TORSDOF 5
ENDMDL
MODEL 2
REMARK VINA RESULT:      -3.9      3.885      7.081
REMARK  Name = *****
REMARK                            x       y       z     vdW  Elec       q    Type
REMARK                         _______ _______ _______ _____ _____    ______ ____
ROOT
ATOM      1  C   LIG    1       25.661 -19.269   3.721  0.00  0.00    +0.069 C 
ENDROOT
BRANCH   1   2
ATOM      2  C   LIG    1       25.395 -17.747   3.681  0.00  0.00    -0.038 A 
ATOM      3  C   LIG    1       26.387 -16.824   3.312  0.00  0.00    +0.005 A 
ATOM      4  C   LIG    1       26.151 -15.446   3.322  0.00  0.00    +0.015 A 
ATOM      5  C   LIG    1       24.902 -14.964   3.694  0.00  0.00    +0.018 A 
ATOM      6 BR   LIG    1       24.589 -13.099   3.697  0.00  0.00    -0.050 Br
ATOM      7  C   LIG    1       23.893 -15.849   4.059  0.00  0.00    +0.015 A 
ATOM      8  C   LIG    1       24.134 -17.232   4.049  0.00  0.00    +0.005 A 
ENDBRANCH   1   2
BRANCH   1   9
ATOM      9  C   LIG    1       26.510 -19.698   4.918  0.00  0.00    +0.049 A 
ATOM     10  N   LIG    1       27.831 -19.344   4.896  0.00  0.00    -0.259 NA
ATOM     11  C   LIG    1       28.598 -19.694   5.952  0.00  0.00    +0.111 A 
ATOM     12  C   LIG    1       28.135 -20.380   7.057  0.00  0.00    +0.020 A 
ATOM     13  C   LIG    1       26.795 -20.760   7.062  0.00  0.00    +0.003 A 
ATOM     14  C   LIG    1       25.983 -20.428   5.980  0.00  0.00    +0.024 A 
ENDBRANCH   1   9
BRANCH   1  15
ATOM     15  C   LIG    1       24.344 -20.091   3.546  0.00  0.00    +0.029 C 
BRANCH  15  16
ATOM     16  C   LIG    1       24.226 -21.316   4.465  0.00  0.00    +0.085 C 
BRANCH  16  18
ATOM     17  C   LIG    1       23.099 -21.571   6.641  0.00  0.00    +0.104 C 
ATOM     18  N   LIG    1       22.938 -21.424   5.192  0.00  0.00    -0.308 NA
ATOM     19  C   LIG    1       22.136 -20.223   4.919  0.00  0.00    +0.104 C 
ENDBRANCH  16  18
ENDBRANCH  15  16
ENDBRANCH   1  15
TORSDOF 5
ENDMDL
MODEL 3
REMARK VINA RESULT:      -3.8      3.813      6.981
REMARK  Name = *****
REMARK                            x       y       z     vdW  Elec       q    Type
REMARK                         _______ _______ _______ _____ _____    ______ ____
ROOT
ATOM      1  C   LIG    1       25.660 -19.123   3.635  0.00  0.00    +0.069 C 
ENDROOT
BRANCH   1   2
ATOM      2  C   LIG    1       25.406 -17.600   3.667  0.00  0.00    -0.038 A 
ATOM      3  C   LIG    1       24.159 -17.056   4.014  0.00  0.00    +0.005 A 
ATOM      4  C   LIG    1       23.925 -15.678   3.997  0.00  0.00    +0.015 A 
ATOM      5  C   LIG    1       24.949 -14.810   3.641  0.00  0.00    +0.018 A 
ATOM      6 BR   LIG    1       24.628 -12.947   3.629  0.00  0.00    -0.050 Br
ATOM      7  C   LIG    1       26.201 -15.312   3.299  0.00  0.00    +0.015 A 
ATOM      8  C   LIG    1       26.432 -16.696   3.315  0.00  0.00    +0.005 A 
ENDBRANCH   1   2
BRANCH   1   9
ATOM      9  C   LIG    1       26.442 -19.627   4.848  0.00  0.00    +0.049 A 
ATOM     10  N   LIG    1       27.771 -19.312   4.901  0.00  0.00    -0.259 NA
ATOM     11  C   LIG    1       28.480 -19.727   5.973  0.00  0.00    +0.111 A 
ATOM     12  C   LIG    1       27.947 -20.445   7.026  0.00  0.00    +0.020 A 
ATOM     13  C   LIG    1       26.599 -20.785   6.956  0.00  0.00    +0.003 A 
ATOM     14  C   LIG    1       25.846 -20.385   5.854  0.00  0.00    +0.024 A 
ENDBRANCH   1   9
BRANCH   1  15
ATOM     15  C   LIG    1       24.348 -19.922   3.345  0.00  0.00    +0.029 C 
BRANCH  15  16
ATOM     16  C   LIG    1       24.145 -21.163   4.227  0.00  0.00    +0.085 C 
BRANCH  16  18
ATOM     17  C   LIG    1       22.941 -21.572   6.338  0.00  0.00    +0.104 C 
ATOM     18  N   LIG    1       22.835 -21.222   4.919  0.00  0.00    -0.308 NA
ATOM     19  C   LIG    1       22.172 -19.917   4.797  0.00  0.00    +0.104 C 
ENDBRANCH  16  18
ENDBRANCH  15  16
ENDBRANCH   1  15
TORSDOF 5
ENDMDL
MODEL 4
REMARK VINA RESULT:      -3.6      2.475      3.391
REMARK  Name = *****
REMARK                            x       y       z     vdW  Elec       q    Type
REMARK                         _______ _______ _______ _____ _____    ______ ____
ROOT
ATOM      1  C   LIG    1       26.200 -17.335   3.299  0.00  0.00    +0.069 C 
ENDROOT
BRANCH   1   2
ATOM      2  C   LIG    1       25.082 -18.334   3.670  0.00  0.00    -0.038 A 
ATOM      3  C   LIG    1       23.761 -17.922   3.911  0.00  0.00    +0.005 A 
ATOM      4  C   LIG    1       22.765 -18.827   4.290  0.00  0.00    +0.015 A 
ATOM      5  C   LIG    1       23.074 -20.175   4.423  0.00  0.00    +0.018 A 
ATOM      6 BR   LIG    1       21.719 -21.394   4.927  0.00  0.00    -0.050 Br
ATOM      7  C   LIG    1       24.369 -20.621   4.184  0.00  0.00    +0.015 A 
ATOM      8  C   LIG    1       25.368 -19.709   3.806  0.00  0.00    +0.005 A 
ENDBRANCH   1   2
BRANCH   1   9
ATOM      9  C   LIG    1       25.735 -15.878   3.323  0.00  0.00    +0.049 A 
ATOM     10  N   LIG    1       26.460 -14.986   2.583  0.00  0.00    -0.259 NA
ATOM     11  C   LIG    1       26.057 -13.697   2.571  0.00  0.00    +0.111 A 
ATOM     12  C   LIG    1       24.955 -13.220   3.253  0.00  0.00    +0.020 A 
ATOM     13  C   LIG    1       24.236 -14.128   4.026  0.00  0.00    +0.003 A 
ATOM     14  C   LIG    1       24.637 -15.461   4.071  0.00  0.00    +0.024 A 
ENDBRANCH   1   9
BRANCH   1  15
ATOM     15  C   LIG    1       27.507 -17.600   4.115  0.00  0.00    +0.029 C 
BRANCH  15  16
ATOM     16  C   LIG    1       27.509 -18.913   4.912  0.00  0.00    +0.085 C 
BRANCH  16  18
ATOM     17  C   LIG    1       29.475 -18.262   6.249  0.00  0.00    +0.104 C 
ATOM     18  N   LIG    1       28.834 -19.309   5.448  0.00  0.00    -0.308 NA
ATOM     19  C   LIG    1       28.672 -20.512   6.276  0.00  0.00    +0.104 C 
ENDBRANCH  16  18
ENDBRANCH  15  16
ENDBRANCH   1  15
TORSDOF 5
ENDMDL
MODEL 5
REMARK VINA RESULT:      -3.4      1.360      3.278
REMARK  Name = *****
REMARK                            x       y       z     vdW  Elec       q    Type
REMARK                         _______ _______ _______ _____ _____    ______ ____
ROOT
ATOM      1  C   LIG    1       24.367 -14.899   4.362  0.00  0.00    +0.069 C 
ENDROOT
BRANCH   1   2
ATOM      2  C   LIG    1       24.258 -16.423   4.129  0.00  0.00    -0.038 A 
ATOM      3  C   LIG    1       25.335 -17.185   3.649  0.00  0.00    +0.005 A 
ATOM      4  C   LIG    1       25.214 -18.556   3.399  0.00  0.00    +0.015 A 
ATOM      5  C   LIG    1       24.004 -19.195   3.639  0.00  0.00    +0.018 A 
ATOM      6 BR   LIG    1       23.851 -21.050   3.307  0.00  0.00    -0.050 Br
ATOM      7  C   LIG    1       22.918 -18.474   4.123  0.00  0.00    +0.015 A 
ATOM      8  C   LIG    1       23.042 -17.097   4.371  0.00  0.00    +0.005 A 
ENDBRANCH   1   2
BRANCH   1   9
ATOM      9  C   LIG    1       25.784 -14.362   4.157  0.00  0.00    +0.049 A 
ATOM     10  N   LIG    1       26.362 -14.592   2.939  0.00  0.00    -0.259 NA
ATOM     11  C   LIG    1       27.606 -14.110   2.726  0.00  0.00    +0.111 A 
ATOM     12  C   LIG    1       28.331 -13.392   3.656  0.00  0.00    +0.020 A 
ATOM     13  C   LIG    1       27.748 -13.182   4.903  0.00  0.00    +0.003 A 
ATOM     14  C   LIG    1       26.473 -13.682   5.158  0.00  0.00    +0.024 A 
ENDBRANCH   1   9
BRANCH   1  15
ATOM     15  C   LIG    1       23.268 -14.114   3.576  0.00  0.00    +0.029 C 
BRANCH  15  16
ATOM     16  C   LIG    1       23.774 -13.381   2.325  0.00  0.00    +0.085 C 
BRANCH  16  18
ATOM     17  C   LIG    1       23.771 -11.447   3.852  0.00  0.00    +0.104 C 
ATOM     18  N   LIG    1       23.862 -11.907   2.464  0.00  0.00    -0.308 NA
ATOM     19  C   LIG    1       25.136 -11.450   1.891  0.00  0.00    +0.104 C 
ENDBRANCH  16  18
ENDBRANCH  15  16
ENDBRANCH   1  15
TORSDOF 5
ENDMDL
MODEL 6
REMARK VINA RESULT:      -3.2      3.990      7.211
REMARK  Name = *****
REMARK                            x       y       z     vdW  Elec       q    Type
REMARK                         _______ _______ _______ _____ _____    ______ ____
ROOT
ATOM      1  C   LIG    1       25.888 -19.218   3.777  0.00  0.00    +0.069 C 
ENDROOT
BRANCH   1   2
ATOM      2  C   LIG    1       26.102 -17.690   3.706  0.00  0.00    -0.038 A 
ATOM      3  C   LIG    1       25.056 -16.801   3.410  0.00  0.00    +0.005 A 
ATOM      4  C   LIG    1       25.268 -15.423   3.302  0.00  0.00    +0.015 A 
ATOM      5  C   LIG    1       26.541 -14.905   3.504  0.00  0.00    +0.018 A 
ATOM      6 BR   LIG    1       26.817 -13.039   3.366  0.00  0.00    -0.050 Br
ATOM      7  C   LIG    1       27.600 -15.754   3.807  0.00  0.00    +0.015 A 
ATOM      8  C   LIG    1       27.384 -17.137   3.912  0.00  0.00    +0.005 A 
ENDBRANCH   1   2
BRANCH   1   9
ATOM      9  C   LIG    1       26.623 -19.873   4.947  0.00  0.00    +0.049 A 
ATOM     10  N   LIG    1       25.921 -20.785   5.686  0.00  0.00    -0.259 NA
ATOM     11  C   LIG    1       26.554 -21.392   6.712  0.00  0.00    +0.111 A 
ATOM     12  C   LIG    1       27.869 -21.158   7.062  0.00  0.00    +0.020 A 
ATOM     13  C   LIG    1       28.572 -20.211   6.322  0.00  0.00    +0.003 A 
ATOM     14  C   LIG    1       27.941 -19.555   5.268  0.00  0.00    +0.024 A 
ENDBRANCH   1   9
BRANCH   1  15
ATOM     15  C   LIG    1       24.374 -19.595   3.684  0.00  0.00    +0.029 C 
BRANCH  15  16
ATOM     16  C   LIG    1       23.682 -19.805   5.039  0.00  0.00    +0.085 C 
BRANCH  16  18
ATOM     17  C   LIG    1       21.757 -18.559   4.134  0.00  0.00    +0.104 C 
ATOM     18  N   LIG    1       22.208 -19.642   5.013  0.00  0.00    -0.308 NA
ATOM     19  C   LIG    1       21.597 -20.903   4.569  0.00  0.00    +0.104 C 
ENDBRANCH  16  18
ENDBRANCH  15  16
ENDBRANCH   1  15
TORSDOF 5
ENDMDL
MODEL 7
REMARK VINA RESULT:      -2.6      2.504      3.679
REMARK  Name = *****
REMARK                            x       y       z     vdW  Elec       q    Type
REMARK                         _______ _______ _______ _____ _____    ______ ____
ROOT
ATOM      1  C   LIG    1       26.217 -17.264   3.373  0.00  0.00    +0.069 C 
ENDROOT
BRANCH   1   2
ATOM      2  C   LIG    1       25.073 -18.243   3.719  0.00  0.00    -0.038 A 
ATOM      3  C   LIG    1       25.248 -19.637   3.692  0.00  0.00    +0.005 A 
ATOM      4  C   LIG    1       24.195 -20.517   3.963  0.00  0.00    +0.015 A 
ATOM      5  C   LIG    1       22.941 -20.012   4.281  0.00  0.00    +0.018 A 
ATOM      6 BR   LIG    1       21.525 -21.209   4.655  0.00  0.00    -0.050 Br
ATOM      7  C   LIG    1       22.733 -18.638   4.326  0.00  0.00    +0.015 A 
ATOM      8  C   LIG    1       23.791 -17.757   4.052  0.00  0.00    +0.005 A 
ENDBRANCH   1   2
BRANCH   1   9
ATOM      9  C   LIG    1       25.769 -15.802   3.354  0.00  0.00    +0.049 A 
ATOM     10  N   LIG    1       24.584 -15.511   3.973  0.00  0.00    -0.259 NA
ATOM     11  C   LIG    1       24.177 -14.223   3.988  0.00  0.00    +0.111 A 
ATOM     12  C   LIG    1       24.882 -13.178   3.424  0.00  0.00    +0.020 A 
ATOM     13  C   LIG    1       26.074 -13.483   2.774  0.00  0.00    +0.003 A 
ATOM     14  C   LIG    1       26.512 -14.805   2.727  0.00  0.00    +0.024 A 
ENDBRANCH   1   9
BRANCH   1  15
ATOM     15  C   LIG    1       27.488 -17.529   4.241  0.00  0.00    +0.029 C 
BRANCH  15  16
ATOM     16  C   LIG    1       27.713 -19.002   4.616  0.00  0.00    +0.085 C 
BRANCH  16  18
ATOM     17  C   LIG    1       27.503 -20.514   6.550  0.00  0.00    +0.104 C 
ATOM     18  N   LIG    1       28.018 -19.237   6.048  0.00  0.00    -0.308 NA
ATOM     19  C   LIG    1       29.475 -19.202   6.236  0.00  0.00    +0.104 C 
ENDBRANCH  16  18
ENDBRANCH  15  16
ENDBRANCH   1  15
TORSDOF 5
ENDMDL
MODEL 8
REMARK VINA RESULT:      -1.9      3.204      5.327
REMARK  Name = *****
REMARK                            x       y       z     vdW  Elec       q    Type
REMARK                         _______ _______ _______ _____ _____    ______ ____
ROOT
ATOM      1  C   LIG    1       24.999 -18.368   3.497  0.00  0.00    +0.069 C 
ENDROOT
BRANCH   1   2
ATOM      2  C   LIG    1       26.100 -18.970   4.398  0.00  0.00    -0.038 A 
ATOM      3  C   LIG    1       27.400 -18.441   4.444  0.00  0.00    +0.005 A 
ATOM      4  C   LIG    1       28.403 -19.019   5.228  0.00  0.00    +0.015 A 
ATOM      5  C   LIG    1       28.115 -20.140   5.997  0.00  0.00    +0.018 A 
ATOM      6 BR   LIG    1       29.475 -20.911   7.062  0.00  0.00    -0.050 Br
ATOM      7  C   LIG    1       26.836 -20.686   5.983  0.00  0.00    +0.015 A 
ATOM      8  C   LIG    1       25.832 -20.105   5.193  0.00  0.00    +0.005 A 
ENDBRANCH   1   2
BRANCH   1   9
ATOM      9  C   LIG    1       23.610 -18.940   3.783  0.00  0.00    +0.049 A 
ATOM     10  N   LIG    1       23.533 -20.285   4.021  0.00  0.00    -0.259 NA
ATOM     11  C   LIG    1       22.321 -20.811   4.297  0.00  0.00    +0.111 A 
ATOM     12  C   LIG    1       21.151 -20.079   4.362  0.00  0.00    +0.020 A 
ATOM     13  C   LIG    1       21.231 -18.715   4.094  0.00  0.00    +0.003 A 
ATOM     14  C   LIG    1       22.466 -18.146   3.790  0.00  0.00    +0.024 A 
ENDBRANCH   1   9
BRANCH   1  15
ATOM     15  C   LIG    1       25.054 -16.806   3.481  0.00  0.00    +0.029 C 
BRANCH  15  16
ATOM     16  C   LIG    1       26.439 -16.216   3.176  0.00  0.00    +0.085 C 
BRANCH  16  18
ATOM     17  C   LIG    1       27.949 -14.372   3.802  0.00  0.00    +0.104 C 
ATOM     18  N   LIG    1       26.576 -14.771   3.480  0.00  0.00    -0.308 NA
ATOM     19  C   LIG    1       26.113 -13.995   2.321  0.00  0.00    +0.104 C 
ENDBRANCH  16  18
ENDBRANCH  15  16
ENDBRANCH   1  15
TORSDOF 5
ENDMDL
MODEL 9
REMARK VINA RESULT:      -1.9      3.423      5.575
REMARK  Name = *****
REMARK                            x       y       z     vdW  Elec       q    Type
REMARK                         _______ _______ _______ _____ _____    ______ ____
ROOT
ATOM      1  C   LIG    1       25.864 -17.079   4.197  0.00  0.00    +0.069 C 
ENDROOT
BRANCH   1   2
ATOM      2  C   LIG    1       25.532 -15.676   3.642  0.00  0.00    -0.038 A 
ATOM      3  C   LIG    1       24.326 -15.020   3.938  0.00  0.00    +0.005 A 
ATOM      4  C   LIG    1       24.015 -13.769   3.395  0.00  0.00    +0.015 A 
ATOM      5  C   LIG    1       24.920 -13.142   2.549  0.00  0.00    +0.018 A 
ATOM      6 BR   LIG    1       24.495 -11.447   1.826  0.00  0.00    -0.050 Br
ATOM      7  C   LIG    1       26.128 -13.758   2.240  0.00  0.00    +0.015 A 
ATOM      8  C   LIG    1       26.437 -15.014   2.784  0.00  0.00    +0.005 A 
ENDBRANCH   1   2
BRANCH   1   9
ATOM      9  C   LIG    1       24.732 -18.087   3.991  0.00  0.00    +0.049 A 
ATOM     10  N   LIG    1       25.087 -19.331   3.548  0.00  0.00    -0.259 NA
ATOM     11  C   LIG    1       24.108 -20.246   3.378  0.00  0.00    +0.111 A 
ATOM     12  C   LIG    1       22.771 -20.011   3.630  0.00  0.00    +0.020 A 
ATOM     13  C   LIG    1       22.413 -18.735   4.058  0.00  0.00    +0.003 A 
ATOM     14  C   LIG    1       23.398 -17.765   4.226  0.00  0.00    +0.024 A 
ENDBRANCH   1   9
BRANCH   1  15
ATOM     15  C   LIG    1       27.260 -17.580   3.707  0.00  0.00    +0.029 C 
BRANCH  15  16
ATOM     16  C   LIG    1       28.392 -17.430   4.734  0.00  0.00    +0.085 C 
BRANCH  16  18
ATOM     17  C   LIG    1       29.475 -18.575   6.629  0.00  0.00    +0.104 C 
ATOM     18  N   LIG    1       28.900 -18.708   5.288  0.00  0.00    -0.308 NA
ATOM     19  C   LIG    1       27.796 -19.678   5.335  0.00  0.00    +0.104 C 
ENDBRANCH  16  18
ENDBRANCH  15  16
ENDBRANCH   1  15
TORSDOF 5
ENDMDL
