MODEL 1
REMARK VINA RESULT:      -5.5      0.000      0.000
REMARK  Name = *****
REMARK                            x       y       z     vdW  Elec       q    Type
REMARK                         _______ _______ _______ _____ _____    ______ ____
ROOT
ATOM      1  C   LIG    1       23.767 -19.195   4.232  0.00  0.00    +0.084 C 
ATOM      2  N   LIG    1       24.798 -18.344   3.630  0.00  0.00    -0.339 N 
ATOM      3  H   LIG    1       25.031 -18.651   2.683  0.00  0.00    +0.146 HD
ATOM      4  C   LIG    1       24.612 -16.958   3.704  0.00  0.00    +0.037 A 
ATOM      5  C   LIG    1       23.415 -16.378   4.166  0.00  0.00    -0.026 A 
ATOM      6  C   LIG    1       23.290 -14.980   4.264  0.00  0.00    +0.018 A 
ATOM      7  C   LIG    1       24.345 -14.131   3.906  0.00  0.00    +0.055 A 
ATOM      8  C   LIG    1       25.514 -14.736   3.420  0.00  0.00    +0.280 A 
ATOM      9  C   LIG    1       22.258 -17.248   4.584  0.00  0.00    +0.039 C 
ATOM     10  C   LIG    1       25.659 -16.124   3.319  0.00  0.00    +0.107 A 
ATOM     11  C   LIG    1       22.370 -18.632   3.965  0.00  0.00    +0.028 C 
ENDROOT
BRANCH   8  12
ATOM     12  N   LIG    1       26.635 -13.918   3.007  0.00  0.00    +0.080 N 
ATOM     13  O   LIG    1       26.999 -14.017   1.824  0.00  0.00    -0.576 OA
ATOM     14  O   LIG    1       27.159 -13.207   3.869  0.00  0.00    +0.042 OA
ENDBRANCH   8  12
BRANCH   1  15
ATOM     15  C   LIG    1       23.897 -20.644   3.695  0.00  0.00    +0.103 C 
BRANCH  15  16
ATOM     16  N   LIG    1       24.513 -21.567   4.669  0.00  0.00    -0.312 NA
ATOM     17  H   LIG    1       23.932 -22.400   4.764  0.00  0.00    +0.122 HD
BRANCH  16  19
ATOM     18  C   LIG    1       23.784 -21.572   7.060  0.00  0.00    +0.024 C 
ATOM     19  C   LIG    1       24.702 -20.965   5.996  0.00  0.00    +0.048 C 
ATOM     20  C   LIG    1       26.161 -21.161   6.419  0.00  0.00    +0.024 C 
ENDBRANCH  16  19
ENDBRANCH  15  16
ENDBRANCH   1  15
BRANCH   7  21
ATOM     21  C   LIG    1       24.182 -12.644   4.047  0.00  0.00    +0.197 C 
BRANCH  21  22
ATOM     22  O   LIG    1       24.747 -12.215   5.274  0.00  0.00    -0.390 OA
ATOM     23  H   LIG    1       25.716 -12.202   5.157  0.00  0.00    +0.210 HD
ENDBRANCH  21  22
ENDBRANCH   7  21
TORSDOF 6
ENDMDL
MODEL 2
REMARK VINA RESULT:      -5.1      1.415      2.693
REMARK  Name = *****
REMARK                            x       y       z     vdW  Elec       q    Type
REMARK                         _______ _______ _______ _____ _____    ______ ____
ROOT
ATOM      1  C   LIG    1       23.767 -18.713   3.755  0.00  0.00    +0.084 C 
ATOM      2  N   LIG    1       23.362 -17.357   4.144  0.00  0.00    -0.339 N 
ATOM      3  H   LIG    1       23.012 -17.333   5.105  0.00  0.00    +0.146 HD
ATOM      4  C   LIG    1       24.262 -16.317   3.885  0.00  0.00    +0.037 A 
ATOM      5  C   LIG    1       25.578 -16.548   3.438  0.00  0.00    -0.026 A 
ATOM      6  C   LIG    1       26.433 -15.468   3.147  0.00  0.00    +0.018 A 
ATOM      7  C   LIG    1       26.003 -14.144   3.294  0.00  0.00    +0.055 A 
ATOM      8  C   LIG    1       24.699 -13.945   3.771  0.00  0.00    +0.280 A 
ATOM      9  C   LIG    1       26.082 -17.954   3.242  0.00  0.00    +0.039 C 
ATOM     10  C   LIG    1       23.832 -15.004   4.061  0.00  0.00    +0.107 A 
ATOM     11  C   LIG    1       25.252 -18.943   4.045  0.00  0.00    +0.028 C 
ENDROOT
BRANCH   8  12
ATOM     12  N   LIG    1       24.197 -12.602   3.971  0.00  0.00    +0.080 N 
ATOM     13  O   LIG    1       24.222 -12.158   5.131  0.00  0.00    -0.576 OA
ATOM     14  O   LIG    1       23.758 -12.012   2.980  0.00  0.00    +0.042 OA
ENDBRANCH   8  12
BRANCH   1  15
ATOM     15  C   LIG    1       22.887 -19.759   4.485  0.00  0.00    +0.103 C 
BRANCH  15  16
ATOM     16  N   LIG    1       23.480 -21.112   4.487  0.00  0.00    -0.312 NA
ATOM     17  H   LIG    1       22.816 -21.775   4.087  0.00  0.00    +0.122 HD
BRANCH  16  19
ATOM     18  C   LIG    1       25.377 -21.566   6.050  0.00  0.00    +0.024 C 
ATOM     19  C   LIG    1       23.862 -21.572   5.828  0.00  0.00    +0.048 C 
ATOM     20  C   LIG    1       23.199 -20.659   6.866  0.00  0.00    +0.024 C 
ENDBRANCH  16  19
ENDBRANCH  15  16
ENDBRANCH   1  15
BRANCH   7  21
ATOM     21  C   LIG    1       26.937 -13.017   2.952  0.00  0.00    +0.197 C 
BRANCH  21  22
ATOM     22  O   LIG    1       28.273 -13.404   3.225  0.00  0.00    -0.390 OA
ATOM     23  H   LIG    1       28.284 -13.790   4.122  0.00  0.00    +0.210 HD
ENDBRANCH  21  22
ENDBRANCH   7  21
TORSDOF 6
ENDMDL
MODEL 3
REMARK VINA RESULT:      -4.4      3.680      6.406
REMARK  Name = *****
REMARK                            x       y       z     vdW  Elec       q    Type
REMARK                         _______ _______ _______ _____ _____    ______ ____
ROOT
ATOM      1  C   LIG    1       24.816 -14.817   3.202  0.00  0.00    +0.084 C 
ATOM      2  N   LIG    1       25.372 -16.171   3.301  0.00  0.00    -0.339 N 
ATOM      3  H   LIG    1       26.265 -16.173   3.799  0.00  0.00    +0.146 HD
ATOM      4  C   LIG    1       24.518 -17.186   3.746  0.00  0.00    +0.037 A 
ATOM      5  C   LIG    1       23.232 -16.925   4.256  0.00  0.00    -0.026 A 
ATOM      6  C   LIG    1       22.391 -17.982   4.651  0.00  0.00    +0.018 A 
ATOM      7  C   LIG    1       22.807 -19.315   4.550  0.00  0.00    +0.055 A 
ATOM      8  C   LIG    1       24.105 -19.544   4.068  0.00  0.00    +0.280 A 
ATOM      9  C   LIG    1       22.728 -15.509   4.365  0.00  0.00    +0.039 C 
ATOM     10  C   LIG    1       24.954 -18.507   3.666  0.00  0.00    +0.107 A 
ATOM     11  C   LIG    1       23.884 -14.523   4.378  0.00  0.00    +0.028 C 
ENDROOT
BRANCH   8  12
ATOM     12  N   LIG    1       24.611 -20.896   3.961  0.00  0.00    +0.080 N 
ATOM     13  O   LIG    1       24.216 -21.571   2.996  0.00  0.00    -0.576 OA
ATOM     14  O   LIG    1       25.373 -21.283   4.852  0.00  0.00    +0.042 OA
ENDBRANCH   8  12
BRANCH   1  15
ATOM     15  C   LIG    1       25.963 -13.777   3.123  0.00  0.00    +0.103 C 
BRANCH  15  16
ATOM     16  N   LIG    1       27.304 -14.392   3.178  0.00  0.00    -0.312 NA
ATOM     17  H   LIG    1       27.211 -15.403   3.279  0.00  0.00    +0.122 HD
BRANCH  16  19
ATOM     18  C   LIG    1       28.992 -12.682   3.867  0.00  0.00    +0.024 C 
ATOM     19  C   LIG    1       28.131 -13.879   4.278  0.00  0.00    +0.048 C 
ATOM     20  C   LIG    1       27.209 -13.462   5.429  0.00  0.00    +0.024 C 
ENDBRANCH  16  19
ENDBRANCH  15  16
ENDBRANCH   1  15
BRANCH   7  21
ATOM     21  C   LIG    1       21.873 -20.419   4.960  0.00  0.00    +0.197 C 
BRANCH  21  22
ATOM     22  O   LIG    1       22.550 -21.327   5.812  0.00  0.00    -0.390 OA
ATOM     23  H   LIG    1       23.465 -21.001   5.911  0.00  0.00    +0.210 HD
ENDBRANCH  21  22
ENDBRANCH   7  21
TORSDOF 6
ENDMDL
