MODEL 1
REMARK VINA RESULT:      -5.1      0.000      0.000
REMARK  Name = *****
REMARK                            x       y       z     vdW  Elec       q    Type
REMARK                         _______ _______ _______ _____ _____    ______ ____
ROOT
ATOM      1  CA  THR A  1       30.330 -21.111   8.228  0.00  0.00    +0.189 C 
ENDROOT
BRANCH   1   2
ATOM      2  N   THR A  1       28.871 -21.249   8.473  0.00  0.00    -0.316 NA
ATOM      3  H1  THR A  1       28.458 -20.314   8.493  0.00  0.00    +0.119 HD
ATOM      4  H2  THR A  1       28.449 -21.725   7.674  0.00  0.00    +0.119 HD
ENDBRANCH   1   2
BRANCH   1   6
ATOM      5  CG2 THR A  1       30.951 -18.920   7.062  0.00  0.00    +0.040 C 
ATOM      6  CB  THR A  1       30.756 -19.637   8.391  0.00  0.00    +0.139 C 
BRANCH   6   7
ATOM      7  OG1 THR A  1       31.992 -19.579   9.132  0.00  0.00    -0.390 OA
ATOM      8  HG1 THR A  1       32.601 -20.207   8.694  0.00  0.00    +0.210 HD
ENDBRANCH   6   7
ENDBRANCH   1   6
BRANCH   1   9
ATOM      9  C   THR A  1       31.087 -22.050   9.183  0.00  0.00    +0.324 C 
ATOM     10  O   THR A  1       30.810 -22.174  10.367  0.00  0.00    -0.249 OA
BRANCH   9  11
ATOM     11  OXT THR A  1       32.178 -22.636   8.631  0.00  0.00    -0.479 OA
ATOM     12  HXT THR A  1       32.822 -21.956   8.313  0.00  0.00    +0.295 HD
ENDBRANCH   9  11
ENDBRANCH   1   9
TORSDOF 5
ENDMDL
MODEL 2
REMARK VINA RESULT:      -5.0      3.640      4.527
REMARK  Name = *****
REMARK                            x       y       z     vdW  Elec       q    Type
REMARK                         _______ _______ _______ _____ _____    ______ ____
ROOT
ATOM      1  CA  THR A  1       32.200 -17.205   9.707  0.00  0.00    +0.189 C 
ENDROOT
BRANCH   1   2
ATOM      2  N   THR A  1       32.651 -16.042   8.900  0.00  0.00    -0.316 NA
ATOM      3  H1  THR A  1       31.826 -15.587   8.503  0.00  0.00    +0.119 HD
ATOM      4  H2  THR A  1       33.078 -15.356   9.523  0.00  0.00    +0.119 HD
ENDBRANCH   1   2
BRANCH   1   6
ATOM      5  CG2 THR A  1       31.550 -16.382  12.040  0.00  0.00    +0.040 C 
ATOM      6  CB  THR A  1       31.059 -16.780  10.655  0.00  0.00    +0.139 C 
BRANCH   6   7
ATOM      7  OG1 THR A  1       30.125 -17.870  10.793  0.00  0.00    -0.390 OA
ATOM      8  HG1 THR A  1       29.441 -17.730  10.107  0.00  0.00    +0.210 HD
ENDBRANCH   6   7
ENDBRANCH   1   6
BRANCH   1   9
ATOM      9  C   THR A  1       31.781 -18.339   8.756  0.00  0.00    +0.324 C 
ATOM     10  O   THR A  1       31.133 -18.160   7.735  0.00  0.00    -0.249 OA
BRANCH   9  11
ATOM     11  OXT THR A  1       32.079 -19.580   9.214  0.00  0.00    -0.479 OA
ATOM     12  HXT THR A  1       31.275 -20.156   9.225  0.00  0.00    +0.295 HD
ENDBRANCH   9  11
ENDBRANCH   1   9
TORSDOF 5
ENDMDL
MODEL 3
REMARK VINA RESULT:      -5.0      1.912      1.966
REMARK  Name = *****
REMARK                            x       y       z     vdW  Elec       q    Type
REMARK                         _______ _______ _______ _____ _____    ______ ____
ROOT
ATOM      1  CA  THR A  1       30.909 -20.245   8.873  0.00  0.00    +0.189 C 
ENDROOT
BRANCH   1   2
ATOM      2  N   THR A  1       32.067 -19.396   9.254  0.00  0.00    -0.316 NA
ATOM      3  H1  THR A  1       31.925 -19.069  10.212  0.00  0.00    +0.119 HD
ATOM      4  H2  THR A  1       32.906 -19.977   9.277  0.00  0.00    +0.119 HD
ENDBRANCH   1   2
BRANCH   1   6
ATOM      5  CG2 THR A  1       29.910 -18.678   7.114  0.00  0.00    +0.040 C 
ATOM      6  CB  THR A  1       30.561 -20.028   7.385  0.00  0.00    +0.139 C 
BRANCH   6   7
ATOM      7  OG1 THR A  1       29.661 -21.068   6.952  0.00  0.00    -0.390 OA
ATOM      8  HG1 THR A  1       29.153 -20.694   6.204  0.00  0.00    +0.210 HD
ENDBRANCH   6   7
ENDBRANCH   1   6
BRANCH   1   9
ATOM      9  C   THR A  1       31.241 -21.713   9.191  0.00  0.00    +0.324 C 
ATOM     10  O   THR A  1       30.780 -22.317  10.148  0.00  0.00    -0.249 OA
BRANCH   9  11
ATOM     11  OXT THR A  1       32.196 -22.248   8.390  0.00  0.00    -0.479 OA
ATOM     12  HXT THR A  1       31.924 -22.208   7.440  0.00  0.00    +0.295 HD
ENDBRANCH   9  11
ENDBRANCH   1   9
TORSDOF 5
ENDMDL
MODEL 4
REMARK VINA RESULT:      -4.9      3.130      4.155
REMARK  Name = *****
REMARK                            x       y       z     vdW  Elec       q    Type
REMARK                         _______ _______ _______ _____ _____    ______ ____
ROOT
ATOM      1  CA  THR A  1       31.565 -17.254   9.183  0.00  0.00    +0.189 C 
ENDROOT
BRANCH   1   2
ATOM      2  N   THR A  1       32.600 -16.256   8.810  0.00  0.00    -0.316 NA
ATOM      3  H1  THR A  1       32.149 -15.505   8.283  0.00  0.00    +0.119 HD
ATOM      4  H2  THR A  1       32.960 -15.823   9.662  0.00  0.00    +0.119 HD
ENDBRANCH   1   2
BRANCH   1   6
ATOM      5  CG2 THR A  1       30.425 -18.875   7.565  0.00  0.00    +0.040 C 
ATOM      6  CB  THR A  1       31.706 -18.515   8.305  0.00  0.00    +0.139 C 
BRANCH   6   7
ATOM      7  OG1 THR A  1       32.087 -19.631   9.135  0.00  0.00    -0.390 OA
ATOM      8  HG1 THR A  1       32.806 -20.092   8.658  0.00  0.00    +0.210 HD
ENDBRANCH   6   7
ENDBRANCH   1   6
BRANCH   1   9
ATOM      9  C   THR A  1       31.690 -17.566  10.684  0.00  0.00    +0.324 C 
ATOM     10  O   THR A  1       32.711 -17.376  11.330  0.00  0.00    -0.249 OA
BRANCH   9  11
ATOM     11  OXT THR A  1       30.609 -18.194  11.209  0.00  0.00    -0.479 OA
ATOM     12  HXT THR A  1       29.770 -17.773  10.899  0.00  0.00    +0.295 HD
ENDBRANCH   9  11
ENDBRANCH   1   9
TORSDOF 5
ENDMDL
MODEL 5
REMARK VINA RESULT:      -4.9      1.889      2.202
REMARK  Name = *****
REMARK                            x       y       z     vdW  Elec       q    Type
REMARK                         _______ _______ _______ _____ _____    ______ ____
ROOT
ATOM      1  CA  THR A  1       30.548 -20.622   8.345  0.00  0.00    +0.189 C 
ENDROOT
BRANCH   1   2
ATOM      2  N   THR A  1       31.598 -20.091   7.436  0.00  0.00    -0.316 NA
ATOM      3  H1  THR A  1       31.877 -20.838   6.796  0.00  0.00    +0.119 HD
ATOM      4  H2  THR A  1       31.187 -19.361   6.853  0.00  0.00    +0.119 HD
ENDBRANCH   1   2
BRANCH   1   6
ATOM      5  CG2 THR A  1       28.771 -19.887   6.659  0.00  0.00    +0.040 C 
ATOM      6  CB  THR A  1       29.297 -21.016   7.534  0.00  0.00    +0.139 C 
BRANCH   6   7
ATOM      7  OG1 THR A  1       28.251 -21.421   8.441  0.00  0.00    -0.390 OA
ATOM      8  HG1 THR A  1       27.409 -21.140   8.028  0.00  0.00    +0.210 HD
ENDBRANCH   6   7
ENDBRANCH   1   6
BRANCH   1   9
ATOM      9  C   THR A  1       31.129 -21.804   9.140  0.00  0.00    +0.324 C 
ATOM     10  O   THR A  1       30.724 -22.139  10.244  0.00  0.00    -0.249 OA
BRANCH   9  11
ATOM     11  OXT THR A  1       32.223 -22.367   8.571  0.00  0.00    -0.479 OA
ATOM     12  HXT THR A  1       31.968 -22.945   7.809  0.00  0.00    +0.295 HD
ENDBRANCH   9  11
ENDBRANCH   1   9
TORSDOF 5
ENDMDL
MODEL 6
REMARK VINA RESULT:      -4.8      2.839      3.513
REMARK  Name = *****
REMARK                            x       y       z     vdW  Elec       q    Type
REMARK                         _______ _______ _______ _____ _____    ______ ____
ROOT
ATOM      1  CA  THR A  1       31.138 -18.989   8.999  0.00  0.00    +0.189 C 
ENDROOT
BRANCH   1   2
ATOM      2  N   THR A  1       32.007 -20.155   9.305  0.00  0.00    -0.316 NA
ATOM      3  H1  THR A  1       31.416 -20.915   9.650  0.00  0.00    +0.119 HD
ATOM      4  H2  THR A  1       32.421 -20.493   8.435  0.00  0.00    +0.119 HD
ENDBRANCH   1   2
BRANCH   1   6
ATOM      5  CG2 THR A  1       30.742 -16.822  10.299  0.00  0.00    +0.040 C 
ATOM      6  CB  THR A  1       31.757 -17.701   9.581  0.00  0.00    +0.139 C 
BRANCH   6   7
ATOM      7  OG1 THR A  1       32.355 -16.937   8.514  0.00  0.00    -0.390 OA
ATOM      8  HG1 THR A  1       32.459 -16.027   8.857  0.00  0.00    +0.210 HD
ENDBRANCH   6   7
ENDBRANCH   1   6
BRANCH   1   9
ATOM      9  C   THR A  1       30.933 -18.907   7.477  0.00  0.00    +0.324 C 
ATOM     10  O   THR A  1       30.118 -18.167   6.945  0.00  0.00    -0.249 OA
BRANCH   9  11
ATOM     11  OXT THR A  1       31.643 -19.824   6.774  0.00  0.00    -0.479 OA
ATOM     12  HXT THR A  1       31.166 -20.083   5.947  0.00  0.00    +0.295 HD
ENDBRANCH   9  11
ENDBRANCH   1   9
TORSDOF 5
ENDMDL
MODEL 7
REMARK VINA RESULT:      -4.8      3.101      3.816
REMARK  Name = *****
REMARK                            x       y       z     vdW  Elec       q    Type
REMARK                         _______ _______ _______ _____ _____    ______ ____
ROOT
ATOM      1  CA  THR A  1       31.298 -17.882   9.694  0.00  0.00    +0.189 C 
ENDROOT
BRANCH   1   2
ATOM      2  N   THR A  1       30.759 -18.393  10.981  0.00  0.00    -0.316 NA
ATOM      3  H1  THR A  1       31.375 -18.079  11.735  0.00  0.00    +0.119 HD
ATOM      4  H2  THR A  1       29.855 -17.953  11.156  0.00  0.00    +0.119 HD
ENDBRANCH   1   2
BRANCH   1   6
ATOM      5  CG2 THR A  1       32.277 -16.058  11.198  0.00  0.00    +0.040 C 
ATOM      6  CB  THR A  1       32.475 -16.920   9.959  0.00  0.00    +0.139 C 
BRANCH   6   7
ATOM      7  OG1 THR A  1       32.647 -16.055   8.818  0.00  0.00    -0.390 OA
ATOM      8  HG1 THR A  1       33.606 -16.047   8.624  0.00  0.00    +0.210 HD
ENDBRANCH   6   7
ENDBRANCH   1   6
BRANCH   1   9
ATOM      9  C   THR A  1       31.702 -19.076   8.813  0.00  0.00    +0.324 C 
ATOM     10  O   THR A  1       31.946 -20.189   9.256  0.00  0.00    -0.249 OA
BRANCH   9  11
ATOM     11  OXT THR A  1       31.893 -18.760   7.509  0.00  0.00    -0.479 OA
ATOM     12  HXT THR A  1       31.061 -18.885   6.989  0.00  0.00    +0.295 HD
ENDBRANCH   9  11
ENDBRANCH   1   9
TORSDOF 5
ENDMDL
MODEL 8
REMARK VINA RESULT:      -4.7      2.639      3.499
REMARK  Name = *****
REMARK                            x       y       z     vdW  Elec       q    Type
REMARK                         _______ _______ _______ _____ _____    ______ ____
ROOT
ATOM      1  CA  THR A  1       31.343 -19.155   7.374  0.00  0.00    +0.189 C 
ENDROOT
BRANCH   1   2
ATOM      2  N   THR A  1       31.325 -20.603   7.709  0.00  0.00    -0.316 NA
ATOM      3  H1  THR A  1       32.208 -20.838   8.169  0.00  0.00    +0.119 HD
ATOM      4  H2  THR A  1       30.595 -20.769   8.403  0.00  0.00    +0.119 HD
ENDBRANCH   1   2
BRANCH   1   6
ATOM      5  CG2 THR A  1       28.892 -19.801   7.028  0.00  0.00    +0.040 C 
ATOM      6  CB  THR A  1       29.932 -18.691   6.956  0.00  0.00    +0.139 C 
BRANCH   6   7
ATOM      7  OG1 THR A  1       29.978 -18.190   5.604  0.00  0.00    -0.390 OA
ATOM      8  HG1 THR A  1       30.582 -18.784   5.114  0.00  0.00    +0.210 HD
ENDBRANCH   6   7
ENDBRANCH   1   6
BRANCH   1   9
ATOM      9  C   THR A  1       31.886 -18.371   8.581  0.00  0.00    +0.324 C 
ATOM     10  O   THR A  1       31.883 -18.804   9.724  0.00  0.00    -0.249 OA
BRANCH   9  11
ATOM     11  OXT THR A  1       32.252 -17.098   8.292  0.00  0.00    -0.479 OA
ATOM     12  HXT THR A  1       33.095 -17.080   7.775  0.00  0.00    +0.295 HD
ENDBRANCH   9  11
ENDBRANCH   1   9
TORSDOF 5
ENDMDL
MODEL 9
REMARK VINA RESULT:      -4.7      2.793      3.252
REMARK  Name = *****
REMARK                            x       y       z     vdW  Elec       q    Type
REMARK                         _______ _______ _______ _____ _____    ______ ____
ROOT
ATOM      1  CA  THR A  1       31.554 -19.666   8.349  0.00  0.00    +0.189 C 
ENDROOT
BRANCH   1   2
ATOM      2  N   THR A  1       32.012 -20.806   9.185  0.00  0.00    -0.316 NA
ATOM      3  H1  THR A  1       32.572 -21.430   8.599  0.00  0.00    +0.119 HD
ATOM      4  H2  THR A  1       32.646 -20.452   9.903  0.00  0.00    +0.119 HD
ENDBRANCH   1   2
BRANCH   1   6
ATOM      5  CG2 THR A  1       29.654 -19.478   6.648  0.00  0.00    +0.040 C 
ATOM      6  CB  THR A  1       30.037 -19.776   8.091  0.00  0.00    +0.139 C 
BRANCH   6   7
ATOM      7  OG1 THR A  1       29.340 -18.853   8.952  0.00  0.00    -0.390 OA
ATOM      8  HG1 THR A  1       30.003 -18.192   9.236  0.00  0.00    +0.210 HD
ENDBRANCH   6   7
ENDBRANCH   1   6
BRANCH   1   9
ATOM      9  C   THR A  1       31.937 -18.350   9.048  0.00  0.00    +0.324 C 
ATOM     10  O   THR A  1       31.970 -18.216  10.263  0.00  0.00    -0.249 OA
BRANCH   9  11
ATOM     11  OXT THR A  1       32.110 -17.306   8.201  0.00  0.00    -0.479 OA
ATOM     12  HXT THR A  1       33.059 -17.028   8.171  0.00  0.00    +0.295 HD
ENDBRANCH   9  11
ENDBRANCH   1   9
TORSDOF 5
ENDMDL
