MODEL 1
REMARK VINA RESULT:      -4.4      0.000      0.000
REMARK  Name = *****
REMARK                            x       y       z     vdW  Elec       q    Type
REMARK                         _______ _______ _______ _____ _____    ______ ____
ROOT
ATOM      1  C   LIG    1       24.677 -17.365   3.646  0.00  0.00    +0.134 A 
ATOM      2  C   LIG    1       25.498 -16.266   3.438  0.00  0.00    +0.051 A 
ATOM      3  C   LIG    1       25.049 -14.978   3.766  0.00  0.00    -0.027 A 
ATOM      4  C   LIG    1       23.738 -14.827   4.255  0.00  0.00    +0.005 A 
ATOM      5  C   LIG    1       22.905 -15.934   4.424  0.00  0.00    +0.004 A 
ATOM      6  C   LIG    1       23.372 -17.207   4.112  0.00  0.00    +0.046 A 
ENDROOT
BRANCH   3   7
ATOM      7  C   LIG    1       25.975 -13.765   3.681  0.00  0.00    +0.083 C 
ATOM      8  C   LIG    1       26.209 -13.339   2.216  0.00  0.00    +0.029 C 
BRANCH   7   9
ATOM      9  N   LIG    1       27.239 -13.902   4.456  0.00  0.00    -0.302 NA
ATOM     10  C   LIG    1       27.181 -13.360   5.813  0.00  0.00    +0.105 C 
ATOM     11  C   LIG    1       28.399 -13.350   3.749  0.00  0.00    +0.105 C 
ENDBRANCH   7   9
ENDBRANCH   3   7
BRANCH   1  12
ATOM     12  O   LIG    1       25.071 -18.700   3.399  0.00  0.00    -0.411 OA
BRANCH  12  14
ATOM     13  N   LIG    1       24.838 -20.580   4.714  0.00  0.00    -0.270 N 
ATOM     14  C   LIG    1       25.681 -19.520   4.365  0.00  0.00    +0.408 C 
ATOM     15  O   LIG    1       26.794 -19.343   4.850  0.00  0.00    -0.226 OA
ATOM     16  C   LIG    1       25.319 -21.572   5.658  0.00  0.00    +0.135 C 
BRANCH  13  18
ATOM     17  C   LIG    1       22.412 -20.490   5.191  0.00  0.00    +0.024 C 
ATOM     18  C   LIG    1       23.502 -20.751   4.162  0.00  0.00    +0.107 C 
ENDBRANCH  13  18
ENDBRANCH  12  14
ENDBRANCH   1  12
TORSDOF 5
ENDMDL
MODEL 2
REMARK VINA RESULT:      -4.3      1.779      6.637
REMARK  Name = *****
REMARK                            x       y       z     vdW  Elec       q    Type
REMARK                         _______ _______ _______ _____ _____    ______ ____
ROOT
ATOM      1  C   LIG    1       26.342 -17.587   3.660  0.00  0.00    +0.134 A 
ATOM      2  C   LIG    1       25.432 -18.634   3.717  0.00  0.00    +0.051 A 
ATOM      3  C   LIG    1       25.724 -19.781   4.470  0.00  0.00    -0.027 A 
ATOM      4  C   LIG    1       26.973 -19.863   5.115  0.00  0.00    +0.005 A 
ATOM      5  C   LIG    1       27.897 -18.822   5.021  0.00  0.00    +0.004 A 
ATOM      6  C   LIG    1       27.585 -17.682   4.285  0.00  0.00    +0.046 A 
ENDROOT
BRANCH   3   7
ATOM      7  C   LIG    1       24.691 -20.889   4.668  0.00  0.00    +0.083 C 
ATOM      8  C   LIG    1       24.118 -21.370   3.317  0.00  0.00    +0.029 C 
BRANCH   7   9
ATOM      9  N   LIG    1       23.634 -20.572   5.667  0.00  0.00    -0.302 NA
ATOM     10  C   LIG    1       23.801 -21.236   6.959  0.00  0.00    +0.105 C 
ATOM     11  C   LIG    1       22.281 -20.813   5.156  0.00  0.00    +0.105 C 
ENDBRANCH   7   9
ENDBRANCH   3   7
BRANCH   1  12
ATOM     12  O   LIG    1       26.103 -16.374   2.975  0.00  0.00    -0.411 OA
BRANCH  12  14
ATOM     13  N   LIG    1       25.942 -14.101   3.333  0.00  0.00    -0.270 N 
ATOM     14  C   LIG    1       25.305 -15.336   3.491  0.00  0.00    +0.408 C 
ATOM     15  O   LIG    1       24.204 -15.476   4.013  0.00  0.00    -0.226 OA
ATOM     16  C   LIG    1       25.245 -12.899   3.752  0.00  0.00    +0.135 C 
BRANCH  13  18
ATOM     17  C   LIG    1       28.291 -13.452   3.758  0.00  0.00    +0.024 C 
ATOM     18  C   LIG    1       27.269 -13.956   2.750  0.00  0.00    +0.107 C 
ENDBRANCH  13  18
ENDBRANCH  12  14
ENDBRANCH   1  12
TORSDOF 5
ENDMDL
MODEL 3
REMARK VINA RESULT:      -4.2      0.943      1.711
REMARK  Name = *****
REMARK                            x       y       z     vdW  Elec       q    Type
REMARK                         _______ _______ _______ _____ _____    ______ ____
ROOT
ATOM      1  C   LIG    1       24.747 -17.341   3.649  0.00  0.00    +0.134 A 
ATOM      2  C   LIG    1       25.535 -16.215   3.451  0.00  0.00    +0.051 A 
ATOM      3  C   LIG    1       25.039 -14.943   3.774  0.00  0.00    -0.027 A 
ATOM      4  C   LIG    1       23.717 -14.835   4.247  0.00  0.00    +0.005 A 
ATOM      5  C   LIG    1       22.919 -15.969   4.406  0.00  0.00    +0.004 A 
ATOM      6  C   LIG    1       23.432 -17.226   4.099  0.00  0.00    +0.046 A 
ENDROOT
BRANCH   3   7
ATOM      7  C   LIG    1       25.925 -13.700   3.701  0.00  0.00    +0.083 C 
ATOM      8  C   LIG    1       26.128 -13.240   2.241  0.00  0.00    +0.029 C 
BRANCH   7   9
ATOM      9  N   LIG    1       27.203 -13.811   4.457  0.00  0.00    -0.302 NA
ATOM     10  C   LIG    1       27.139 -13.319   5.833  0.00  0.00    +0.105 C 
ATOM     11  C   LIG    1       28.331 -13.187   3.759  0.00  0.00    +0.105 C 
ENDBRANCH   7   9
ENDBRANCH   3   7
BRANCH   1  12
ATOM     12  O   LIG    1       25.188 -18.661   3.407  0.00  0.00    -0.411 OA
BRANCH  12  14
ATOM     13  N   LIG    1       25.408 -20.407   4.897  0.00  0.00    -0.270 N 
ATOM     14  C   LIG    1       24.571 -19.799   3.957  0.00  0.00    +0.408 C 
ATOM     15  O   LIG    1       23.456 -20.218   3.661  0.00  0.00    -0.226 OA
ATOM     16  C   LIG    1       24.919 -21.568   5.619  0.00  0.00    +0.135 C 
BRANCH  13  18
ATOM     17  C   LIG    1       27.204 -20.333   6.596  0.00  0.00    +0.024 C 
ATOM     18  C   LIG    1       26.746 -19.923   5.204  0.00  0.00    +0.107 C 
ENDBRANCH  13  18
ENDBRANCH  12  14
ENDBRANCH   1  12
TORSDOF 5
ENDMDL
MODEL 4
REMARK VINA RESULT:      -4.2      1.778      2.584
REMARK  Name = *****
REMARK                            x       y       z     vdW  Elec       q    Type
REMARK                         _______ _______ _______ _____ _____    ______ ____
ROOT
ATOM      1  C   LIG    1       24.365 -18.645   3.991  0.00  0.00    +0.134 A 
ATOM      2  C   LIG    1       25.066 -17.497   3.646  0.00  0.00    +0.051 A 
ATOM      3  C   LIG    1       24.448 -16.241   3.737  0.00  0.00    -0.027 A 
ATOM      4  C   LIG    1       23.098 -16.182   4.131  0.00  0.00    +0.005 A 
ATOM      5  C   LIG    1       22.390 -17.344   4.438  0.00  0.00    +0.004 A 
ATOM      6  C   LIG    1       23.023 -18.582   4.361  0.00  0.00    +0.046 A 
ENDROOT
BRANCH   3   7
ATOM      7  C   LIG    1       25.230 -14.949   3.500  0.00  0.00    +0.083 C 
ATOM      8  C   LIG    1       26.736 -15.231   3.312  0.00  0.00    +0.029 C 
BRANCH   7   9
ATOM      9  N   LIG    1       24.959 -13.876   4.496  0.00  0.00    -0.302 NA
ATOM     10  C   LIG    1       24.216 -12.732   3.969  0.00  0.00    +0.105 C 
ATOM     11  C   LIG    1       26.174 -13.411   5.172  0.00  0.00    +0.105 C 
ENDBRANCH   7   9
ENDBRANCH   3   7
BRANCH   1  12
ATOM     12  O   LIG    1       24.929 -19.942   3.985  0.00  0.00    -0.411 OA
BRANCH  12  14
ATOM     13  N   LIG    1       26.007 -20.767   5.848  0.00  0.00    -0.270 N 
ATOM     14  C   LIG    1       24.845 -20.829   5.073  0.00  0.00    +0.408 C 
ATOM     15  O   LIG    1       23.896 -21.566   5.320  0.00  0.00    -0.226 OA
ATOM     16  C   LIG    1       26.084 -21.572   7.054  0.00  0.00    +0.135 C 
BRANCH  13  18
ATOM     17  C   LIG    1       28.364 -20.228   6.371  0.00  0.00    +0.024 C 
ATOM     18  C   LIG    1       27.144 -19.920   5.516  0.00  0.00    +0.107 C 
ENDBRANCH  13  18
ENDBRANCH  12  14
ENDBRANCH   1  12
TORSDOF 5
ENDMDL
MODEL 5
REMARK VINA RESULT:      -4.1      1.957      6.191
REMARK  Name = *****
REMARK                            x       y       z     vdW  Elec       q    Type
REMARK                         _______ _______ _______ _____ _____    ______ ____
ROOT
ATOM      1  C   LIG    1       26.626 -17.588   3.725  0.00  0.00    +0.134 A 
ATOM      2  C   LIG    1       25.609 -18.532   3.688  0.00  0.00    +0.051 A 
ATOM      3  C   LIG    1       25.715 -19.712   4.438  0.00  0.00    -0.027 A 
ATOM      4  C   LIG    1       26.892 -19.937   5.178  0.00  0.00    +0.005 A 
ATOM      5  C   LIG    1       27.927 -19.000   5.177  0.00  0.00    +0.004 A 
ATOM      6  C   LIG    1       27.798 -17.825   4.443  0.00  0.00    +0.046 A 
ENDROOT
BRANCH   3   7
ATOM      7  C   LIG    1       24.556 -20.705   4.531  0.00  0.00    +0.083 C 
ATOM      8  C   LIG    1       23.880 -20.909   3.158  0.00  0.00    +0.029 C 
BRANCH   7   9
ATOM      9  N   LIG    1       23.584 -20.413   5.619  0.00  0.00    -0.302 NA
ATOM     10  C   LIG    1       23.221 -21.572   6.436  0.00  0.00    +0.105 C 
ATOM     11  C   LIG    1       22.371 -19.749   5.133  0.00  0.00    +0.105 C 
ENDBRANCH   7   9
ENDBRANCH   3   7
BRANCH   1  12
ATOM     12  O   LIG    1       26.574 -16.348   3.048  0.00  0.00    -0.411 OA
BRANCH  12  14
ATOM     13  N   LIG    1       25.641 -14.446   3.958  0.00  0.00    -0.270 N 
ATOM     14  C   LIG    1       26.835 -15.113   3.669  0.00  0.00    +0.408 C 
ATOM     15  O   LIG    1       27.948 -14.666   3.925  0.00  0.00    -0.226 OA
ATOM     16  C   LIG    1       25.704 -13.175   4.657  0.00  0.00    +0.135 C 
BRANCH  13  18
ATOM     17  C   LIG    1       23.329 -14.837   4.747  0.00  0.00    +0.024 C 
ATOM     18  C   LIG    1       24.329 -14.971   3.608  0.00  0.00    +0.107 C 
ENDBRANCH  13  18
ENDBRANCH  12  14
ENDBRANCH   1  12
TORSDOF 5
ENDMDL
MODEL 6
REMARK VINA RESULT:      -4.0      1.699      2.937
REMARK  Name = *****
REMARK                            x       y       z     vdW  Elec       q    Type
REMARK                         _______ _______ _______ _____ _____    ______ ____
ROOT
ATOM      1  C   LIG    1       25.774 -17.938   3.516  0.00  0.00    +0.134 A 
ATOM      2  C   LIG    1       25.540 -16.618   3.154  0.00  0.00    +0.051 A 
ATOM      3  C   LIG    1       26.521 -15.641   3.380  0.00  0.00    -0.027 A 
ATOM      4  C   LIG    1       27.714 -16.021   4.026  0.00  0.00    +0.005 A 
ATOM      5  C   LIG    1       27.924 -17.342   4.422  0.00  0.00    +0.004 A 
ATOM      6  C   LIG    1       26.948 -18.303   4.173  0.00  0.00    +0.046 A 
ENDROOT
BRANCH   3   7
ATOM      7  C   LIG    1       26.354 -14.210   2.869  0.00  0.00    +0.083 C 
ATOM      8  C   LIG    1       27.472 -13.289   3.404  0.00  0.00    +0.029 C 
BRANCH   7   9
ATOM      9  N   LIG    1       24.992 -13.643   3.065  0.00  0.00    -0.302 NA
ATOM     10  C   LIG    1       24.595 -12.656   2.061  0.00  0.00    +0.105 C 
ATOM     11  C   LIG    1       24.795 -13.092   4.409  0.00  0.00    +0.105 C 
ENDBRANCH   7   9
ENDBRANCH   3   7
BRANCH   1  12
ATOM     12  O   LIG    1       24.866 -18.993   3.271  0.00  0.00    -0.411 OA
BRANCH  12  14
ATOM     13  N   LIG    1       23.758 -20.328   4.790  0.00  0.00    -0.270 N 
ATOM     14  C   LIG    1       23.676 -19.178   3.999  0.00  0.00    +0.408 C 
ATOM     15  O   LIG    1       22.693 -18.446   3.954  0.00  0.00    -0.226 OA
ATOM     16  C   LIG    1       22.644 -20.654   5.662  0.00  0.00    +0.135 C 
BRANCH  13  18
ATOM     17  C   LIG    1       25.648 -21.191   6.131  0.00  0.00    +0.024 C 
ATOM     18  C   LIG    1       24.916 -21.210   4.798  0.00  0.00    +0.107 C 
ENDBRANCH  13  18
ENDBRANCH  12  14
ENDBRANCH   1  12
TORSDOF 5
ENDMDL
MODEL 7
REMARK VINA RESULT:      -3.8      1.642      2.659
REMARK  Name = *****
REMARK                            x       y       z     vdW  Elec       q    Type
REMARK                         _______ _______ _______ _____ _____    ______ ____
ROOT
ATOM      1  C   LIG    1       26.111 -17.771   3.572  0.00  0.00    +0.134 A 
ATOM      2  C   LIG    1       25.473 -16.576   3.266  0.00  0.00    +0.051 A 
ATOM      3  C   LIG    1       26.144 -15.356   3.435  0.00  0.00    -0.027 A 
ATOM      4  C   LIG    1       27.448 -15.372   3.967  0.00  0.00    +0.005 A 
ATOM      5  C   LIG    1       28.067 -16.576   4.308  0.00  0.00    +0.004 A 
ATOM      6  C   LIG    1       27.394 -17.779   4.117  0.00  0.00    +0.046 A 
ENDROOT
BRANCH   3   7
ATOM      7  C   LIG    1       25.525 -14.035   2.979  0.00  0.00    +0.083 C 
ATOM      8  C   LIG    1       26.609 -13.034   2.525  0.00  0.00    +0.029 C 
BRANCH   7   9
ATOM      9  N   LIG    1       24.557 -13.446   3.943  0.00  0.00    -0.302 NA
ATOM     10  C   LIG    1       23.519 -14.368   4.403  0.00  0.00    +0.105 C 
ATOM     11  C   LIG    1       23.940 -12.212   3.445  0.00  0.00    +0.105 C 
ENDBRANCH   7   9
ENDBRANCH   3   7
BRANCH   1  12
ATOM     12  O   LIG    1       25.530 -19.044   3.376  0.00  0.00    -0.411 OA
BRANCH  12  14
ATOM     13  N   LIG    1       23.777 -19.923   4.590  0.00  0.00    -0.270 N 
ATOM     14  C   LIG    1       25.166 -19.902   4.430  0.00  0.00    +0.408 C 
ATOM     15  O   LIG    1       25.945 -20.545   5.126  0.00  0.00    -0.226 OA
ATOM     16  C   LIG    1       23.205 -20.800   5.595  0.00  0.00    +0.135 C 
BRANCH  13  18
ATOM     17  C   LIG    1       22.191 -18.025   4.595  0.00  0.00    +0.024 C 
ATOM     18  C   LIG    1       22.869 -19.119   3.784  0.00  0.00    +0.107 C 
ENDBRANCH  13  18
ENDBRANCH  12  14
ENDBRANCH   1  12
TORSDOF 5
ENDMDL
MODEL 8
REMARK VINA RESULT:      -3.2      1.837      6.175
REMARK  Name = *****
REMARK                            x       y       z     vdW  Elec       q    Type
REMARK                         _______ _______ _______ _____ _____    ______ ____
ROOT
ATOM      1  C   LIG    1       24.201 -16.781   3.742  0.00  0.00    +0.134 A 
ATOM      2  C   LIG    1       24.861 -18.002   3.762  0.00  0.00    +0.051 A 
ATOM      3  C   LIG    1       24.171 -19.171   4.115  0.00  0.00    -0.027 A 
ATOM      4  C   LIG    1       22.819 -19.065   4.497  0.00  0.00    +0.005 A 
ATOM      5  C   LIG    1       22.174 -17.828   4.511  0.00  0.00    +0.004 A 
ATOM      6  C   LIG    1       22.868 -16.680   4.140  0.00  0.00    +0.046 A 
ENDROOT
BRANCH   3   7
ATOM      7  C   LIG    1       24.828 -20.546   4.013  0.00  0.00    +0.083 C 
ATOM      8  C   LIG    1       23.886 -21.571   3.344  0.00  0.00    +0.029 C 
BRANCH   7   9
ATOM      9  N   LIG    1       25.414 -21.043   5.288  0.00  0.00    -0.302 NA
ATOM     10  C   LIG    1       24.478 -21.088   6.410  0.00  0.00    +0.105 C 
ATOM     11  C   LIG    1       26.623 -20.312   5.678  0.00  0.00    +0.105 C 
ENDBRANCH   7   9
ENDBRANCH   3   7
BRANCH   1  12
ATOM     12  O   LIG    1       24.804 -15.567   3.341  0.00  0.00    -0.411 OA
BRANCH  12  14
ATOM     13  N   LIG    1       26.028 -13.908   4.374  0.00  0.00    -0.270 N 
ATOM     14  C   LIG    1       24.742 -14.383   4.098  0.00  0.00    +0.408 C 
ATOM     15  O   LIG    1       23.714 -13.832   4.477  0.00  0.00    -0.226 OA
ATOM     16  C   LIG    1       26.169 -12.657   5.098  0.00  0.00    +0.135 C 
BRANCH  13  18
ATOM     17  C   LIG    1       28.348 -13.631   3.562  0.00  0.00    +0.024 C 
ATOM     18  C   LIG    1       27.240 -14.597   3.955  0.00  0.00    +0.107 C 
ENDBRANCH  13  18
ENDBRANCH  12  14
ENDBRANCH   1  12
TORSDOF 5
ENDMDL
MODEL 9
REMARK VINA RESULT:      -2.3      2.192      3.448
REMARK  Name = *****
REMARK                            x       y       z     vdW  Elec       q    Type
REMARK                         _______ _______ _______ _____ _____    ______ ____
ROOT
ATOM      1  C   LIG    1       27.218 -16.317   3.947  0.00  0.00    +0.134 A 
ATOM      2  C   LIG    1       26.055 -15.748   3.445  0.00  0.00    +0.051 A 
ATOM      3  C   LIG    1       25.948 -14.355   3.321  0.00  0.00    -0.027 A 
ATOM      4  C   LIG    1       27.019 -13.556   3.766  0.00  0.00    +0.005 A 
ATOM      5  C   LIG    1       28.169 -14.134   4.305  0.00  0.00    +0.004 A 
ATOM      6  C   LIG    1       28.266 -15.520   4.403  0.00  0.00    +0.046 A 
ENDROOT
BRANCH   3   7
ATOM      7  C   LIG    1       24.742 -13.705   2.646  0.00  0.00    +0.083 C 
ATOM      8  C   LIG    1       25.161 -12.474   1.812  0.00  0.00    +0.029 C 
BRANCH   7   9
ATOM      9  N   LIG    1       23.602 -13.425   3.561  0.00  0.00    -0.302 NA
ATOM     10  C   LIG    1       23.760 -12.223   4.379  0.00  0.00    +0.105 C 
ATOM     11  C   LIG    1       23.268 -14.568   4.416  0.00  0.00    +0.105 C 
ENDBRANCH   7   9
ENDBRANCH   3   7
BRANCH   1  12
ATOM     12  O   LIG    1       27.431 -17.710   4.050  0.00  0.00    -0.411 OA
BRANCH  12  14
ATOM     13  N   LIG    1       27.842 -19.514   5.426  0.00  0.00    -0.270 N 
ATOM     14  C   LIG    1       28.335 -18.293   4.956  0.00  0.00    +0.408 C 
ATOM     15  O   LIG    1       29.408 -17.809   5.302  0.00  0.00    -0.226 OA
ATOM     16  C   LIG    1       28.666 -20.296   6.330  0.00  0.00    +0.135 C 
BRANCH  13  18
ATOM     17  C   LIG    1       25.718 -20.485   6.240  0.00  0.00    +0.024 C 
ATOM     18  C   LIG    1       26.547 -20.054   5.039  0.00  0.00    +0.107 C 
ENDBRANCH  13  18
ENDBRANCH  12  14
ENDBRANCH   1  12
TORSDOF 5
ENDMDL
