MODEL 1
REMARK VINA RESULT:      -4.3      0.000      0.000
REMARK  Name = *****
REMARK                            x       y       z     vdW  Elec       q    Type
REMARK                         _______ _______ _______ _____ _____    ______ ____
ROOT
ATOM      1  C   LIG    1       26.013 -13.930   3.167  0.00  0.00    +0.267 C 
ENDROOT
BRANCH   1   2
ATOM      2  P   LIG    1       27.260 -13.134   4.244  0.00  0.00    +0.371 P 
ATOM      3  O   LIG    1       26.651 -13.721   5.524  0.00  0.00    -0.255 OA
BRANCH   2   4
ATOM      4  O   LIG    1       28.439 -12.382   5.263  0.00  0.00    -0.322 OA
ATOM      5  H   LIG    1       29.015 -13.114   5.564  0.00  0.00    +0.220 HD
ENDBRANCH   2   4
BRANCH   2   6
ATOM      6  O   LIG    1       28.404 -14.242   3.832  0.00  0.00    -0.322 OA
ATOM      7  H   LIG    1       28.063 -15.143   4.001  0.00  0.00    +0.220 HD
ENDBRANCH   2   6
ENDBRANCH   1   2
BRANCH   1   8
ATOM      8  P   LIG    1       24.603 -12.761   2.919  0.00  0.00    +0.371 P 
ATOM      9  O   LIG    1       24.772 -11.697   1.896  0.00  0.00    -0.255 OA
BRANCH   8  10
ATOM     10  O   LIG    1       24.209 -12.154   4.354  0.00  0.00    -0.322 OA
ATOM     11  H   LIG    1       24.928 -12.191   5.009  0.00  0.00    +0.220 HD
ENDBRANCH   8  10
BRANCH   8  12
ATOM     12  O   LIG    1       23.304 -13.674   2.638  0.00  0.00    -0.322 OA
ATOM     13  H   LIG    1       23.063 -14.242   3.388  0.00  0.00    +0.220 HD
ENDBRANCH   8  12
ENDBRANCH   1   8
BRANCH   1  14
ATOM     14  O   LIG    1       26.586 -14.203   1.856  0.00  0.00    -0.367 OA
ATOM     15  H   LIG    1       27.390 -13.643   1.828  0.00  0.00    +0.212 HD
ENDBRANCH   1  14
BRANCH   1  16
ATOM     16  C   LIG    1       25.499 -15.279   3.778  0.00  0.00    +0.061 C 
BRANCH  16  17
ATOM     17  C   LIG    1       26.231 -16.542   3.274  0.00  0.00    +0.019 C 
BRANCH  17  18
ATOM     18  C   LIG    1       25.400 -17.841   3.290  0.00  0.00    +0.078 C 
BRANCH  18  19
ATOM     19  N   LIG    1       26.109 -18.994   3.832  0.00  0.00    -0.330 NA
ATOM     20  H   LIG    1       25.518 -19.824   3.792  0.00  0.00    +0.118 HD
ATOM     21  H   LIG    1       26.909 -19.203   3.231  0.00  0.00    +0.118 HD
ENDBRANCH  18  19
ENDBRANCH  17  18
ENDBRANCH  16  17
ENDBRANCH   1  16
TORSDOF 11
ENDMDL
MODEL 2
REMARK VINA RESULT:      -4.0      0.942      1.620
REMARK  Name = *****
REMARK                            x       y       z     vdW  Elec       q    Type
REMARK                         _______ _______ _______ _____ _____    ______ ____
ROOT
ATOM      1  C   LIG    1       26.303 -14.228   3.355  0.00  0.00    +0.267 C 
ENDROOT
BRANCH   1   2
ATOM      2  P   LIG    1       27.430 -13.116   4.273  0.00  0.00    +0.371 P 
ATOM      3  O   LIG    1       27.108 -13.767   5.623  0.00  0.00    -0.255 OA
BRANCH   2   4
ATOM      4  O   LIG    1       28.496 -12.064   5.140  0.00  0.00    -0.322 OA
ATOM      5  H   LIG    1       29.220 -12.643   5.455  0.00  0.00    +0.220 HD
ENDBRANCH   2   4
BRANCH   2   6
ATOM      6  O   LIG    1       28.755 -13.947   3.763  0.00  0.00    -0.322 OA
ATOM      7  H   LIG    1       28.816 -13.899   2.788  0.00  0.00    +0.220 HD
ENDBRANCH   2   6
ENDBRANCH   1   2
BRANCH   1   8
ATOM      8  P   LIG    1       24.557 -13.799   3.785  0.00  0.00    +0.371 P 
ATOM      9  O   LIG    1       23.724 -14.866   4.395  0.00  0.00    -0.255 OA
BRANCH   8  10
ATOM     10  O   LIG    1       23.867 -13.177   2.472  0.00  0.00    -0.322 OA
ATOM     11  H   LIG    1       24.165 -13.585   1.640  0.00  0.00    +0.220 HD
ENDBRANCH   8  10
BRANCH   8  12
ATOM     12  O   LIG    1       24.631 -12.480   4.709  0.00  0.00    -0.322 OA
ATOM     13  H   LIG    1       25.032 -12.641   5.579  0.00  0.00    +0.220 HD
ENDBRANCH   8  12
ENDBRANCH   1   8
BRANCH   1  14
ATOM     14  O   LIG    1       26.459 -14.026   1.921  0.00  0.00    -0.367 OA
ATOM     15  H   LIG    1       25.611 -13.619   1.646  0.00  0.00    +0.212 HD
ENDBRANCH   1  14
BRANCH   1  16
ATOM     16  C   LIG    1       26.587 -15.735   3.680  0.00  0.00    +0.061 C 
BRANCH  16  17
ATOM     17  C   LIG    1       25.548 -16.729   3.115  0.00  0.00    +0.019 C 
BRANCH  17  18
ATOM     18  C   LIG    1       25.827 -18.217   3.409  0.00  0.00    +0.078 C 
BRANCH  18  19
ATOM     19  N   LIG    1       24.626 -19.018   3.615  0.00  0.00    -0.330 NA
ATOM     20  H   LIG    1       24.416 -19.092   4.610  0.00  0.00    +0.118 HD
ATOM     21  H   LIG    1       23.827 -18.529   3.206  0.00  0.00    +0.118 HD
ENDBRANCH  18  19
ENDBRANCH  17  18
ENDBRANCH  16  17
ENDBRANCH   1  16
TORSDOF 11
ENDMDL
MODEL 3
REMARK VINA RESULT:      -3.9      6.030      7.009
REMARK  Name = *****
REMARK                            x       y       z     vdW  Elec       q    Type
REMARK                         _______ _______ _______ _____ _____    ______ ____
ROOT
ATOM      1  C   LIG    1       24.431 -20.693   4.542  0.00  0.00    +0.267 C 
ENDROOT
BRANCH   1   2
ATOM      2  P   LIG    1       25.031 -19.083   3.913  0.00  0.00    +0.371 P 
ATOM      3  O   LIG    1       25.739 -19.722   2.712  0.00  0.00    -0.255 OA
BRANCH   2   4
ATOM      4  O   LIG    1       25.599 -17.561   3.318  0.00  0.00    -0.322 OA
ATOM      5  H   LIG    1       26.263 -17.266   3.974  0.00  0.00    +0.220 HD
ENDBRANCH   2   4
BRANCH   2   6
ATOM      6  O   LIG    1       23.548 -18.702   3.313  0.00  0.00    -0.322 OA
ATOM      7  H   LIG    1       23.625 -17.931   2.716  0.00  0.00    +0.220 HD
ENDBRANCH   2   6
ENDBRANCH   1   2
BRANCH   1   8
ATOM      8  P   LIG    1       22.880 -20.417   5.510  0.00  0.00    +0.371 P 
ATOM      9  O   LIG    1       22.392 -19.019   5.630  0.00  0.00    -0.255 OA
BRANCH   8  10
ATOM     10  O   LIG    1       23.068 -21.111   6.948  0.00  0.00    -0.322 OA
ATOM     11  H   LIG    1       23.976 -21.058   7.295  0.00  0.00    +0.220 HD
ENDBRANCH   8  10
BRANCH   8  12
ATOM     12  O   LIG    1       21.770 -21.397   4.872  0.00  0.00    -0.322 OA
ATOM     13  H   LIG    1       21.141 -20.940   4.291  0.00  0.00    +0.220 HD
ENDBRANCH   8  12
ENDBRANCH   1   8
BRANCH   1  14
ATOM     14  O   LIG    1       24.096 -21.572   3.429  0.00  0.00    -0.367 OA
ATOM     15  H   LIG    1       24.206 -22.473   3.798  0.00  0.00    +0.212 HD
ENDBRANCH   1  14
BRANCH   1  16
ATOM     16  C   LIG    1       25.507 -21.403   5.433  0.00  0.00    +0.061 C 
BRANCH  16  17
ATOM     17  C   LIG    1       26.459 -20.449   6.187  0.00  0.00    +0.019 C 
BRANCH  17  18
ATOM     18  C   LIG    1       27.653 -21.125   6.892  0.00  0.00    +0.078 C 
BRANCH  18  19
ATOM     19  N   LIG    1       28.933 -20.915   6.227  0.00  0.00    -0.330 NA
ATOM     20  H   LIG    1       28.936 -20.021   5.738  0.00  0.00    +0.118 HD
ATOM     21  H   LIG    1       29.666 -20.839   6.935  0.00  0.00    +0.118 HD
ENDBRANCH  18  19
ENDBRANCH  17  18
ENDBRANCH  16  17
ENDBRANCH   1  16
TORSDOF 11
ENDMDL
MODEL 4
REMARK VINA RESULT:      -3.8      2.892      4.043
REMARK  Name = *****
REMARK                            x       y       z     vdW  Elec       q    Type
REMARK                         _______ _______ _______ _____ _____    ______ ____
ROOT
ATOM      1  C   LIG    1       26.159 -13.728   4.196  0.00  0.00    +0.267 C 
ENDROOT
BRANCH   1   2
ATOM      2  P   LIG    1       26.275 -15.454   3.600  0.00  0.00    +0.371 P 
ATOM      3  O   LIG    1       26.428 -15.027   2.135  0.00  0.00    -0.255 OA
BRANCH   2   4
ATOM      4  O   LIG    1       26.385 -17.087   3.037  0.00  0.00    -0.322 OA
ATOM      5  H   LIG    1       25.460 -17.353   2.855  0.00  0.00    +0.220 HD
ENDBRANCH   2   4
BRANCH   2   6
ATOM      6  O   LIG    1       27.831 -15.586   4.116  0.00  0.00    -0.322 OA
ATOM      7  H   LIG    1       28.355 -16.079   3.453  0.00  0.00    +0.220 HD
ENDBRANCH   2   6
ENDBRANCH   1   2
BRANCH   1   8
ATOM      8  P   LIG    1       24.401 -13.169   4.072  0.00  0.00    +0.371 P 
ATOM      9  O   LIG    1       24.021 -11.947   4.827  0.00  0.00    -0.255 OA
BRANCH   8  10
ATOM     10  O   LIG    1       23.461 -14.419   4.444  0.00  0.00    -0.322 OA
ATOM     11  H   LIG    1       22.514 -14.199   4.496  0.00  0.00    +0.220 HD
ENDBRANCH   8  10
BRANCH   8  12
ATOM     12  O   LIG    1       24.078 -13.038   2.499  0.00  0.00    -0.322 OA
ATOM     13  H   LIG    1       24.840 -13.236   1.931  0.00  0.00    +0.220 HD
ENDBRANCH   8  12
ENDBRANCH   1   8
BRANCH   1  14
ATOM     14  O   LIG    1       26.538 -13.657   5.600  0.00  0.00    -0.367 OA
ATOM     15  H   LIG    1       27.518 -13.686   5.582  0.00  0.00    +0.212 HD
ENDBRANCH   1  14
BRANCH   1  16
ATOM     16  C   LIG    1       27.091 -12.770   3.377  0.00  0.00    +0.061 C 
BRANCH  16  17
ATOM     17  C   LIG    1       28.603 -12.968   3.623  0.00  0.00    +0.019 C 
BRANCH  17  18
ATOM     18  C   LIG    1       29.291 -11.859   4.446  0.00  0.00    +0.078 C 
BRANCH  18  19
ATOM     19  N   LIG    1       29.011 -11.918   5.875  0.00  0.00    -0.330 NA
ATOM     20  H   LIG    1       29.325 -11.064   6.334  0.00  0.00    +0.118 HD
ATOM     21  H   LIG    1       27.998 -11.942   6.014  0.00  0.00    +0.118 HD
ENDBRANCH  18  19
ENDBRANCH  17  18
ENDBRANCH  16  17
ENDBRANCH   1  16
TORSDOF 11
ENDMDL
MODEL 5
REMARK VINA RESULT:      -3.7      1.776      3.724
REMARK  Name = *****
REMARK                            x       y       z     vdW  Elec       q    Type
REMARK                         _______ _______ _______ _____ _____    ______ ____
ROOT
ATOM      1  C   LIG    1       25.430 -13.860   4.019  0.00  0.00    +0.267 C 
ENDROOT
BRANCH   1   2
ATOM      2  P   LIG    1       24.569 -12.694   2.901  0.00  0.00    +0.371 P 
ATOM      3  O   LIG    1       24.091 -11.808   4.058  0.00  0.00    -0.255 OA
BRANCH   2   4
ATOM      4  O   LIG    1       23.755 -11.592   1.845  0.00  0.00    -0.322 OA
ATOM      5  H   LIG    1       22.977 -11.284   2.353  0.00  0.00    +0.220 HD
ENDBRANCH   2   4
BRANCH   2   6
ATOM      6  O   LIG    1       25.986 -11.992   2.452  0.00  0.00    -0.322 OA
ATOM      7  H   LIG    1       25.824 -11.370   1.715  0.00  0.00    +0.220 HD
ENDBRANCH   2   6
ENDBRANCH   1   2
BRANCH   1   8
ATOM      8  P   LIG    1       27.150 -14.127   3.396  0.00  0.00    +0.371 P 
ATOM      9  O   LIG    1       28.163 -13.092   3.729  0.00  0.00    -0.255 OA
BRANCH   8  10
ATOM     10  O   LIG    1       27.063 -14.392   1.812  0.00  0.00    -0.322 OA
ATOM     11  H   LIG    1       26.534 -13.732   1.330  0.00  0.00    +0.220 HD
ENDBRANCH   8  10
BRANCH   8  12
ATOM     12  O   LIG    1       27.589 -15.594   3.898  0.00  0.00    -0.322 OA
ATOM     13  H   LIG    1       27.308 -16.306   3.302  0.00  0.00    +0.220 HD
ENDBRANCH   8  12
ENDBRANCH   1   8
BRANCH   1  14
ATOM     14  O   LIG    1       25.536 -13.287   5.353  0.00  0.00    -0.367 OA
ATOM     15  H   LIG    1       25.078 -12.424   5.278  0.00  0.00    +0.212 HD
ENDBRANCH   1  14
BRANCH   1  16
ATOM     16  C   LIG    1       24.672 -15.228   4.122  0.00  0.00    +0.061 C 
BRANCH  16  17
ATOM     17  C   LIG    1       23.135 -15.114   4.227  0.00  0.00    +0.019 C 
BRANCH  17  18
ATOM     18  C   LIG    1       22.434 -16.271   4.968  0.00  0.00    +0.078 C 
BRANCH  18  19
ATOM     19  N   LIG    1       22.658 -17.582   4.371  0.00  0.00    -0.330 NA
ATOM     20  H   LIG    1       22.793 -18.284   5.098  0.00  0.00    +0.118 HD
ATOM     21  H   LIG    1       21.813 -17.868   3.873  0.00  0.00    +0.118 HD
ENDBRANCH  18  19
ENDBRANCH  17  18
ENDBRANCH  16  17
ENDBRANCH   1  16
TORSDOF 11
ENDMDL
MODEL 6
REMARK VINA RESULT:      -3.2      1.073      3.290
REMARK  Name = *****
REMARK                            x       y       z     vdW  Elec       q    Type
REMARK                         _______ _______ _______ _____ _____    ______ ____
ROOT
ATOM      1  C   LIG    1       25.415 -14.174   3.981  0.00  0.00    +0.267 C 
ENDROOT
BRANCH   1   2
ATOM      2  P   LIG    1       24.444 -12.919   3.070  0.00  0.00    +0.371 P 
ATOM      3  O   LIG    1       24.174 -12.090   4.332  0.00  0.00    -0.255 OA
BRANCH   2   4
ATOM      4  O   LIG    1       23.526 -11.732   2.209  0.00  0.00    -0.322 OA
ATOM      5  H   LIG    1       22.632 -11.767   2.607  0.00  0.00    +0.220 HD
ENDBRANCH   2   4
BRANCH   2   6
ATOM      6  O   LIG    1       25.806 -12.231   2.456  0.00  0.00    -0.322 OA
ATOM      7  H   LIG    1       25.894 -12.468   1.511  0.00  0.00    +0.220 HD
ENDBRANCH   2   6
ENDBRANCH   1   2
BRANCH   1   8
ATOM      8  P   LIG    1       27.127 -14.227   3.286  0.00  0.00    +0.371 P 
ATOM      9  O   LIG    1       27.260 -14.356   1.812  0.00  0.00    -0.255 OA
BRANCH   8  10
ATOM     10  O   LIG    1       27.937 -15.378   4.063  0.00  0.00    -0.322 OA
ATOM     11  H   LIG    1       28.732 -15.687   3.594  0.00  0.00    +0.220 HD
ENDBRANCH   8  10
BRANCH   8  12
ATOM     12  O   LIG    1       27.886 -12.923   3.854  0.00  0.00    -0.322 OA
ATOM     13  H   LIG    1       28.853 -12.996   3.823  0.00  0.00    +0.220 HD
ENDBRANCH   8  12
ENDBRANCH   1   8
BRANCH   1  14
ATOM     14  O   LIG    1       25.529 -13.797   5.384  0.00  0.00    -0.367 OA
ATOM     15  H   LIG    1       24.689 -14.107   5.781  0.00  0.00    +0.212 HD
ENDBRANCH   1  14
BRANCH   1  16
ATOM     16  C   LIG    1       24.751 -15.591   3.898  0.00  0.00    +0.061 C 
BRANCH  16  17
ATOM     17  C   LIG    1       25.664 -16.704   3.337  0.00  0.00    +0.019 C 
BRANCH  17  18
ATOM     18  C   LIG    1       25.071 -18.128   3.374  0.00  0.00    +0.078 C 
BRANCH  18  19
ATOM     19  N   LIG    1       25.983 -19.139   3.895  0.00  0.00    -0.330 NA
ATOM     20  H   LIG    1       25.689 -20.068   3.598  0.00  0.00    +0.118 HD
ATOM     21  H   LIG    1       26.905 -19.001   3.476  0.00  0.00    +0.118 HD
ENDBRANCH  18  19
ENDBRANCH  17  18
ENDBRANCH  16  17
ENDBRANCH   1  16
TORSDOF 11
ENDMDL
MODEL 7
REMARK VINA RESULT:      -2.8      2.803      3.448
REMARK  Name = *****
REMARK                            x       y       z     vdW  Elec       q    Type
REMARK                         _______ _______ _______ _____ _____    ______ ____
ROOT
ATOM      1  C   LIG    1       26.370 -13.378   4.282  0.00  0.00    +0.267 C 
ENDROOT
BRANCH   1   2
ATOM      2  P   LIG    1       27.858 -12.489   4.868  0.00  0.00    +0.371 P 
ATOM      3  O   LIG    1       28.156 -13.532   5.952  0.00  0.00    -0.255 OA
BRANCH   2   4
ATOM      4  O   LIG    1       29.265 -11.648   5.422  0.00  0.00    -0.322 OA
ATOM      5  H   LIG    1       28.923 -10.948   6.014  0.00  0.00    +0.220 HD
ENDBRANCH   2   4
BRANCH   2   6
ATOM      6  O   LIG    1       28.745 -13.017   3.587  0.00  0.00    -0.322 OA
ATOM      7  H   LIG    1       29.578 -12.506   3.533  0.00  0.00    +0.220 HD
ENDBRANCH   2   6
ENDBRANCH   1   2
BRANCH   1   8
ATOM      8  P   LIG    1       26.899 -14.800   3.225  0.00  0.00    +0.371 P 
ATOM      9  O   LIG    1       27.294 -14.498   1.825  0.00  0.00    -0.255 OA
BRANCH   8  10
ATOM     10  O   LIG    1       25.747 -15.919   3.294  0.00  0.00    -0.322 OA
ATOM     11  H   LIG    1       25.412 -16.085   4.193  0.00  0.00    +0.220 HD
ENDBRANCH   8  10
BRANCH   8  12
ATOM     12  O   LIG    1       28.069 -15.555   4.037  0.00  0.00    -0.322 OA
ATOM     13  H   LIG    1       27.869 -16.487   4.223  0.00  0.00    +0.220 HD
ENDBRANCH   8  12
ENDBRANCH   1   8
BRANCH   1  14
ATOM     14  O   LIG    1       25.639 -13.929   5.414  0.00  0.00    -0.367 OA
ATOM     15  H   LIG    1       26.155 -13.637   6.194  0.00  0.00    +0.212 HD
ENDBRANCH   1  14
BRANCH   1  16
ATOM     16  C   LIG    1       25.411 -12.434   3.479  0.00  0.00    +0.061 C 
BRANCH  16  17
ATOM     17  C   LIG    1       23.912 -12.585   3.823  0.00  0.00    +0.019 C 
BRANCH  17  18
ATOM     18  C   LIG    1       23.251 -13.893   3.343  0.00  0.00    +0.078 C 
BRANCH  18  19
ATOM     19  N   LIG    1       23.198 -14.939   4.356  0.00  0.00    -0.330 NA
ATOM     20  H   LIG    1       23.848 -14.733   5.114  0.00  0.00    +0.118 HD
ATOM     21  H   LIG    1       22.271 -14.937   4.788  0.00  0.00    +0.118 HD
ENDBRANCH  18  19
ENDBRANCH  17  18
ENDBRANCH  16  17
ENDBRANCH   1  16
TORSDOF 11
ENDMDL
MODEL 8
REMARK VINA RESULT:      -2.7      2.930      3.624
REMARK  Name = *****
REMARK                            x       y       z     vdW  Elec       q    Type
REMARK                         _______ _______ _______ _____ _____    ______ ____
ROOT
ATOM      1  C   LIG    1       25.131 -13.706   4.250  0.00  0.00    +0.267 C 
ENDROOT
BRANCH   1   2
ATOM      2  P   LIG    1       25.956 -15.223   3.644  0.00  0.00    +0.371 P 
ATOM      3  O   LIG    1       24.627 -15.941   3.382  0.00  0.00    -0.255 OA
BRANCH   2   4
ATOM      4  O   LIG    1       26.736 -16.657   3.071  0.00  0.00    -0.322 OA
ATOM      5  H   LIG    1       27.025 -16.440   2.161  0.00  0.00    +0.220 HD
ENDBRANCH   2   4
BRANCH   2   6
ATOM      6  O   LIG    1       26.296 -14.525   2.194  0.00  0.00    -0.322 OA
ATOM      7  H   LIG    1       26.674 -13.635   2.340  0.00  0.00    +0.220 HD
ENDBRANCH   2   6
ENDBRANCH   1   2
BRANCH   1   8
ATOM      8  P   LIG    1       24.781 -12.599   2.812  0.00  0.00    +0.371 P 
ATOM      9  O   LIG    1       25.947 -12.001   2.113  0.00  0.00    -0.255 OA
BRANCH   8  10
ATOM     10  O   LIG    1       23.735 -11.479   3.297  0.00  0.00    -0.322 OA
ATOM     11  H   LIG    1       22.825 -11.808   3.402  0.00  0.00    +0.220 HD
ENDBRANCH   8  10
BRANCH   8  12
ATOM     12  O   LIG    1       23.839 -13.443   1.812  0.00  0.00    -0.322 OA
ATOM     13  H   LIG    1       23.460 -14.238   2.219  0.00  0.00    +0.220 HD
ENDBRANCH   8  12
ENDBRANCH   1   8
BRANCH   1  14
ATOM     14  O   LIG    1       23.852 -14.042   4.860  0.00  0.00    -0.367 OA
ATOM     15  H   LIG    1       23.207 -13.935   4.130  0.00  0.00    +0.212 HD
ENDBRANCH   1  14
BRANCH   1  16
ATOM     16  C   LIG    1       26.008 -12.956   5.311  0.00  0.00    +0.061 C 
BRANCH  16  17
ATOM     17  C   LIG    1       27.484 -13.407   5.370  0.00  0.00    +0.019 C 
BRANCH  17  18
ATOM     18  C   LIG    1       28.484 -12.502   4.622  0.00  0.00    +0.078 C 
BRANCH  18  19
ATOM     19  N   LIG    1       28.791 -12.947   3.268  0.00  0.00    -0.330 NA
ATOM     20  H   LIG    1       28.652 -13.954   3.186  0.00  0.00    +0.118 HD
ATOM     21  H   LIG    1       28.120 -12.528   2.621  0.00  0.00    +0.118 HD
ENDBRANCH  18  19
ENDBRANCH  17  18
ENDBRANCH  16  17
ENDBRANCH   1  16
TORSDOF 11
ENDMDL
MODEL 9
REMARK VINA RESULT:      -2.6      6.163      7.451
REMARK  Name = *****
REMARK                            x       y       z     vdW  Elec       q    Type
REMARK                         _______ _______ _______ _____ _____    ______ ____
ROOT
ATOM      1  C   LIG    1       24.558 -20.395   5.237  0.00  0.00    +0.267 C 
ENDROOT
BRANCH   1   2
ATOM      2  P   LIG    1       22.845 -21.000   5.011  0.00  0.00    +0.371 P 
ATOM      3  O   LIG    1       22.699 -21.387   6.488  0.00  0.00    -0.255 OA
BRANCH   2   4
ATOM      4  O   LIG    1       21.226 -21.572   4.798  0.00  0.00    -0.322 OA
ATOM      5  H   LIG    1       21.309 -22.345   4.203  0.00  0.00    +0.220 HD
ENDBRANCH   2   4
BRANCH   2   6
ATOM      6  O   LIG    1       22.251 -19.467   4.966  0.00  0.00    -0.322 OA
ATOM      7  H   LIG    1       21.419 -19.453   4.452  0.00  0.00    +0.220 HD
ENDBRANCH   2   6
ENDBRANCH   1   2
BRANCH   1   8
ATOM      8  P   LIG    1       25.080 -19.492   3.710  0.00  0.00    +0.371 P 
ATOM      9  O   LIG    1       24.974 -20.220   2.419  0.00  0.00    -0.255 OA
BRANCH   8  10
ATOM     10  O   LIG    1       26.563 -18.925   3.958  0.00  0.00    -0.322 OA
ATOM     11  H   LIG    1       26.858 -18.284   3.288  0.00  0.00    +0.220 HD
ENDBRANCH   8  10
BRANCH   8  12
ATOM     12  O   LIG    1       24.252 -18.109   3.699  0.00  0.00    -0.322 OA
ATOM     13  H   LIG    1       23.305 -18.228   3.521  0.00  0.00    +0.220 HD
ENDBRANCH   8  12
ENDBRANCH   1   8
BRANCH   1  14
ATOM     14  O   LIG    1       24.612 -19.446   6.341  0.00  0.00    -0.367 OA
ATOM     15  H   LIG    1       23.831 -19.675   6.888  0.00  0.00    +0.212 HD
ENDBRANCH   1  14
BRANCH   1  16
ATOM     16  C   LIG    1       25.550 -21.569   5.538  0.00  0.00    +0.061 C 
BRANCH  16  17
ATOM     17  C   LIG    1       26.140 -21.572   6.967  0.00  0.00    +0.019 C 
BRANCH  17  18
ATOM     18  C   LIG    1       27.666 -21.364   7.053  0.00  0.00    +0.078 C 
BRANCH  18  19
ATOM     19  N   LIG    1       28.215 -20.532   5.990  0.00  0.00    -0.330 NA
ATOM     20  H   LIG    1       28.989 -19.971   6.342  0.00  0.00    +0.118 HD
ATOM     21  H   LIG    1       28.624 -21.137   5.274  0.00  0.00    +0.118 HD
ENDBRANCH  18  19
ENDBRANCH  17  18
ENDBRANCH  16  17
ENDBRANCH   1  16
TORSDOF 11
ENDMDL
