MODEL 1
REMARK VINA RESULT:      -3.7      0.000      0.000
REMARK  Name = *****
REMARK                            x       y       z     vdW  Elec       q    Type
REMARK                         _______ _______ _______ _____ _____    ______ ____
ROOT
ATOM      1  O   LIG    1       26.949 -17.373   3.439  0.00  0.00    -0.247 OA
ATOM      2  C   LIG    1       25.845 -17.852   3.701  0.00  0.00    +0.349 C 
ENDROOT
BRANCH   2   3
ATOM      3  C   LIG    1       25.528 -19.374   3.932  0.00  0.00    +0.213 C 
BRANCH   3   4
ATOM      4  C   LIG    1       24.041 -19.669   4.226  0.00  0.00    -0.001 A 
ATOM      5  C   LIG    1       23.004 -18.787   3.858  0.00  0.00    +0.007 A 
ATOM      6  C   LIG    1       21.662 -19.084   4.139  0.00  0.00    +0.000 A 
ATOM      7  C   LIG    1       21.321 -20.274   4.776  0.00  0.00    +0.000 A 
ATOM      8  C   LIG    1       22.318 -21.183   5.105  0.00  0.00    +0.000 A 
ATOM      9  C   LIG    1       23.655 -20.889   4.818  0.00  0.00    +0.007 A 
ENDBRANCH   3   4
BRANCH   3  10
ATOM     10  C   LIG    1       26.486 -19.873   5.046  0.00  0.00    -0.001 A 
ATOM     11  C   LIG    1       26.071 -20.778   6.041  0.00  0.00    +0.007 A 
ATOM     12  C   LIG    1       26.959 -21.216   7.029  0.00  0.00    +0.000 A 
ATOM     13  C   LIG    1       28.266 -20.739   7.060  0.00  0.00    +0.000 A 
ATOM     14  C   LIG    1       28.687 -19.814   6.108  0.00  0.00    +0.000 A 
ATOM     15  C   LIG    1       27.808 -19.386   5.109  0.00  0.00    +0.007 A 
ENDBRANCH   3  10
BRANCH   3  16
ATOM     16  O   LIG    1       25.804 -20.059   2.695  0.00  0.00    -0.370 OA
ATOM     17  H   LIG    1       26.769 -20.029   2.585  0.00  0.00    +0.212 HD
ENDBRANCH   3  16
ENDBRANCH   2   3
BRANCH   2  18
ATOM     18  O   LIG    1       24.692 -17.086   3.739  0.00  0.00    -0.459 OA
BRANCH  18  19
ATOM     19  C   LIG    1       24.811 -15.707   3.315  0.00  0.00    +0.187 C 
ATOM     20  C   LIG    1       26.156 -15.498   2.603  0.00  0.00    +0.099 C 
ATOM     21  C   LIG    1       26.576 -14.019   2.534  0.00  0.00    +0.070 C 
ATOM     22  N   LIG    1       26.694 -13.458   3.965  0.00  0.00    +0.248 N 
ATOM     23  C   LIG    1       25.198 -13.379   4.339  0.00  0.00    +0.070 C 
ATOM     24  C   LIG    1       24.591 -12.703   3.098  0.00  0.00    +0.060 C 
ATOM     25  C   LIG    1       27.351 -12.032   3.982  0.00  0.00    +0.134 C 
ATOM     26  C   LIG    1       28.638 -12.183   4.772  0.00  0.00    +0.056 C 
ATOM     27  C   LIG    1       28.308 -13.265   5.767  0.00  0.00    +0.056 C 
ATOM     28  C   LIG    1       27.591 -14.283   4.908  0.00  0.00    +0.134 C 
ATOM     29  C   LIG    1       25.466 -13.147   1.921  0.00  0.00    +0.060 C 
ATOM     30  C   LIG    1       24.615 -14.790   4.530  0.00  0.00    +0.099 C 
ENDBRANCH  18  19
ENDBRANCH   2  18
TORSDOF 6
ENDMDL
MODEL 2
REMARK VINA RESULT:      -1.0      1.108      2.674
REMARK  Name = *****
REMARK                            x       y       z     vdW  Elec       q    Type
REMARK                         _______ _______ _______ _____ _____    ______ ____
ROOT
ATOM      1  O   LIG    1       24.460 -17.249   3.748  0.00  0.00    -0.247 OA
ATOM      2  C   LIG    1       25.542 -17.829   3.645  0.00  0.00    +0.349 C 
ENDROOT
BRANCH   2   3
ATOM      3  C   LIG    1       25.838 -19.315   4.061  0.00  0.00    +0.213 C 
BRANCH   3   4
ATOM      4  C   LIG    1       24.655 -20.022   4.756  0.00  0.00    -0.001 A 
ATOM      5  C   LIG    1       23.444 -20.307   4.092  0.00  0.00    +0.007 A 
ATOM      6  C   LIG    1       22.386 -20.951   4.753  0.00  0.00    +0.000 A 
ATOM      7  C   LIG    1       22.518 -21.342   6.082  0.00  0.00    +0.000 A 
ATOM      8  C   LIG    1       23.718 -21.118   6.744  0.00  0.00    +0.000 A 
ATOM      9  C   LIG    1       24.774 -20.483   6.084  0.00  0.00    +0.007 A 
ENDBRANCH   3   4
BRANCH   3  10
ATOM     10  C   LIG    1       27.133 -19.296   4.916  0.00  0.00    -0.001 A 
ATOM     11  C   LIG    1       28.154 -18.350   4.710  0.00  0.00    +0.007 A 
ATOM     12  C   LIG    1       29.307 -18.353   5.501  0.00  0.00    +0.000 A 
ATOM     13  C   LIG    1       29.475 -19.314   6.493  0.00  0.00    +0.000 A 
ATOM     14  C   LIG    1       28.495 -20.283   6.690  0.00  0.00    +0.000 A 
ATOM     15  C   LIG    1       27.334 -20.275   5.912  0.00  0.00    +0.007 A 
ENDBRANCH   3  10
BRANCH   3  16
ATOM     16  O   LIG    1       26.055 -20.061   2.847  0.00  0.00    -0.370 OA
ATOM     17  H   LIG    1       25.461 -20.828   2.898  0.00  0.00    +0.212 HD
ENDBRANCH   3  16
ENDBRANCH   2   3
BRANCH   2  18
ATOM     18  O   LIG    1       26.691 -17.188   3.214  0.00  0.00    -0.459 OA
BRANCH  18  19
ATOM     19  C   LIG    1       26.923 -15.852   3.723  0.00  0.00    +0.187 C 
ATOM     20  C   LIG    1       25.734 -15.415   4.590  0.00  0.00    +0.099 C 
ATOM     21  C   LIG    1       25.661 -13.890   4.786  0.00  0.00    +0.070 C 
ATOM     22  N   LIG    1       25.531 -13.207   3.409  0.00  0.00    +0.248 N 
ATOM     23  C   LIG    1       26.965 -13.424   2.876  0.00  0.00    +0.070 C 
ATOM     24  C   LIG    1       27.824 -12.992   4.076  0.00  0.00    +0.060 C 
ATOM     25  C   LIG    1       25.209 -11.677   3.543  0.00  0.00    +0.134 C 
ATOM     26  C   LIG    1       23.851 -11.486   2.894  0.00  0.00    +0.056 C 
ATOM     27  C   LIG    1       23.834 -12.534   1.812  0.00  0.00    +0.056 C 
ATOM     28  C   LIG    1       24.387 -13.746   2.530  0.00  0.00    +0.134 C 
ATOM     29  C   LIG    1       26.991 -13.328   5.318  0.00  0.00    +0.060 C 
ATOM     30  C   LIG    1       27.199 -14.908   2.544  0.00  0.00    +0.099 C 
ENDBRANCH  18  19
ENDBRANCH   2  18
TORSDOF 6
ENDMDL
