MODEL 1
REMARK VINA RESULT:      -9.0      0.000      0.000
REMARK  Name = *****
REMARK                            x       y       z     vdW  Elec       q    Type
REMARK                         _______ _______ _______ _____ _____    ______ ____
ROOT
ATOM      1  N   LIG    1       29.340 -20.391   7.042  0.00  0.00    -0.298 NA
ATOM      2  C   LIG    1       28.936 -21.820   7.000  0.00  0.00    +0.100 C 
ATOM      3  C   LIG    1       27.674 -22.143   7.832  0.00  0.00    +0.100 C 
ATOM      4  N   LIG    1       26.470 -21.366   7.449  0.00  0.00    -0.289 NA
ATOM      5  C   LIG    1       26.858 -19.931   7.397  0.00  0.00    +0.100 C 
ATOM      6  C   LIG    1       28.163 -19.598   6.626  0.00  0.00    +0.100 C 
ENDROOT
BRANCH   1   7
ATOM      7  C   LIG    1       29.849 -20.009   8.385  0.00  0.00    +0.112 C 
BRANCH   7   8
ATOM      8  C   LIG    1       31.236 -20.607   8.755  0.00  0.00    +0.176 C 
BRANCH   8   9
ATOM      9  O   LIG    1       32.171 -19.579   9.145  0.00  0.00    -0.367 OA
BRANCH   9  10
ATOM     10  C   LIG    1       31.720 -18.265   8.746  0.00  0.00    +0.279 C 
BRANCH  10  12
ATOM     11  O   LIG    1       32.746 -17.237  10.717  0.00  0.00    -0.248 OA
ATOM     12  C   LIG    1       32.433 -17.159   9.552  0.00  0.00    +0.331 C 
BRANCH  12  13
ATOM     13  O   LIG    1       32.640 -16.049   8.778  0.00  0.00    -0.479 OA
ATOM     14  H   LIG    1       31.903 -15.422   8.941  0.00  0.00    +0.295 HD
ENDBRANCH  12  13
ENDBRANCH  10  12
ENDBRANCH   9  10
ENDBRANCH   8   9
ENDBRANCH   7   8
ENDBRANCH   1   7
BRANCH   4  15
ATOM     15  C   LIG    1       25.862 -21.901   6.194  0.00  0.00    +0.117 C 
BRANCH  15  16
ATOM     16  C   LIG    1       24.778 -20.970   5.627  0.00  0.00    -0.026 A 
ATOM     17  C   LIG    1       24.937 -20.416   4.342  0.00  0.00    +0.007 A 
ATOM     18  C   LIG    1       23.964 -19.576   3.797  0.00  0.00    +0.020 A 
ATOM     19  C   LIG    1       22.809 -19.300   4.523  0.00  0.00    +0.041 A 
ATOM     20 CL   LIG    1       21.578 -18.320   3.826  0.00  0.00    -0.084 Cl
ATOM     21  C   LIG    1       22.643 -19.812   5.806  0.00  0.00    +0.020 A 
ATOM     22  C   LIG    1       23.634 -20.622   6.364  0.00  0.00    +0.007 A 
ENDBRANCH  15  16
BRANCH  15  23
ATOM     23  C   LIG    1       25.313 -23.347   6.338  0.00  0.00    -0.026 A 
ATOM     24  C   LIG    1       26.195 -24.443   6.334  0.00  0.00    +0.005 A 
ATOM     25  C   LIG    1       25.711 -25.757   6.395  0.00  0.00    +0.000 A 
ATOM     26  C   LIG    1       24.341 -26.000   6.455  0.00  0.00    +0.000 A 
ATOM     27  C   LIG    1       23.452 -24.930   6.487  0.00  0.00    +0.000 A 
ATOM     28  C   LIG    1       23.933 -23.619   6.430  0.00  0.00    +0.005 A 
ENDBRANCH  15  23
ENDBRANCH   4  15
TORSDOF 9
ENDMDL
MODEL 2
REMARK VINA RESULT:      -8.6      5.277      8.421
REMARK  Name = *****
REMARK                            x       y       z     vdW  Elec       q    Type
REMARK                         _______ _______ _______ _____ _____    ______ ____
ROOT
ATOM      1  N   LIG    1       25.629 -25.537   5.622  0.00  0.00    -0.298 NA
ATOM      2  C   LIG    1       24.731 -24.630   4.863  0.00  0.00    +0.100 C 
ATOM      3  C   LIG    1       23.973 -23.610   5.745  0.00  0.00    +0.100 C 
ATOM      4  N   LIG    1       24.849 -22.732   6.559  0.00  0.00    -0.289 NA
ATOM      5  C   LIG    1       25.822 -23.601   7.271  0.00  0.00    +0.100 C 
ATOM      6  C   LIG    1       26.538 -24.680   6.414  0.00  0.00    +0.100 C 
ENDROOT
BRANCH   1   7
ATOM      7  C   LIG    1       24.857 -26.490   6.461  0.00  0.00    +0.112 C 
BRANCH   7   8
ATOM      8  C   LIG    1       25.716 -27.542   7.217  0.00  0.00    +0.176 C 
BRANCH   8   9
ATOM      9  O   LIG    1       24.948 -28.721   7.544  0.00  0.00    -0.367 OA
BRANCH   9  10
ATOM     10  C   LIG    1       25.190 -29.794   6.606  0.00  0.00    +0.279 C 
BRANCH  10  12
ATOM     11  O   LIG    1       23.492 -31.527   6.275  0.00  0.00    -0.248 OA
ATOM     12  C   LIG    1       23.865 -30.393   6.086  0.00  0.00    +0.331 C 
BRANCH  12  13
ATOM     13  O   LIG    1       23.172 -29.472   5.348  0.00  0.00    -0.479 OA
ATOM     14  H   LIG    1       22.361 -29.231   5.845  0.00  0.00    +0.295 HD
ENDBRANCH  12  13
ENDBRANCH  10  12
ENDBRANCH   9  10
ENDBRANCH   8   9
ENDBRANCH   7   8
ENDBRANCH   1   7
BRANCH   4  15
ATOM     15  C   LIG    1       25.459 -21.656   5.721  0.00  0.00    +0.117 C 
BRANCH  15  16
ATOM     16  C   LIG    1       26.600 -20.926   6.448  0.00  0.00    -0.026 A 
ATOM     17  C   LIG    1       26.528 -20.732   7.841  0.00  0.00    +0.007 A 
ATOM     18  C   LIG    1       27.555 -20.081   8.528  0.00  0.00    +0.020 A 
ATOM     19  C   LIG    1       28.676 -19.638   7.833  0.00  0.00    +0.041 A 
ATOM     20 CL   LIG    1       29.972 -18.896   8.688  0.00  0.00    -0.084 Cl
ATOM     21  C   LIG    1       28.756 -19.792   6.452  0.00  0.00    +0.020 A 
ATOM     22  C   LIG    1       27.712 -20.410   5.760  0.00  0.00    +0.007 A 
ENDBRANCH  15  16
BRANCH  15  23
ATOM     23  C   LIG    1       24.425 -20.635   5.173  0.00  0.00    -0.026 A 
ATOM     24  C   LIG    1       24.681 -19.941   3.976  0.00  0.00    +0.005 A 
ATOM     25  C   LIG    1       23.790 -18.968   3.504  0.00  0.00    +0.000 A 
ATOM     26  C   LIG    1       22.634 -18.666   4.219  0.00  0.00    +0.000 A 
ATOM     27  C   LIG    1       22.347 -19.359   5.391  0.00  0.00    +0.000 A 
ATOM     28  C   LIG    1       23.233 -20.332   5.862  0.00  0.00    +0.005 A 
ENDBRANCH  15  23
ENDBRANCH   4  15
TORSDOF 9
ENDMDL
MODEL 3
REMARK VINA RESULT:      -8.6      5.275      8.418
REMARK  Name = *****
REMARK                            x       y       z     vdW  Elec       q    Type
REMARK                         _______ _______ _______ _____ _____    ______ ____
ROOT
ATOM      1  N   LIG    1       25.629 -25.494   5.620  0.00  0.00    -0.298 NA
ATOM      2  C   LIG    1       24.761 -24.556   4.863  0.00  0.00    +0.100 C 
ATOM      3  C   LIG    1       24.005 -23.540   5.751  0.00  0.00    +0.100 C 
ATOM      4  N   LIG    1       24.880 -22.694   6.598  0.00  0.00    -0.289 NA
ATOM      5  C   LIG    1       25.825 -23.595   7.311  0.00  0.00    +0.100 C 
ATOM      6  C   LIG    1       26.538 -24.669   6.446  0.00  0.00    +0.100 C 
ENDROOT
BRANCH   1   7
ATOM      7  C   LIG    1       24.824 -26.449   6.426  0.00  0.00    +0.112 C 
BRANCH   7   8
ATOM      8  C   LIG    1       25.650 -27.540   7.165  0.00  0.00    +0.176 C 
BRANCH   8   9
ATOM      9  O   LIG    1       24.830 -28.673   7.527  0.00  0.00    -0.367 OA
BRANCH   9  10
ATOM     10  C   LIG    1       25.131 -29.832   6.719  0.00  0.00    +0.279 C 
BRANCH  10  12
ATOM     11  O   LIG    1       23.492 -31.583   6.228  0.00  0.00    -0.248 OA
ATOM     12  C   LIG    1       23.850 -30.435   6.105  0.00  0.00    +0.331 C 
BRANCH  12  13
ATOM     13  O   LIG    1       23.179 -29.499   5.365  0.00  0.00    -0.479 OA
ATOM     14  H   LIG    1       22.438 -29.156   5.909  0.00  0.00    +0.295 HD
ENDBRANCH  12  13
ENDBRANCH  10  12
ENDBRANCH   9  10
ENDBRANCH   8   9
ENDBRANCH   7   8
ENDBRANCH   1   7
BRANCH   4  15
ATOM     15  C   LIG    1       25.526 -21.614   5.794  0.00  0.00    +0.117 C 
BRANCH  15  16
ATOM     16  C   LIG    1       26.667 -20.920   6.555  0.00  0.00    -0.026 A 
ATOM     17  C   LIG    1       27.819 -20.506   5.859  0.00  0.00    +0.007 A 
ATOM     18  C   LIG    1       28.867 -19.865   6.523  0.00  0.00    +0.020 A 
ATOM     19  C   LIG    1       28.762 -19.608   7.887  0.00  0.00    +0.041 A 
ATOM     20 CL   LIG    1       30.022 -18.758   8.693  0.00  0.00    -0.084 Cl
ATOM     21  C   LIG    1       27.646 -20.034   8.601  0.00  0.00    +0.020 A 
ATOM     22  C   LIG    1       26.616 -20.708   7.943  0.00  0.00    +0.007 A 
ENDBRANCH  15  16
BRANCH  15  23
ATOM     23  C   LIG    1       24.520 -20.562   5.248  0.00  0.00    -0.026 A 
ATOM     24  C   LIG    1       23.313 -20.317   5.928  0.00  0.00    +0.005 A 
ATOM     25  C   LIG    1       22.366 -19.421   5.413  0.00  0.00    +0.000 A 
ATOM     26  C   LIG    1       22.605 -18.760   4.210  0.00  0.00    +0.000 A 
ATOM     27  C   LIG    1       23.804 -18.966   3.536  0.00  0.00    +0.000 A 
ATOM     28  C   LIG    1       24.751 -19.857   4.050  0.00  0.00    +0.005 A 
ENDBRANCH  15  23
ENDBRANCH   4  15
TORSDOF 9
ENDMDL
MODEL 4
REMARK VINA RESULT:      -8.2      2.066      4.164
REMARK  Name = *****
REMARK                            x       y       z     vdW  Elec       q    Type
REMARK                         _______ _______ _______ _____ _____    ______ ____
ROOT
ATOM      1  N   LIG    1       28.831 -20.231   8.508  0.00  0.00    -0.298 NA
ATOM      2  C   LIG    1       27.736 -19.477   7.845  0.00  0.00    +0.100 C 
ATOM      3  C   LIG    1       27.535 -19.837   6.354  0.00  0.00    +0.100 C 
ATOM      4  N   LIG    1       27.256 -21.271   6.101  0.00  0.00    -0.289 NA
ATOM      5  C   LIG    1       28.286 -22.065   6.823  0.00  0.00    +0.100 C 
ATOM      6  C   LIG    1       28.552 -21.668   8.300  0.00  0.00    +0.100 C 
ENDROOT
BRANCH   1   7
ATOM      7  C   LIG    1       30.163 -19.820   7.993  0.00  0.00    +0.112 C 
BRANCH   7   8
ATOM      8  C   LIG    1       31.375 -20.411   8.767  0.00  0.00    +0.176 C 
BRANCH   8   9
ATOM      9  O   LIG    1       32.261 -19.374   9.240  0.00  0.00    -0.367 OA
BRANCH   9  10
ATOM     10  C   LIG    1       31.791 -18.058   8.869  0.00  0.00    +0.279 C 
BRANCH  10  12
ATOM     11  O   LIG    1       32.951 -17.054  10.778  0.00  0.00    -0.248 OA
ATOM     12  C   LIG    1       32.545 -16.956   9.643  0.00  0.00    +0.331 C 
BRANCH  12  13
ATOM     13  O   LIG    1       32.668 -15.825   8.882  0.00  0.00    -0.479 OA
ATOM     14  H   LIG    1       32.727 -16.096   7.941  0.00  0.00    +0.295 HD
ENDBRANCH  12  13
ENDBRANCH  10  12
ENDBRANCH   9  10
ENDBRANCH   8   9
ENDBRANCH   7   8
ENDBRANCH   1   7
BRANCH   4  15
ATOM     15  C   LIG    1       25.843 -21.613   6.443  0.00  0.00    +0.117 C 
BRANCH  15  16
ATOM     16  C   LIG    1       25.536 -23.105   6.237  0.00  0.00    -0.026 A 
ATOM     17  C   LIG    1       24.941 -23.534   5.034  0.00  0.00    +0.007 A 
ATOM     18  C   LIG    1       24.660 -24.885   4.815  0.00  0.00    +0.020 A 
ATOM     19  C   LIG    1       24.992 -25.823   5.788  0.00  0.00    +0.041 A 
ATOM     20 CL   LIG    1       24.708 -27.494   5.492  0.00  0.00    -0.084 Cl
ATOM     21  C   LIG    1       25.552 -25.419   6.996  0.00  0.00    +0.020 A 
ATOM     22  C   LIG    1       25.799 -24.065   7.229  0.00  0.00    +0.007 A 
ENDBRANCH  15  16
BRANCH  15  23
ATOM     23  C   LIG    1       24.796 -20.737   5.703  0.00  0.00    -0.026 A 
ATOM     24  C   LIG    1       23.537 -20.495   6.282  0.00  0.00    +0.005 A 
ATOM     25  C   LIG    1       22.558 -19.764   5.597  0.00  0.00    +0.000 A 
ATOM     26  C   LIG    1       22.815 -19.265   4.322  0.00  0.00    +0.000 A 
ATOM     27  C   LIG    1       24.063 -19.469   3.741  0.00  0.00    +0.000 A 
ATOM     28  C   LIG    1       25.042 -20.196   4.424  0.00  0.00    +0.005 A 
ENDBRANCH  15  23
ENDBRANCH   4  15
TORSDOF 9
ENDMDL
MODEL 5
REMARK VINA RESULT:      -7.4      4.854      7.935
REMARK  Name = *****
REMARK                            x       y       z     vdW  Elec       q    Type
REMARK                         _______ _______ _______ _____ _____    ______ ____
ROOT
ATOM      1  N   LIG    1       24.211 -25.101   6.794  0.00  0.00    -0.298 NA
ATOM      2  C   LIG    1       25.362 -24.459   7.479  0.00  0.00    +0.100 C 
ATOM      3  C   LIG    1       26.376 -23.795   6.519  0.00  0.00    +0.100 C 
ATOM      4  N   LIG    1       25.795 -22.755   5.635  0.00  0.00    -0.289 NA
ATOM      5  C   LIG    1       24.585 -23.335   4.993  0.00  0.00    +0.100 C 
ATOM      6  C   LIG    1       23.592 -24.070   5.934  0.00  0.00    +0.100 C 
ENDROOT
BRANCH   1   7
ATOM      7  C   LIG    1       24.633 -26.308   6.037  0.00  0.00    +0.112 C 
BRANCH   7   8
ATOM      8  C   LIG    1       25.417 -27.362   6.869  0.00  0.00    +0.176 C 
BRANCH   8   9
ATOM      9  O   LIG    1       25.506 -28.627   6.178  0.00  0.00    -0.367 OA
BRANCH   9  10
ATOM     10  C   LIG    1       24.987 -29.712   6.979  0.00  0.00    +0.279 C 
BRANCH  10  12
ATOM     11  O   LIG    1       23.535 -31.599   6.405  0.00  0.00    -0.248 OA
ATOM     12  C   LIG    1       23.827 -30.434   6.261  0.00  0.00    +0.331 C 
BRANCH  12  13
ATOM     13  O   LIG    1       23.182 -29.585   5.403  0.00  0.00    -0.479 OA
ATOM     14  H   LIG    1       23.861 -29.105   4.882  0.00  0.00    +0.295 HD
ENDBRANCH  12  13
ENDBRANCH  10  12
ENDBRANCH   9  10
ENDBRANCH   8   9
ENDBRANCH   7   8
ENDBRANCH   1   7
BRANCH   4  15
ATOM     15  C   LIG    1       25.564 -21.482   6.381  0.00  0.00    +0.117 C 
BRANCH  15  16
ATOM     16  C   LIG    1       24.511 -20.590   5.704  0.00  0.00    -0.026 A 
ATOM     17  C   LIG    1       24.799 -19.991   4.462  0.00  0.00    +0.007 A 
ATOM     18  C   LIG    1       23.858 -19.185   3.819  0.00  0.00    +0.020 A 
ATOM     19  C   LIG    1       22.609 -18.987   4.401  0.00  0.00    +0.041 A 
ATOM     20 CL   LIG    1       21.424 -18.049   3.578  0.00  0.00    -0.084 Cl
ATOM     21  C   LIG    1       22.313 -19.544   5.641  0.00  0.00    +0.020 A 
ATOM     22  C   LIG    1       23.268 -20.321   6.300  0.00  0.00    +0.007 A 
ENDBRANCH  15  16
BRANCH  15  23
ATOM     23  C   LIG    1       26.865 -20.676   6.649  0.00  0.00    -0.026 A 
ATOM     24  C   LIG    1       27.590 -20.123   5.578  0.00  0.00    +0.005 A 
ATOM     25  C   LIG    1       28.800 -19.452   5.798  0.00  0.00    +0.000 A 
ATOM     26  C   LIG    1       29.309 -19.325   7.088  0.00  0.00    +0.000 A 
ATOM     27  C   LIG    1       28.595 -19.839   8.166  0.00  0.00    +0.000 A 
ATOM     28  C   LIG    1       27.387 -20.507   7.948  0.00  0.00    +0.005 A 
ENDBRANCH  15  23
ENDBRANCH   4  15
TORSDOF 9
ENDMDL
MODEL 6
REMARK VINA RESULT:      -7.4      2.468      4.711
REMARK  Name = *****
REMARK                            x       y       z     vdW  Elec       q    Type
REMARK                         _______ _______ _______ _____ _____    ______ ____
ROOT
ATOM      1  N   LIG    1       27.990 -19.792   8.176  0.00  0.00    -0.298 NA
ATOM      2  C   LIG    1       26.998 -19.607   7.086  0.00  0.00    +0.100 C 
ATOM      3  C   LIG    1       27.093 -20.662   5.960  0.00  0.00    +0.100 C 
ATOM      4  N   LIG    1       26.941 -22.065   6.418  0.00  0.00    -0.289 NA
ATOM      5  C   LIG    1       27.862 -22.265   7.569  0.00  0.00    +0.100 C 
ATOM      6  C   LIG    1       27.830 -21.175   8.674  0.00  0.00    +0.100 C 
ENDROOT
BRANCH   1   7
ATOM      7  C   LIG    1       29.371 -19.502   7.708  0.00  0.00    +0.112 C 
BRANCH   7   8
ATOM      8  C   LIG    1       30.242 -18.687   8.705  0.00  0.00    +0.176 C 
BRANCH   8   9
ATOM      9  O   LIG    1       31.098 -19.547   9.489  0.00  0.00    -0.367 OA
BRANCH   9  10
ATOM     10  C   LIG    1       31.732 -20.558   8.675  0.00  0.00    +0.279 C 
BRANCH  10  12
ATOM     11  O   LIG    1       30.778 -22.227  10.191  0.00  0.00    -0.248 OA
ATOM     12  C   LIG    1       31.478 -21.972   9.239  0.00  0.00    +0.331 C 
BRANCH  12  13
ATOM     13  O   LIG    1       32.182 -22.910   8.533  0.00  0.00    -0.479 OA
ATOM     14  H   LIG    1       33.127 -22.835   8.785  0.00  0.00    +0.295 HD
ENDBRANCH  12  13
ENDBRANCH  10  12
ENDBRANCH   9  10
ENDBRANCH   8   9
ENDBRANCH   7   8
ENDBRANCH   1   7
BRANCH   4  15
ATOM     15  C   LIG    1       25.509 -22.389   6.693  0.00  0.00    +0.117 C 
BRANCH  15  16
ATOM     16  C   LIG    1       25.191 -23.875   6.461  0.00  0.00    -0.026 A 
ATOM     17  C   LIG    1       26.243 -24.792   6.274  0.00  0.00    +0.007 A 
ATOM     18  C   LIG    1       25.983 -26.149   6.072  0.00  0.00    +0.020 A 
ATOM     19  C   LIG    1       24.669 -26.607   6.078  0.00  0.00    +0.041 A 
ATOM     20 CL   LIG    1       24.351 -28.288   5.897  0.00  0.00    -0.084 Cl
ATOM     21  C   LIG    1       23.612 -25.715   6.232  0.00  0.00    +0.020 A 
ATOM     22  C   LIG    1       23.871 -24.353   6.397  0.00  0.00    +0.007 A 
ENDBRANCH  15  16
BRANCH  15  23
ATOM     23  C   LIG    1       24.510 -21.493   5.911  0.00  0.00    -0.026 A 
ATOM     24  C   LIG    1       23.569 -20.709   6.603  0.00  0.00    +0.005 A 
ATOM     25  C   LIG    1       22.617 -19.948   5.912  0.00  0.00    +0.000 A 
ATOM     26  C   LIG    1       22.584 -19.960   4.519  0.00  0.00    +0.000 A 
ATOM     27  C   LIG    1       23.522 -20.706   3.813  0.00  0.00    +0.000 A 
ATOM     28  C   LIG    1       24.474 -21.463   4.502  0.00  0.00    +0.005 A 
ENDBRANCH  15  23
ENDBRANCH   4  15
TORSDOF 9
ENDMDL
MODEL 7
REMARK VINA RESULT:      -7.1      2.359      4.234
REMARK  Name = *****
REMARK                            x       y       z     vdW  Elec       q    Type
REMARK                         _______ _______ _______ _____ _____    ______ ____
ROOT
ATOM      1  N   LIG    1       27.615 -21.678   6.904  0.00  0.00    -0.298 NA
ATOM      2  C   LIG    1       26.748 -22.849   7.192  0.00  0.00    +0.100 C 
ATOM      3  C   LIG    1       25.632 -22.569   8.225  0.00  0.00    +0.100 C 
ATOM      4  N   LIG    1       24.717 -21.462   7.855  0.00  0.00    -0.289 NA
ATOM      5  C   LIG    1       25.553 -20.292   7.476  0.00  0.00    +0.100 C 
ATOM      6  C   LIG    1       26.724 -20.572   6.495  0.00  0.00    +0.100 C 
ENDROOT
BRANCH   1   7
ATOM      7  C   LIG    1       28.467 -21.333   8.072  0.00  0.00    +0.112 C 
BRANCH   7   8
ATOM      8  C   LIG    1       29.421 -20.125   7.852  0.00  0.00    +0.176 C 
BRANCH   8   9
ATOM      9  O   LIG    1       30.274 -19.904   8.997  0.00  0.00    -0.367 OA
BRANCH   9  10
ATOM     10  C   LIG    1       30.884 -18.595   8.966  0.00  0.00    +0.279 C 
BRANCH  10  12
ATOM     11  O   LIG    1       30.677 -18.268  11.384  0.00  0.00    -0.248 OA
ATOM     12  C   LIG    1       30.598 -17.813  10.267  0.00  0.00    +0.331 C 
BRANCH  12  13
ATOM     13  O   LIG    1       30.208 -16.531   9.987  0.00  0.00    -0.479 OA
ATOM     14  H   LIG    1       30.274 -16.397   9.018  0.00  0.00    +0.295 HD
ENDBRANCH  12  13
ENDBRANCH  10  12
ENDBRANCH   9  10
ENDBRANCH   8   9
ENDBRANCH   7   8
ENDBRANCH   1   7
BRANCH   4  15
ATOM     15  C   LIG    1       23.737 -21.900   6.815  0.00  0.00    +0.117 C 
BRANCH  15  16
ATOM     16  C   LIG    1       24.054 -23.300   6.266  0.00  0.00    -0.026 A 
ATOM     17  C   LIG    1       24.821 -23.432   5.093  0.00  0.00    +0.007 A 
ATOM     18  C   LIG    1       25.132 -24.692   4.578  0.00  0.00    +0.020 A 
ATOM     19  C   LIG    1       24.698 -25.835   5.243  0.00  0.00    +0.041 A 
ATOM     20 CL   LIG    1       25.138 -27.388   4.647  0.00  0.00    -0.084 Cl
ATOM     21  C   LIG    1       23.914 -25.729   6.388  0.00  0.00    +0.020 A 
ATOM     22  C   LIG    1       23.572 -24.468   6.882  0.00  0.00    +0.007 A 
ENDBRANCH  15  16
BRANCH  15  23
ATOM     23  C   LIG    1       23.575 -20.885   5.650  0.00  0.00    -0.026 A 
ATOM     24  C   LIG    1       24.413 -20.961   4.523  0.00  0.00    +0.005 A 
ATOM     25  C   LIG    1       24.325 -20.013   3.495  0.00  0.00    +0.000 A 
ATOM     26  C   LIG    1       23.403 -18.972   3.575  0.00  0.00    +0.000 A 
ATOM     27  C   LIG    1       22.545 -18.894   4.668  0.00  0.00    +0.000 A 
ATOM     28  C   LIG    1       22.630 -19.840   5.693  0.00  0.00    +0.005 A 
ENDBRANCH  15  23
ENDBRANCH   4  15
TORSDOF 9
ENDMDL
MODEL 8
REMARK VINA RESULT:      -6.4      4.749      7.646
REMARK  Name = *****
REMARK                            x       y       z     vdW  Elec       q    Type
REMARK                         _______ _______ _______ _____ _____    ______ ____
ROOT
ATOM      1  N   LIG    1       25.254 -25.378   5.891  0.00  0.00    -0.298 NA
ATOM      2  C   LIG    1       24.367 -24.363   5.268  0.00  0.00    +0.100 C 
ATOM      3  C   LIG    1       23.908 -23.247   6.235  0.00  0.00    +0.100 C 
ATOM      4  N   LIG    1       25.016 -22.489   6.866  0.00  0.00    -0.289 NA
ATOM      5  C   LIG    1       25.974 -23.477   7.431  0.00  0.00    +0.100 C 
ATOM      6  C   LIG    1       26.388 -24.645   6.496  0.00  0.00    +0.100 C 
ENDROOT
BRANCH   1   7
ATOM      7  C   LIG    1       24.517 -26.215   6.873  0.00  0.00    +0.112 C 
BRANCH   7   8
ATOM      8  C   LIG    1       24.060 -27.602   6.339  0.00  0.00    +0.176 C 
BRANCH   8   9
ATOM      9  O   LIG    1       24.665 -27.906   5.063  0.00  0.00    -0.367 OA
BRANCH   9  10
ATOM     10  C   LIG    1       26.039 -28.331   5.210  0.00  0.00    +0.279 C 
BRANCH  10  12
ATOM     11  O   LIG    1       28.197 -27.380   4.551  0.00  0.00    -0.248 OA
ATOM     12  C   LIG    1       26.996 -27.417   4.415  0.00  0.00    +0.331 C 
BRANCH  12  13
ATOM     13  O   LIG    1       26.299 -26.620   3.548  0.00  0.00    -0.479 OA
ATOM     14  H   LIG    1       26.465 -26.943   2.637  0.00  0.00    +0.295 HD
ENDBRANCH  12  13
ENDBRANCH  10  12
ENDBRANCH   9  10
ENDBRANCH   8   9
ENDBRANCH   7   8
ENDBRANCH   1   7
BRANCH   4  15
ATOM     15  C   LIG    1       25.611 -21.509   5.910  0.00  0.00    +0.117 C 
BRANCH  15  16
ATOM     16  C   LIG    1       26.808 -20.756   6.512  0.00  0.00    -0.026 A 
ATOM     17  C   LIG    1       26.868 -20.541   7.903  0.00  0.00    +0.007 A 
ATOM     18  C   LIG    1       27.949 -19.869   8.479  0.00  0.00    +0.020 A 
ATOM     19  C   LIG    1       28.993 -19.426   7.672  0.00  0.00    +0.041 A 
ATOM     20 CL   LIG    1       30.356 -18.658   8.388  0.00  0.00    -0.084 Cl
ATOM     21  C   LIG    1       28.941 -19.601   6.293  0.00  0.00    +0.020 A 
ATOM     22  C   LIG    1       27.843 -20.240   5.714  0.00  0.00    +0.007 A 
ENDBRANCH  15  16
BRANCH  15  23
ATOM     23  C   LIG    1       24.579 -20.505   5.327  0.00  0.00    -0.026 A 
ATOM     24  C   LIG    1       23.367 -20.264   5.999  0.00  0.00    +0.005 A 
ATOM     25  C   LIG    1       22.396 -19.414   5.452  0.00  0.00    +0.000 A 
ATOM     26  C   LIG    1       22.616 -18.794   4.225  0.00  0.00    +0.000 A 
ATOM     27  C   LIG    1       23.819 -18.996   3.555  0.00  0.00    +0.000 A 
ATOM     28  C   LIG    1       24.789 -19.842   4.101  0.00  0.00    +0.005 A 
ENDBRANCH  15  23
ENDBRANCH   4  15
TORSDOF 9
ENDMDL
MODEL 9
REMARK VINA RESULT:      -6.2      8.949     12.239
REMARK  Name = *****
REMARK                            x       y       z     vdW  Elec       q    Type
REMARK                         _______ _______ _______ _____ _____    ______ ____
ROOT
ATOM      1  N   LIG    1       23.853 -31.945  11.104  0.00  0.00    -0.298 NA
ATOM      2  C   LIG    1       24.466 -32.676   9.965  0.00  0.00    +0.100 C 
ATOM      3  C   LIG    1       23.805 -32.384   8.598  0.00  0.00    +0.100 C 
ATOM      4  N   LIG    1       23.802 -30.952   8.212  0.00  0.00    -0.289 NA
ATOM      5  C   LIG    1       23.271 -30.175   9.364  0.00  0.00    +0.100 C 
ATOM      6  C   LIG    1       23.874 -30.508  10.755  0.00  0.00    +0.100 C 
ENDROOT
BRANCH   1   7
ATOM      7  C   LIG    1       22.487 -32.449  11.400  0.00  0.00    +0.112 C 
BRANCH   7   8
ATOM      8  C   LIG    1       21.628 -31.520  12.304  0.00  0.00    +0.176 C 
BRANCH   8   9
ATOM      9  O   LIG    1       20.539 -30.920  11.569  0.00  0.00    -0.367 OA
BRANCH   9  10
ATOM     10  C   LIG    1       20.097 -31.766  10.484  0.00  0.00    +0.279 C 
BRANCH  10  12
ATOM     11  O   LIG    1       17.727 -32.367  10.621  0.00  0.00    -0.248 OA
ATOM     12  C   LIG    1       18.582 -31.606  10.232  0.00  0.00    +0.331 C 
BRANCH  12  13
ATOM     13  O   LIG    1       18.329 -30.496   9.472  0.00  0.00    -0.479 OA
ATOM     14  H   LIG    1       19.190 -30.102   9.214  0.00  0.00    +0.295 HD
ENDBRANCH  12  13
ENDBRANCH  10  12
ENDBRANCH   9  10
ENDBRANCH   8   9
ENDBRANCH   7   8
ENDBRANCH   1   7
BRANCH   4  15
ATOM     15  C   LIG    1       25.148 -30.522   7.728  0.00  0.00    +0.117 C 
BRANCH  15  16
ATOM     16  C   LIG    1       25.127 -29.111   7.118  0.00  0.00    -0.026 A 
ATOM     17  C   LIG    1       25.977 -28.115   7.636  0.00  0.00    +0.007 A 
ATOM     18  C   LIG    1       25.987 -26.828   7.095  0.00  0.00    +0.020 A 
ATOM     19  C   LIG    1       25.163 -26.530   6.013  0.00  0.00    +0.041 A 
ATOM     20 CL   LIG    1       25.224 -24.964   5.302  0.00  0.00    -0.084 Cl
ATOM     21  C   LIG    1       24.294 -27.489   5.503  0.00  0.00    +0.020 A 
ATOM     22  C   LIG    1       24.258 -28.765   6.069  0.00  0.00    +0.007 A 
ENDBRANCH  15  16
BRANCH  15  23
ATOM     23  C   LIG    1       25.803 -31.529   6.743  0.00  0.00    -0.026 A 
ATOM     24  C   LIG    1       26.972 -32.220   7.109  0.00  0.00    +0.005 A 
ATOM     25  C   LIG    1       27.613 -33.079   6.207  0.00  0.00    +0.000 A 
ATOM     26  C   LIG    1       27.102 -33.261   4.924  0.00  0.00    +0.000 A 
ATOM     27  C   LIG    1       25.932 -32.609   4.550  0.00  0.00    +0.000 A 
ATOM     28  C   LIG    1       25.290 -31.753   5.449  0.00  0.00    +0.005 A 
ENDBRANCH  15  23
ENDBRANCH   4  15
TORSDOF 9
ENDMDL
