MODEL 1
REMARK VINA RESULT:      24.2      0.000      0.000
REMARK  Name = *****
REMARK                            x       y       z     vdW  Elec       q    Type
REMARK                         _______ _______ _______ _____ _____    ______ ____
ROOT
ATOM      1  C   LIG    1       22.344 -17.016   3.677  0.00  0.00    +0.165 C 
ATOM      2  N   LIG    1       23.198 -18.067   4.256  0.00  0.00    -0.288 N 
ATOM      3  C   LIG    1       24.516 -18.071   3.847  0.00  0.00    +0.237 C 
ATOM      4  O   LIG    1       24.937 -17.050   3.291  0.00  0.00    -0.274 OA
ATOM      5  C   LIG    1       22.418 -19.104   4.917  0.00  0.00    +0.112 C 
ATOM      6  C   LIG    1       20.964 -18.865   4.517  0.00  0.00    +0.012 C 
ATOM      7  C   LIG    1       20.396 -19.702   3.371  0.00  0.00    +0.005 C 
ATOM      8  C   LIG    1       19.353 -18.786   2.740  0.00  0.00    +0.001 C 
ATOM      9  C   LIG    1       19.993 -17.409   2.782  0.00  0.00    +0.006 C 
ATOM     10  C   LIG    1       20.904 -17.416   4.016  0.00  0.00    +0.023 C 
ENDROOT
BRANCH   1  13
ATOM     11  N   LIG    1       23.253 -14.768   3.275  0.00  0.00    -0.304 N 
ATOM     12  H   LIG    1       23.267 -15.096   2.318  0.00  0.00    +0.149 HD
ATOM     13  C   LIG    1       22.601 -15.572   4.182  0.00  0.00    +0.234 C 
ATOM     14  O   LIG    1       22.439 -15.258   5.362  0.00  0.00    -0.274 OA
BRANCH  11  15
ATOM     15  C   LIG    1       23.782 -13.436   3.570  0.00  0.00    +0.149 C 
BRANCH  15  16
ATOM     16  C   LIG    1       22.962 -12.785   4.702  0.00  0.00    +0.237 C 
ATOM     17  O   LIG    1       22.372 -11.718   4.610  0.00  0.00    -0.285 OA
BRANCH  16  18
ATOM     18  C   LIG    1       22.945 -13.519   6.054  0.00  0.00    +0.282 C 
ATOM     19  N   LIG    1       24.151 -13.673   6.702  0.00  0.00    -0.306 N 
ATOM     20  H   LIG    1       24.087 -14.168   7.591  0.00  0.00    +0.149 HD
ATOM     21  O   LIG    1       21.906 -13.905   6.530  0.00  0.00    -0.267 OA
BRANCH  19  22
ATOM     22  C   LIG    1       25.427 -13.331   6.189  0.00  0.00    +0.073 C 
ATOM     23  C   LIG    1       25.720 -13.412   4.717  0.00  0.00    +0.024 C 
ATOM     24  C   LIG    1       25.614 -12.073   5.387  0.00  0.00    +0.024 C 
ENDBRANCH  19  22
ENDBRANCH  16  18
ENDBRANCH  15  16
BRANCH  15  25
ATOM     25  C   LIG    1       23.768 -12.595   2.291  0.00  0.00    +0.030 C 
BRANCH  25  27
ATOM     26  C   LIG    1       26.200 -12.366   1.813  0.00  0.00    +0.004 C 
ATOM     27  C   LIG    1       24.921 -11.612   2.145  0.00  0.00    -0.001 C 
ENDBRANCH  25  27
ENDBRANCH  15  25
ENDBRANCH  11  15
ENDBRANCH   1  13
BRANCH   3  28
ATOM     28  C   LIG    1       25.400 -19.355   3.869  0.00  0.00    +0.164 C 
BRANCH  28  29
ATOM     29  C   LIG    1       24.628 -20.599   4.514  0.00  0.00    -0.011 C 
ATOM     30  C   LIG    1       25.637 -21.555   5.193  0.00  0.00    +0.013 C 
ATOM     31  C   LIG    1       23.845 -21.433   3.471  0.00  0.00    +0.013 C 
ATOM     32  C   LIG    1       23.606 -20.185   5.601  0.00  0.00    +0.013 C 
ENDBRANCH  28  29
BRANCH  28  33
ATOM     33  N   LIG    1       26.590 -18.993   4.713  0.00  0.00    -0.302 N 
ATOM     34  H   LIG    1       26.356 -18.597   5.614  0.00  0.00    +0.149 HD
ATOM     35  C   LIG    1       27.834 -18.635   4.223  0.00  0.00    +0.234 C 
ATOM     36  O   LIG    1       28.058 -18.663   3.012  0.00  0.00    -0.274 OA
BRANCH  35  37
ATOM     37  C   LIG    1       28.935 -18.152   5.267  0.00  0.00    +0.162 C 
BRANCH  37  38
ATOM     38  C   LIG    1       28.667 -18.744   6.707  0.00  0.00    +0.018 C 
ATOM     39  C   LIG    1       27.189 -19.063   7.061  0.00  0.00    +0.006 C 
ATOM     40  C   LIG    1       26.624 -20.346   6.450  0.00  0.00    +0.000 C 
ATOM     41  C   LIG    1       27.503 -21.571   6.668  0.00  0.00    +0.000 C 
ATOM     42  C   LIG    1       28.966 -21.282   6.365  0.00  0.00    +0.000 C 
ATOM     43  C   LIG    1       29.473 -20.016   7.062  0.00  0.00    +0.006 C 
ENDBRANCH  37  38
BRANCH  37  44
ATOM     44  N   LIG    1       29.002 -16.667   5.274  0.00  0.00    -0.298 N 
ATOM     45  H   LIG    1       29.556 -16.198   5.985  0.00  0.00    +0.150 HD
ATOM     46  C   LIG    1       28.383 -15.846   4.339  0.00  0.00    +0.265 C 
ATOM     47  O   LIG    1       27.751 -16.243   3.392  0.00  0.00    -0.269 OA
BRANCH  46  48
ATOM     48  C   LIG    1       28.520 -14.371   4.593  0.00  0.00    +0.143 A 
ATOM     49  N   LIG    1       28.398 -13.520   3.536  0.00  0.00    -0.247 NA
ATOM     50  C   LIG    1       28.612 -12.212   3.835  0.00  0.00    +0.131 A 
ATOM     51  C   LIG    1       28.973 -11.773   5.103  0.00  0.00    +0.130 A 
ATOM     52  N   LIG    1       29.089 -12.618   6.151  0.00  0.00    -0.260 NA
ATOM     53  C   LIG    1       28.842 -13.930   5.871  0.00  0.00    +0.143 A 
ENDBRANCH  46  48
ENDBRANCH  37  44
ENDBRANCH  35  37
ENDBRANCH  28  33
ENDBRANCH   3  28
TORSDOF 14
ENDMDL
