MODEL 1
REMARK VINA RESULT:      -9.0      0.000      0.000
REMARK  Name = *****
REMARK                            x       y       z     vdW  Elec       q    Type
REMARK                         _______ _______ _______ _____ _____    ______ ____
ROOT
ATOM      1  C   LIG    1       23.304 -21.497   7.899  0.00  0.00    +0.036 C 
ATOM      2  C   LIG    1       24.369 -20.795   7.115  0.00  0.00    -0.021 C 
ATOM      3  C   LIG    1       25.331 -21.348   6.336  0.00  0.00    -0.015 C 
ENDROOT
BRANCH   3   4
ATOM      4  C   LIG    1       25.327 -22.814   6.141  0.00  0.00    -0.017 A 
ATOM      5  C   LIG    1       25.892 -23.662   7.104  0.00  0.00    +0.012 A 
ATOM      6  C   LIG    1       25.939 -25.040   6.887  0.00  0.00    +0.046 A 
ATOM      7  C   LIG    1       25.421 -25.570   5.710  0.00  0.00    +0.117 A 
ATOM      8  C   LIG    1       24.851 -24.746   4.745  0.00  0.00    +0.046 A 
ATOM      9  C   LIG    1       24.800 -23.367   4.965  0.00  0.00    +0.012 A 
BRANCH   7  10
ATOM     10  O   LIG    1       25.499 -26.920   5.534  0.00  0.00    -0.507 OA
ATOM     11  H   LIG    1       25.173 -27.136   4.645  0.00  0.00    +0.292 HD
ENDBRANCH   7  10
ENDBRANCH   3   4
BRANCH   3  12
ATOM     12  C   LIG    1       26.338 -20.488   5.698  0.00  0.00    -0.015 C 
ATOM     13  C   LIG    1       26.109 -19.819   4.543  0.00  0.00    -0.021 C 
ATOM     14  C   LIG    1       24.823 -19.764   3.780  0.00  0.00    +0.036 C 
BRANCH  12  15
ATOM     15  C   LIG    1       27.685 -20.284   6.282  0.00  0.00    -0.017 A 
ATOM     16  C   LIG    1       28.538 -19.300   5.763  0.00  0.00    +0.012 A 
ATOM     17  C   LIG    1       29.827 -19.139   6.279  0.00  0.00    +0.046 A 
ATOM     18  C   LIG    1       30.262 -19.958   7.313  0.00  0.00    +0.117 A 
ATOM     19  C   LIG    1       29.430 -20.939   7.844  0.00  0.00    +0.046 A 
ATOM     20  C   LIG    1       28.141 -21.102   7.327  0.00  0.00    +0.012 A 
BRANCH  18  21
ATOM     21  O   LIG    1       31.528 -19.766   7.785  0.00  0.00    -0.507 OA
ATOM     22  H   LIG    1       31.476 -19.294   8.632  0.00  0.00    +0.292 HD
ENDBRANCH  18  21
ENDBRANCH  12  15
ENDBRANCH   3  12
TORSDOF 5
ENDMDL
MODEL 2
REMARK VINA RESULT:      -8.9      1.175      1.713
REMARK  Name = *****
REMARK                            x       y       z     vdW  Elec       q    Type
REMARK                         _______ _______ _______ _____ _____    ______ ____
ROOT
ATOM      1  C   LIG    1       22.297 -22.971   6.854  0.00  0.00    +0.036 C 
ATOM      2  C   LIG    1       23.279 -21.965   6.337  0.00  0.00    -0.021 C 
ATOM      3  C   LIG    1       24.542 -22.185   5.897  0.00  0.00    -0.015 C 
ENDROOT
BRANCH   3   4
ATOM      4  C   LIG    1       25.035 -23.577   5.828  0.00  0.00    -0.017 A 
ATOM      5  C   LIG    1       24.842 -24.344   4.670  0.00  0.00    +0.012 A 
ATOM      6  C   LIG    1       25.257 -25.677   4.632  0.00  0.00    +0.046 A 
ATOM      7  C   LIG    1       25.865 -26.241   5.748  0.00  0.00    +0.117 A 
ATOM      8  C   LIG    1       26.071 -25.494   6.904  0.00  0.00    +0.046 A 
ATOM      9  C   LIG    1       25.660 -24.160   6.940  0.00  0.00    +0.012 A 
BRANCH   7  10
ATOM     10  O   LIG    1       26.243 -27.549   5.671  0.00  0.00    -0.507 OA
ATOM     11  H   LIG    1       26.831 -27.746   6.419  0.00  0.00    +0.292 HD
ENDBRANCH   7  10
ENDBRANCH   3   4
BRANCH   3  12
ATOM     12  C   LIG    1       25.382 -21.048   5.492  0.00  0.00    -0.015 C 
ATOM     13  C   LIG    1       25.170 -20.346   4.353  0.00  0.00    -0.021 C 
ATOM     14  C   LIG    1       24.045 -20.531   3.384  0.00  0.00    +0.036 C 
BRANCH  12  15
ATOM     15  C   LIG    1       26.526 -20.581   6.310  0.00  0.00    -0.017 A 
ATOM     16  C   LIG    1       27.694 -20.117   5.690  0.00  0.00    +0.012 A 
ATOM     17  C   LIG    1       28.793 -19.723   6.459  0.00  0.00    +0.046 A 
ATOM     18  C   LIG    1       28.723 -19.789   7.845  0.00  0.00    +0.117 A 
ATOM     19  C   LIG    1       27.571 -20.244   8.480  0.00  0.00    +0.046 A 
ATOM     20  C   LIG    1       26.472 -20.640   7.711  0.00  0.00    +0.012 A 
BRANCH  18  21
ATOM     21  O   LIG    1       29.819 -19.395   8.555  0.00  0.00    -0.507 OA
ATOM     22  H   LIG    1       29.596 -19.399   9.500  0.00  0.00    +0.292 HD
ENDBRANCH  18  21
ENDBRANCH  12  15
ENDBRANCH   3  12
TORSDOF 5
ENDMDL
MODEL 3
REMARK VINA RESULT:      -8.3      1.059      5.660
REMARK  Name = *****
REMARK                            x       y       z     vdW  Elec       q    Type
REMARK                         _______ _______ _______ _____ _____    ______ ____
ROOT
ATOM      1  C   LIG    1       25.520 -20.381   9.140  0.00  0.00    +0.036 C 
ATOM      2  C   LIG    1       25.102 -21.266   8.007  0.00  0.00    -0.021 C 
ATOM      3  C   LIG    1       25.812 -21.592   6.899  0.00  0.00    -0.015 C 
ENDROOT
BRANCH   3   4
ATOM      4  C   LIG    1       27.203 -21.103   6.780  0.00  0.00    -0.017 A 
ATOM      5  C   LIG    1       28.222 -21.661   7.563  0.00  0.00    +0.012 A 
ATOM      6  C   LIG    1       29.522 -21.155   7.490  0.00  0.00    +0.046 A 
ATOM      7  C   LIG    1       29.801 -20.095   6.635  0.00  0.00    +0.117 A 
ATOM      8  C   LIG    1       28.803 -19.532   5.846  0.00  0.00    +0.046 A 
ATOM      9  C   LIG    1       27.504 -20.041   5.916  0.00  0.00    +0.012 A 
BRANCH   7  10
ATOM     10  O   LIG    1       31.080 -19.624   6.604  0.00  0.00    -0.507 OA
ATOM     11  H   LIG    1       31.063 -18.697   6.315  0.00  0.00    +0.292 HD
ENDBRANCH   7  10
ENDBRANCH   3   4
BRANCH   3  12
ATOM     12  C   LIG    1       25.196 -22.426   5.857  0.00  0.00    -0.015 C 
ATOM     13  C   LIG    1       24.476 -21.911   4.831  0.00  0.00    -0.021 C 
ATOM     14  C   LIG    1       24.255 -20.462   4.533  0.00  0.00    +0.036 C 
BRANCH  12  15
ATOM     15  C   LIG    1       25.324 -23.903   5.850  0.00  0.00    -0.017 A 
ATOM     16  C   LIG    1       25.839 -24.572   6.969  0.00  0.00    +0.012 A 
ATOM     17  C   LIG    1       26.009 -25.958   6.947  0.00  0.00    +0.046 A 
ATOM     18  C   LIG    1       25.661 -26.677   5.810  0.00  0.00    +0.117 A 
ATOM     19  C   LIG    1       25.146 -26.033   4.689  0.00  0.00    +0.046 A 
ATOM     20  C   LIG    1       24.978 -24.645   4.711  0.00  0.00    +0.012 A 
BRANCH  18  21
ATOM     21  O   LIG    1       25.844 -28.029   5.833  0.00  0.00    -0.507 OA
ATOM     22  H   LIG    1       26.187 -28.311   4.971  0.00  0.00    +0.292 HD
ENDBRANCH  18  21
ENDBRANCH  12  15
ENDBRANCH   3  12
TORSDOF 5
ENDMDL
MODEL 4
REMARK VINA RESULT:      -8.1      1.213      6.150
REMARK  Name = *****
REMARK                            x       y       z     vdW  Elec       q    Type
REMARK                         _______ _______ _______ _____ _____    ______ ____
ROOT
ATOM      1  C   LIG    1       26.146 -19.557   4.203  0.00  0.00    +0.036 C 
ATOM      2  C   LIG    1       25.666 -20.457   5.299  0.00  0.00    -0.021 C 
ATOM      3  C   LIG    1       26.380 -20.966   6.332  0.00  0.00    -0.015 C 
ENDROOT
BRANCH   3   4
ATOM      4  C   LIG    1       27.793 -20.556   6.486  0.00  0.00    -0.017 A 
ATOM      5  C   LIG    1       28.661 -21.288   7.308  0.00  0.00    +0.012 A 
ATOM      6  C   LIG    1       29.977 -20.861   7.497  0.00  0.00    +0.046 A 
ATOM      7  C   LIG    1       30.424 -19.707   6.864  0.00  0.00    +0.117 A 
ATOM      8  C   LIG    1       29.579 -18.971   6.040  0.00  0.00    +0.046 A 
ATOM      9  C   LIG    1       28.264 -19.400   5.847  0.00  0.00    +0.012 A 
BRANCH   7  10
ATOM     10  O   LIG    1       31.713 -19.320   7.086  0.00  0.00    -0.507 OA
ATOM     11  H   LIG    1       31.708 -18.556   7.685  0.00  0.00    +0.292 HD
ENDBRANCH   7  10
ENDBRANCH   3   4
BRANCH   3  12
ATOM     12  C   LIG    1       25.740 -21.896   7.274  0.00  0.00    -0.015 C 
ATOM     13  C   LIG    1       25.531 -21.595   8.578  0.00  0.00    -0.021 C 
ATOM     14  C   LIG    1       25.821 -20.292   9.253  0.00  0.00    +0.036 C 
BRANCH  12  15
ATOM     15  C   LIG    1       25.267 -23.238   6.859  0.00  0.00    -0.017 A 
ATOM     16  C   LIG    1       23.894 -23.501   6.751  0.00  0.00    +0.012 A 
ATOM     17  C   LIG    1       23.445 -24.779   6.409  0.00  0.00    +0.046 A 
ATOM     18  C   LIG    1       24.365 -25.793   6.171  0.00  0.00    +0.117 A 
ATOM     19  C   LIG    1       25.732 -25.552   6.270  0.00  0.00    +0.046 A 
ATOM     20  C   LIG    1       26.182 -24.273   6.615  0.00  0.00    +0.012 A 
BRANCH  18  21
ATOM     21  O   LIG    1       23.881 -27.025   5.840  0.00  0.00    -0.507 OA
ATOM     22  H   LIG    1       24.545 -27.693   6.074  0.00  0.00    +0.292 HD
ENDBRANCH  18  21
ENDBRANCH  12  15
ENDBRANCH   3  12
TORSDOF 5
ENDMDL
MODEL 5
REMARK VINA RESULT:      -8.0      1.028      5.859
REMARK  Name = *****
REMARK                            x       y       z     vdW  Elec       q    Type
REMARK                         _______ _______ _______ _____ _____    ______ ____
ROOT
ATOM      1  C   LIG    1       25.341 -19.582   3.805  0.00  0.00    +0.036 C 
ATOM      2  C   LIG    1       24.817 -20.722   4.623  0.00  0.00    -0.021 C 
ATOM      3  C   LIG    1       25.360 -21.266   5.739  0.00  0.00    -0.015 C 
ENDROOT
BRANCH   3   4
ATOM      4  C   LIG    1       26.580 -20.650   6.305  0.00  0.00    -0.017 A 
ATOM      5  C   LIG    1       27.602 -20.191   5.462  0.00  0.00    +0.012 A 
ATOM      6  C   LIG    1       28.777 -19.665   6.004  0.00  0.00    +0.046 A 
ATOM      7  C   LIG    1       28.929 -19.597   7.384  0.00  0.00    +0.117 A 
ATOM      8  C   LIG    1       27.923 -20.042   8.236  0.00  0.00    +0.046 A 
ATOM      9  C   LIG    1       26.746 -20.564   7.694  0.00  0.00    +0.012 A 
BRANCH   7  10
ATOM     10  O   LIG    1       30.096 -19.088   7.869  0.00  0.00    -0.507 OA
ATOM     11  H   LIG    1       30.311 -18.279   7.377  0.00  0.00    +0.292 HD
ENDBRANCH   7  10
ENDBRANCH   3   4
BRANCH   3  12
ATOM     12  C   LIG    1       24.726 -22.436   6.364  0.00  0.00    -0.015 C 
ATOM     13  C   LIG    1       23.712 -22.335   7.257  0.00  0.00    -0.021 C 
ATOM     14  C   LIG    1       23.023 -21.079   7.689  0.00  0.00    +0.036 C 
BRANCH  12  15
ATOM     15  C   LIG    1       25.150 -23.822   6.054  0.00  0.00    -0.017 A 
ATOM     16  C   LIG    1       24.879 -24.379   4.797  0.00  0.00    +0.012 A 
ATOM     17  C   LIG    1       25.233 -25.702   4.519  0.00  0.00    +0.046 A 
ATOM     18  C   LIG    1       25.860 -26.467   5.495  0.00  0.00    +0.117 A 
ATOM     19  C   LIG    1       26.140 -25.932   6.749  0.00  0.00    +0.046 A 
ATOM     20  C   LIG    1       25.784 -24.609   7.028  0.00  0.00    +0.012 A 
BRANCH  18  21
ATOM     21  O   LIG    1       26.187 -27.754   5.180  0.00  0.00    -0.507 OA
ATOM     22  H   LIG    1       26.914 -27.741   4.536  0.00  0.00    +0.292 HD
ENDBRANCH  18  21
ENDBRANCH  12  15
ENDBRANCH   3  12
TORSDOF 5
ENDMDL
MODEL 6
REMARK VINA RESULT:      -8.0      2.938      6.120
REMARK  Name = *****
REMARK                            x       y       z     vdW  Elec       q    Type
REMARK                         _______ _______ _______ _____ _____    ______ ____
ROOT
ATOM      1  C   LIG    1       27.517 -19.536   5.043  0.00  0.00    +0.036 C 
ATOM      2  C   LIG    1       27.078 -20.647   5.946  0.00  0.00    -0.021 C 
ATOM      3  C   LIG    1       25.812 -21.040   6.228  0.00  0.00    -0.015 C 
ENDROOT
BRANCH   3   4
ATOM      4  C   LIG    1       24.692 -20.374   5.529  0.00  0.00    -0.017 A 
ATOM      5  C   LIG    1       24.881 -19.805   4.262  0.00  0.00    +0.012 A 
ATOM      6  C   LIG    1       23.835 -19.126   3.633  0.00  0.00    +0.046 A 
ATOM      7  C   LIG    1       22.603 -19.018   4.268  0.00  0.00    +0.117 A 
ATOM      8  C   LIG    1       22.395 -19.581   5.523  0.00  0.00    +0.046 A 
ATOM      9  C   LIG    1       23.439 -20.265   6.150  0.00  0.00    +0.012 A 
BRANCH   7  10
ATOM     10  O   LIG    1       21.615 -18.336   3.624  0.00  0.00    -0.507 OA
ATOM     11  H   LIG    1       21.048 -17.909   4.288  0.00  0.00    +0.292 HD
ENDBRANCH   7  10
ENDBRANCH   3   4
BRANCH   3  12
ATOM     12  C   LIG    1       25.582 -22.117   7.203  0.00  0.00    -0.015 C 
ATOM     13  C   LIG    1       25.687 -21.934   8.540  0.00  0.00    -0.021 C 
ATOM     14  C   LIG    1       25.959 -20.644   9.248  0.00  0.00    +0.036 C 
BRANCH  12  15
ATOM     15  C   LIG    1       25.210 -23.490   6.787  0.00  0.00    -0.017 A 
ATOM     16  C   LIG    1       23.861 -23.841   6.636  0.00  0.00    +0.012 A 
ATOM     17  C   LIG    1       23.506 -25.148   6.293  0.00  0.00    +0.046 A 
ATOM     18  C   LIG    1       24.496 -26.103   6.098  0.00  0.00    +0.117 A 
ATOM     19  C   LIG    1       25.841 -25.775   6.242  0.00  0.00    +0.046 A 
ATOM     20  C   LIG    1       26.197 -24.467   6.586  0.00  0.00    +0.012 A 
BRANCH  18  21
ATOM     21  O   LIG    1       24.103 -27.367   5.766  0.00  0.00    -0.507 OA
ATOM     22  H   LIG    1       24.671 -27.691   5.049  0.00  0.00    +0.292 HD
ENDBRANCH  18  21
ENDBRANCH  12  15
ENDBRANCH   3  12
TORSDOF 5
ENDMDL
MODEL 7
REMARK VINA RESULT:      -8.0      1.658      5.695
REMARK  Name = *****
REMARK                            x       y       z     vdW  Elec       q    Type
REMARK                         _______ _______ _______ _____ _____    ______ ____
ROOT
ATOM      1  C   LIG    1       26.218 -18.425   3.494  0.00  0.00    +0.036 C 
ATOM      2  C   LIG    1       25.076 -19.284   3.941  0.00  0.00    -0.021 C 
ATOM      3  C   LIG    1       25.033 -20.127   5.002  0.00  0.00    -0.015 C 
ENDROOT
BRANCH   3   4
ATOM      4  C   LIG    1       26.204 -20.190   5.903  0.00  0.00    -0.017 A 
ATOM      5  C   LIG    1       27.504 -20.092   5.389  0.00  0.00    +0.012 A 
ATOM      6  C   LIG    1       28.607 -20.212   6.238  0.00  0.00    +0.046 A 
ATOM      7  C   LIG    1       28.410 -20.428   7.597  0.00  0.00    +0.117 A 
ATOM      8  C   LIG    1       27.126 -20.522   8.126  0.00  0.00    +0.046 A 
ATOM      9  C   LIG    1       26.023 -20.397   7.278  0.00  0.00    +0.012 A 
BRANCH   7  10
ATOM     10  O   LIG    1       29.514 -20.551   8.387  0.00  0.00    -0.507 OA
ATOM     11  H   LIG    1       29.473 -21.406   8.846  0.00  0.00    +0.292 HD
ENDBRANCH   7  10
ENDBRANCH   3   4
BRANCH   3  12
ATOM     12  C   LIG    1       23.833 -20.944   5.238  0.00  0.00    -0.015 C 
ATOM     13  C   LIG    1       22.576 -20.445   5.156  0.00  0.00    -0.021 C 
ATOM     14  C   LIG    1       22.188 -19.059   4.747  0.00  0.00    +0.036 C 
BRANCH  12  15
ATOM     15  C   LIG    1       23.913 -22.384   5.578  0.00  0.00    -0.017 A 
ATOM     16  C   LIG    1       24.867 -23.204   4.958  0.00  0.00    +0.012 A 
ATOM     17  C   LIG    1       24.912 -24.571   5.240  0.00  0.00    +0.046 A 
ATOM     18  C   LIG    1       24.009 -25.120   6.143  0.00  0.00    +0.117 A 
ATOM     19  C   LIG    1       23.056 -24.322   6.771  0.00  0.00    +0.046 A 
ATOM     20  C   LIG    1       23.010 -22.954   6.488  0.00  0.00    +0.012 A 
BRANCH  18  21
ATOM     21  O   LIG    1       24.090 -26.459   6.387  0.00  0.00    -0.507 OA
ATOM     22  H   LIG    1       23.484 -26.680   7.113  0.00  0.00    +0.292 HD
ENDBRANCH  18  21
ENDBRANCH  12  15
ENDBRANCH   3  12
TORSDOF 5
ENDMDL
MODEL 8
REMARK VINA RESULT:      -7.6      2.553      7.407
REMARK  Name = *****
REMARK                            x       y       z     vdW  Elec       q    Type
REMARK                         _______ _______ _______ _____ _____    ______ ____
ROOT
ATOM      1  C   LIG    1       29.538 -18.129   5.364  0.00  0.00    +0.036 C 
ATOM      2  C   LIG    1       29.056 -19.328   6.120  0.00  0.00    -0.021 C 
ATOM      3  C   LIG    1       29.337 -19.673   7.401  0.00  0.00    -0.015 C 
ENDROOT
BRANCH   3   4
ATOM      4  C   LIG    1       30.153 -18.751   8.219  0.00  0.00    -0.017 A 
ATOM      5  C   LIG    1       31.510 -18.552   7.928  0.00  0.00    +0.012 A 
ATOM      6  C   LIG    1       32.290 -17.727   8.740  0.00  0.00    +0.046 A 
ATOM      7  C   LIG    1       31.715 -17.101   9.841  0.00  0.00    +0.117 A 
ATOM      8  C   LIG    1       30.368 -17.282  10.142  0.00  0.00    +0.046 A 
ATOM      9  C   LIG    1       29.587 -18.104   9.326  0.00  0.00    +0.012 A 
BRANCH   7  10
ATOM     10  O   LIG    1       32.515 -16.314  10.613  0.00  0.00    -0.507 OA
ATOM     11  H   LIG    1       33.441 -16.476  10.368  0.00  0.00    +0.292 HD
ENDBRANCH   7  10
ENDBRANCH   3   4
BRANCH   3  12
ATOM     12  C   LIG    1       28.819 -20.937   7.946  0.00  0.00    -0.015 C 
ATOM     13  C   LIG    1       29.604 -21.841   8.581  0.00  0.00    -0.021 C 
ATOM     14  C   LIG    1       31.057 -21.692   8.906  0.00  0.00    +0.036 C 
BRANCH  12  15
ATOM     15  C   LIG    1       27.389 -21.313   7.845  0.00  0.00    -0.017 A 
ATOM     16  C   LIG    1       27.016 -22.513   7.224  0.00  0.00    +0.012 A 
ATOM     17  C   LIG    1       25.667 -22.846   7.083  0.00  0.00    +0.046 A 
ATOM     18  C   LIG    1       24.690 -21.983   7.565  0.00  0.00    +0.117 A 
ATOM     19  C   LIG    1       25.039 -20.787   8.187  0.00  0.00    +0.046 A 
ATOM     20  C   LIG    1       26.390 -20.453   8.327  0.00  0.00    +0.012 A 
BRANCH  18  21
ATOM     21  O   LIG    1       23.385 -22.348   7.405  0.00  0.00    -0.507 OA
ATOM     22  H   LIG    1       23.020 -21.871   6.643  0.00  0.00    +0.292 HD
ENDBRANCH  18  21
ENDBRANCH  12  15
ENDBRANCH   3  12
TORSDOF 5
ENDMDL
MODEL 9
REMARK VINA RESULT:      -7.5      1.244      2.365
REMARK  Name = *****
REMARK                            x       y       z     vdW  Elec       q    Type
REMARK                         _______ _______ _______ _____ _____    ______ ____
ROOT
ATOM      1  C   LIG    1       24.574 -21.030   4.008  0.00  0.00    +0.036 C 
ATOM      2  C   LIG    1       25.419 -20.655   5.187  0.00  0.00    -0.021 C 
ATOM      3  C   LIG    1       25.714 -21.409   6.273  0.00  0.00    -0.015 C 
ENDROOT
BRANCH   3   4
ATOM      4  C   LIG    1       25.232 -22.806   6.318  0.00  0.00    -0.017 A 
ATOM      5  C   LIG    1       26.132 -23.874   6.200  0.00  0.00    +0.012 A 
ATOM      6  C   LIG    1       25.664 -25.189   6.183  0.00  0.00    +0.046 A 
ATOM      7  C   LIG    1       24.300 -25.437   6.286  0.00  0.00    +0.117 A 
ATOM      8  C   LIG    1       23.391 -24.390   6.410  0.00  0.00    +0.046 A 
ATOM      9  C   LIG    1       23.860 -23.074   6.431  0.00  0.00    +0.012 A 
BRANCH   7  10
ATOM     10  O   LIG    1       23.886 -26.735   6.252  0.00  0.00    -0.507 OA
ATOM     11  H   LIG    1       23.152 -26.811   5.620  0.00  0.00    +0.292 HD
ENDBRANCH   7  10
ENDBRANCH   3   4
BRANCH   3  12
ATOM     12  C   LIG    1       26.510 -20.832   7.367  0.00  0.00    -0.015 C 
ATOM     13  C   LIG    1       26.003 -20.596   8.601  0.00  0.00    -0.021 C 
ATOM     14  C   LIG    1       24.629 -20.940   9.085  0.00  0.00    +0.036 C 
BRANCH  12  15
ATOM     15  C   LIG    1       27.937 -20.470   7.198  0.00  0.00    -0.017 A 
ATOM     16  C   LIG    1       28.915 -21.052   8.017  0.00  0.00    +0.012 A 
ATOM     17  C   LIG    1       30.255 -20.676   7.894  0.00  0.00    +0.046 A 
ATOM     18  C   LIG    1       30.619 -19.722   6.952  0.00  0.00    +0.117 A 
ATOM     19  C   LIG    1       29.664 -19.134   6.127  0.00  0.00    +0.046 A 
ATOM     20  C   LIG    1       28.323 -19.509   6.251  0.00  0.00    +0.012 A 
BRANCH  18  21
ATOM     21  O   LIG    1       31.938 -19.385   6.867  0.00  0.00    -0.507 OA
ATOM     22  H   LIG    1       32.442 -20.168   6.591  0.00  0.00    +0.292 HD
ENDBRANCH  18  21
ENDBRANCH  12  15
ENDBRANCH   3  12
TORSDOF 5
ENDMDL
