MODEL 1
REMARK VINA RESULT:      -5.7      0.000      0.000
REMARK  Name = *****
REMARK                            x       y       z     vdW  Elec       q    Type
REMARK                         _______ _______ _______ _____ _____    ______ ____
ROOT
ATOM      1  C   LIG    1       28.566 -20.407   6.223  0.00  0.00    +0.048 C 
ATOM      2  C   LIG    1       27.252 -20.071   5.591  0.00  0.00    +0.000 C 
ATOM      3  C   LIG    1       26.058 -20.768   6.142  0.00  0.00    +0.190 C 
ATOM      4  O   LIG    1       26.162 -21.572   7.062  0.00  0.00    -0.287 OA
ATOM      5  C   LIG    1       24.741 -20.466   5.547  0.00  0.00    +0.033 A 
ATOM      6  C   LIG    1       24.626 -19.553   4.501  0.00  0.00    +0.033 A 
ATOM      7  C   LIG    1       23.369 -19.276   3.946  0.00  0.00    +0.012 A 
ATOM      8  C   LIG    1       22.232 -19.915   4.443  0.00  0.00    +0.001 A 
ATOM      9  C   LIG    1       22.345 -20.830   5.490  0.00  0.00    +0.001 A 
ATOM     10  C   LIG    1       25.822 -18.874   3.971  0.00  0.00    +0.187 C 
ATOM     11  O   LIG    1       25.756 -18.068   3.052  0.00  0.00    -0.287 OA
ATOM     12  C   LIG    1       23.597 -21.107   6.044  0.00  0.00    +0.012 A 
ATOM     13  C   LIG    1       27.124 -19.196   4.586  0.00  0.00    +0.058 C 
ENDROOT
TORSDOF 0
ENDMDL
MODEL 2
REMARK VINA RESULT:      -5.7      1.220      4.577
REMARK  Name = *****
REMARK                            x       y       z     vdW  Elec       q    Type
REMARK                         _______ _______ _______ _____ _____    ______ ____
ROOT
ATOM      1  C   LIG    1       22.550 -18.551   3.315  0.00  0.00    +0.048 C 
ATOM      2  C   LIG    1       23.360 -19.319   4.312  0.00  0.00    +0.000 C 
ATOM      3  C   LIG    1       24.837 -19.165   4.220  0.00  0.00    +0.190 C 
ATOM      4  O   LIG    1       25.347 -18.447   3.368  0.00  0.00    -0.287 OA
ATOM      5  C   LIG    1       25.674 -19.906   5.186  0.00  0.00    +0.033 A 
ATOM      6  C   LIG    1       25.092 -20.721   6.152  0.00  0.00    +0.033 A 
ATOM      7  C   LIG    1       25.899 -21.418   7.062  0.00  0.00    +0.012 A 
ATOM      8  C   LIG    1       27.288 -21.292   6.999  0.00  0.00    +0.001 A 
ATOM      9  C   LIG    1       27.873 -20.476   6.031  0.00  0.00    +0.001 A 
ATOM     10  C   LIG    1       23.626 -20.859   6.225  0.00  0.00    +0.187 C 
ATOM     11  O   LIG    1       23.083 -21.568   7.062  0.00  0.00    -0.287 OA
ATOM     12  C   LIG    1       27.069 -19.782   5.124  0.00  0.00    +0.012 A 
ATOM     13  C   LIG    1       22.816 -20.107   5.248  0.00  0.00    +0.058 C 
ENDROOT
TORSDOF 0
ENDMDL
MODEL 3
REMARK VINA RESULT:      -4.9      1.454      2.940
REMARK  Name = *****
REMARK                            x       y       z     vdW  Elec       q    Type
REMARK                         _______ _______ _______ _____ _____    ______ ____
ROOT
ATOM      1  C   LIG    1       28.211 -21.517   6.838  0.00  0.00    +0.048 C 
ATOM      2  C   LIG    1       26.845 -21.085   6.404  0.00  0.00    +0.000 C 
ATOM      3  C   LIG    1       26.787 -20.090   5.300  0.00  0.00    +0.190 C 
ATOM      4  O   LIG    1       27.812 -19.656   4.785  0.00  0.00    -0.287 OA
ATOM      5  C   LIG    1       25.459 -19.636   4.841  0.00  0.00    +0.033 A 
ATOM      6  C   LIG    1       24.297 -20.131   5.429  0.00  0.00    +0.033 A 
ATOM      7  C   LIG    1       23.044 -19.691   4.983  0.00  0.00    +0.012 A 
ATOM      8  C   LIG    1       22.960 -18.758   3.948  0.00  0.00    +0.001 A 
ATOM      9  C   LIG    1       24.123 -18.261   3.359  0.00  0.00    +0.001 A 
ATOM     10  C   LIG    1       24.378 -21.116   6.522  0.00  0.00    +0.187 C 
ATOM     11  O   LIG    1       23.376 -21.570   7.060  0.00  0.00    -0.287 OA
ATOM     12  C   LIG    1       25.372 -18.699   3.803  0.00  0.00    +0.012 A 
ATOM     13  C   LIG    1       25.718 -21.551   6.958  0.00  0.00    +0.058 C 
ENDROOT
TORSDOF 0
ENDMDL
MODEL 4
REMARK VINA RESULT:      -4.3      0.975      4.797
REMARK  Name = *****
REMARK                            x       y       z     vdW  Elec       q    Type
REMARK                         _______ _______ _______ _____ _____    ______ ____
ROOT
ATOM      1  C   LIG    1       23.231 -19.065   3.333  0.00  0.00    +0.048 C 
ATOM      2  C   LIG    1       24.327 -19.477   4.265  0.00  0.00    +0.000 C 
ATOM      3  C   LIG    1       25.656 -18.847   4.040  0.00  0.00    +0.190 C 
ATOM      4  O   LIG    1       25.829 -18.037   3.135  0.00  0.00    -0.287 OA
ATOM      5  C   LIG    1       26.767 -19.226   4.937  0.00  0.00    +0.033 A 
ATOM      6  C   LIG    1       26.568 -20.147   5.963  0.00  0.00    +0.033 A 
ATOM      7  C   LIG    1       27.631 -20.497   6.807  0.00  0.00    +0.012 A 
ATOM      8  C   LIG    1       28.889 -19.921   6.618  0.00  0.00    +0.001 A 
ATOM      9  C   LIG    1       29.089 -18.999   5.590  0.00  0.00    +0.001 A 
ATOM     10  C   LIG    1       25.243 -20.759   6.168  0.00  0.00    +0.187 C 
ATOM     11  O   LIG    1       25.036 -21.572   7.059  0.00  0.00    -0.287 OA
ATOM     12  C   LIG    1       28.031 -18.650   4.749  0.00  0.00    +0.012 A 
ATOM     13  C   LIG    1       24.154 -20.360   5.256  0.00  0.00    +0.058 C 
ENDROOT
TORSDOF 0
ENDMDL
MODEL 5
REMARK VINA RESULT:      -3.8      3.137      4.857
REMARK  Name = *****
REMARK                            x       y       z     vdW  Elec       q    Type
REMARK                         _______ _______ _______ _____ _____    ______ ____
ROOT
ATOM      1  C   LIG    1       25.690 -13.413   3.671  0.00  0.00    +0.048 C 
ATOM      2  C   LIG    1       24.950 -14.702   3.850  0.00  0.00    +0.000 C 
ATOM      3  C   LIG    1       25.680 -15.940   3.464  0.00  0.00    +0.190 C 
ATOM      4  O   LIG    1       26.824 -15.890   3.024  0.00  0.00    -0.287 OA
ATOM      5  C   LIG    1       24.988 -17.234   3.624  0.00  0.00    +0.033 A 
ATOM      6  C   LIG    1       23.689 -17.288   4.123  0.00  0.00    +0.033 A 
ATOM      7  C   LIG    1       23.044 -18.523   4.270  0.00  0.00    +0.012 A 
ATOM      8  C   LIG    1       23.704 -19.700   3.915  0.00  0.00    +0.001 A 
ATOM      9  C   LIG    1       25.006 -19.648   3.415  0.00  0.00    +0.001 A 
ATOM     10  C   LIG    1       22.984 -16.049   4.499  0.00  0.00    +0.187 C 
ATOM     11  O   LIG    1       21.842 -16.061   4.940  0.00  0.00    -0.287 OA
ATOM     12  C   LIG    1       25.649 -18.418   3.268  0.00  0.00    +0.012 A 
ATOM     13  C   LIG    1       23.702 -14.771   4.329  0.00  0.00    +0.058 C 
ENDROOT
TORSDOF 0
ENDMDL
MODEL 6
REMARK VINA RESULT:      -3.6      3.624      5.619
REMARK  Name = *****
REMARK                            x       y       z     vdW  Elec       q    Type
REMARK                         _______ _______ _______ _____ _____    ______ ____
ROOT
ATOM      1  C   LIG    1       22.189 -18.828   4.550  0.00  0.00    +0.048 C 
ATOM      2  C   LIG    1       23.283 -17.865   4.207  0.00  0.00    +0.000 C 
ATOM      3  C   LIG    1       22.999 -16.427   4.464  0.00  0.00    +0.190 C 
ATOM      4  O   LIG    1       21.923 -16.067   4.929  0.00  0.00    -0.287 OA
ATOM      5  C   LIG    1       24.050 -15.442   4.140  0.00  0.00    +0.033 A 
ATOM      6  C   LIG    1       25.271 -15.854   3.611  0.00  0.00    +0.033 A 
ATOM      7  C   LIG    1       26.260 -14.908   3.309  0.00  0.00    +0.012 A 
ATOM      8  C   LIG    1       26.020 -13.552   3.539  0.00  0.00    +0.001 A 
ATOM      9  C   LIG    1       24.798 -13.138   4.068  0.00  0.00    +0.001 A 
ATOM     10  C   LIG    1       25.531 -17.284   3.364  0.00  0.00    +0.187 C 
ATOM     11  O   LIG    1       26.592 -17.679   2.900  0.00  0.00    -0.287 OA
ATOM     12  C   LIG    1       23.812 -14.080   4.370  0.00  0.00    +0.012 A 
ATOM     13  C   LIG    1       24.462 -18.244   3.699  0.00  0.00    +0.058 C 
ENDROOT
TORSDOF 0
ENDMDL
MODEL 7
REMARK VINA RESULT:      -3.5      2.810      4.327
REMARK  Name = *****
REMARK                            x       y       z     vdW  Elec       q    Type
REMARK                         _______ _______ _______ _____ _____    ______ ____
ROOT
ATOM      1  C   LIG    1       23.900 -13.791   4.249  0.00  0.00    +0.048 C 
ATOM      2  C   LIG    1       24.157 -15.254   4.063  0.00  0.00    +0.000 C 
ATOM      3  C   LIG    1       23.076 -16.175   4.508  0.00  0.00    +0.190 C 
ATOM      4  O   LIG    1       22.039 -15.743   4.999  0.00  0.00    -0.287 OA
ATOM      5  C   LIG    1       23.288 -17.627   4.344  0.00  0.00    +0.033 A 
ATOM      6  C   LIG    1       24.468 -18.114   3.786  0.00  0.00    +0.033 A 
ATOM      7  C   LIG    1       24.656 -19.494   3.636  0.00  0.00    +0.012 A 
ATOM      8  C   LIG    1       23.658 -20.381   4.045  0.00  0.00    +0.001 A 
ATOM      9  C   LIG    1       22.476 -19.895   4.603  0.00  0.00    +0.001 A 
ATOM     10  C   LIG    1       25.526 -17.183   3.353  0.00  0.00    +0.187 C 
ATOM     11  O   LIG    1       26.574 -17.578   2.860  0.00  0.00    -0.287 OA
ATOM     12  C   LIG    1       22.289 -18.520   4.753  0.00  0.00    +0.012 A 
ATOM     13  C   LIG    1       25.285 -15.739   3.529  0.00  0.00    +0.058 C 
ENDROOT
TORSDOF 0
ENDMDL
MODEL 8
REMARK VINA RESULT:      -3.4      2.743      4.098
REMARK  Name = *****
REMARK                            x       y       z     vdW  Elec       q    Type
REMARK                         _______ _______ _______ _____ _____    ______ ____
ROOT
ATOM      1  C   LIG    1       26.259 -14.790   3.264  0.00  0.00    +0.048 C 
ATOM      2  C   LIG    1       25.178 -15.752   3.646  0.00  0.00    +0.000 C 
ATOM      3  C   LIG    1       25.477 -17.195   3.442  0.00  0.00    +0.190 C 
ATOM      4  O   LIG    1       26.554 -17.560   2.984  0.00  0.00    -0.287 OA
ATOM      5  C   LIG    1       24.438 -18.179   3.806  0.00  0.00    +0.033 A 
ATOM      6  C   LIG    1       23.215 -17.761   4.326  0.00  0.00    +0.033 A 
ATOM      7  C   LIG    1       22.238 -18.706   4.667  0.00  0.00    +0.012 A 
ATOM      8  C   LIG    1       22.492 -20.067   4.486  0.00  0.00    +0.001 A 
ATOM      9  C   LIG    1       23.716 -20.487   3.965  0.00  0.00    +0.001 A 
ATOM     10  C   LIG    1       22.940 -16.326   4.519  0.00  0.00    +0.187 C 
ATOM     11  O   LIG    1       21.875 -15.926   4.973  0.00  0.00    -0.287 OA
ATOM     12  C   LIG    1       24.690 -19.546   3.625  0.00  0.00    +0.012 A 
ATOM     13  C   LIG    1       23.997 -15.367   4.147  0.00  0.00    +0.058 C 
ENDROOT
TORSDOF 0
ENDMDL
MODEL 9
REMARK VINA RESULT:      -3.4      3.504      5.400
REMARK  Name = *****
REMARK                            x       y       z     vdW  Elec       q    Type
REMARK                         _______ _______ _______ _____ _____    ______ ____
ROOT
ATOM      1  C   LIG    1       24.419 -19.868   3.509  0.00  0.00    +0.048 C 
ATOM      2  C   LIG    1       24.217 -18.405   3.753  0.00  0.00    +0.000 C 
ATOM      3  C   LIG    1       25.354 -17.514   3.394  0.00  0.00    +0.190 C 
ATOM      4  O   LIG    1       26.392 -17.968   2.926  0.00  0.00    -0.287 OA
ATOM      5  C   LIG    1       25.197 -16.063   3.619  0.00  0.00    +0.033 A 
ATOM      6  C   LIG    1       24.017 -15.549   4.151  0.00  0.00    +0.033 A 
ATOM      7  C   LIG    1       23.883 -14.170   4.359  0.00  0.00    +0.012 A 
ATOM      8  C   LIG    1       24.933 -13.311   4.031  0.00  0.00    +0.001 A 
ATOM      9  C   LIG    1       26.116 -13.823   3.498  0.00  0.00    +0.001 A 
ATOM     10  C   LIG    1       22.904 -16.451   4.501  0.00  0.00    +0.187 C 
ATOM     11  O   LIG    1       21.855 -16.032   4.971  0.00  0.00    -0.287 OA
ATOM     12  C   LIG    1       26.250 -15.198   3.290  0.00  0.00    +0.012 A 
ATOM     13  C   LIG    1       23.090 -17.895   4.264  0.00  0.00    +0.058 C 
ENDROOT
TORSDOF 0
ENDMDL
