MODEL 1
REMARK VINA RESULT:      -3.9      0.000      0.000
REMARK  Name = *****
REMARK                            x       y       z     vdW  Elec       q    Type
REMARK                         _______ _______ _______ _____ _____    ______ ____
ROOT
ATOM      1  O   LIG    1       29.472 -17.707   5.682  0.00  0.00    -0.267 OA
ATOM      2  C   LIG    1       28.505 -18.333   5.257  0.00  0.00    +0.267 C 
ATOM      3  C   LIG    1       28.155 -19.705   5.708  0.00  0.00    +0.094 C 
ATOM      4  I   LIG    1       29.340 -20.676   7.062  0.00  0.00    -0.037 I 
ATOM      5  C   LIG    1       27.049 -20.263   5.202  0.00  0.00    +0.113 C 
ATOM      6  N   LIG    1       26.231 -19.625   4.285  0.00  0.00    -0.273 N 
ATOM      7  C   LIG    1       26.547 -18.367   3.789  0.00  0.00    +0.331 C 
ATOM      8  O   LIG    1       25.888 -17.779   2.935  0.00  0.00    -0.246 OA
ATOM      9  N   LIG    1       27.674 -17.790   4.315  0.00  0.00    -0.274 N 
ATOM     10  H   LIG    1       27.901 -16.863   3.991  0.00  0.00    +0.173 HD
ENDROOT
BRANCH   6  11
ATOM     11  C1* LIG    1       25.014 -20.253   3.770  0.00  0.00    +0.226 C 
ATOM     12  O4* LIG    1       24.056 -19.241   3.397  0.00  0.00    -0.348 OA
ATOM     13  C4* LIG    1       22.844 -19.468   4.147  0.00  0.00    +0.175 C 
ATOM     14  C3* LIG    1       23.241 -20.310   5.350  0.00  0.00    +0.150 C 
ATOM     15  C2* LIG    1       24.333 -21.180   4.774  0.00  0.00    +0.088 C 
BRANCH  14  16
ATOM     16  O3* LIG    1       22.169 -21.066   5.884  0.00  0.00    -0.389 OA
ATOM     17  H3* LIG    1       22.524 -21.760   6.468  0.00  0.00    +0.210 HD
ENDBRANCH  14  16
BRANCH  13  18
ATOM     18  C5* LIG    1       22.234 -18.121   4.528  0.00  0.00    +0.190 C 
BRANCH  18  19
ATOM     19  O5* LIG    1       23.220 -17.095   4.399  0.00  0.00    -0.392 OA
ATOM     20  H5* LIG    1       24.067 -17.495   4.673  0.00  0.00    +0.209 HD
ENDBRANCH  18  19
ENDBRANCH  13  18
ENDBRANCH   6  11
TORSDOF 4
ENDMDL
MODEL 2
REMARK VINA RESULT:      -3.3      3.165      3.608
REMARK  Name = *****
REMARK                            x       y       z     vdW  Elec       q    Type
REMARK                         _______ _______ _______ _____ _____    ______ ____
ROOT
ATOM      1  O   LIG    1       27.677 -13.734   4.178  0.00  0.00    -0.267 OA
ATOM      2  C   LIG    1       27.159 -14.834   4.003  0.00  0.00    +0.267 C 
ATOM      3  C   LIG    1       25.762 -15.015   3.529  0.00  0.00    +0.094 C 
ATOM      4  I   LIG    1       24.572 -13.388   3.191  0.00  0.00    -0.037 I 
ATOM      5  C   LIG    1       25.329 -16.266   3.334  0.00  0.00    +0.113 C 
ATOM      6  N   LIG    1       26.116 -17.383   3.556  0.00  0.00    -0.273 N 
ATOM      7  C   LIG    1       27.408 -17.268   4.055  0.00  0.00    +0.331 C 
ATOM      8  O   LIG    1       28.129 -18.225   4.321  0.00  0.00    -0.246 OA
ATOM      9  N   LIG    1       27.856 -15.986   4.244  0.00  0.00    -0.274 N 
ATOM     10  H   LIG    1       28.803 -15.882   4.574  0.00  0.00    +0.173 HD
ENDROOT
BRANCH   6  11
ATOM     11  C1* LIG    1       25.620 -18.737   3.308  0.00  0.00    +0.226 C 
ATOM     12  O4* LIG    1       24.179 -18.733   3.251  0.00  0.00    -0.348 OA
ATOM     13  C4* LIG    1       23.685 -19.646   4.254  0.00  0.00    +0.175 C 
ATOM     14  C3* LIG    1       24.811 -19.819   5.261  0.00  0.00    +0.150 C 
ATOM     15  C2* LIG    1       26.034 -19.745   4.377  0.00  0.00    +0.088 C 
BRANCH  14  16
ATOM     16  O3* LIG    1       24.737 -21.036   5.983  0.00  0.00    -0.389 OA
ATOM     17  H3* LIG    1       24.913 -21.780   5.380  0.00  0.00    +0.210 HD
ENDBRANCH  14  16
BRANCH  13  18
ATOM     18  C5* LIG    1       22.410 -19.071   4.867  0.00  0.00    +0.190 C 
BRANCH  18  19
ATOM     19  O5* LIG    1       22.285 -17.694   4.510  0.00  0.00    -0.392 OA
ATOM     20  H5* LIG    1       23.013 -17.507   3.888  0.00  0.00    +0.209 HD
ENDBRANCH  18  19
ENDBRANCH  13  18
ENDBRANCH   6  11
TORSDOF 4
ENDMDL
MODEL 3
REMARK VINA RESULT:      -2.4      3.893      5.707
REMARK  Name = *****
REMARK                            x       y       z     vdW  Elec       q    Type
REMARK                         _______ _______ _______ _____ _____    ______ ____
ROOT
ATOM      1  O   LIG    1       25.466 -20.439   4.334  0.00  0.00    -0.267 OA
ATOM      2  C   LIG    1       25.298 -19.253   4.066  0.00  0.00    +0.267 C 
ATOM      3  C   LIG    1       23.971 -18.587   4.096  0.00  0.00    +0.094 C 
ATOM      4  I   LIG    1       22.290 -19.661   4.542  0.00  0.00    -0.037 I 
ATOM      5  C   LIG    1       23.927 -17.275   3.828  0.00  0.00    +0.113 C 
ATOM      6  N   LIG    1       25.050 -16.527   3.523  0.00  0.00    -0.273 N 
ATOM      7  C   LIG    1       26.305 -17.116   3.426  0.00  0.00    +0.331 C 
ATOM      8  O   LIG    1       27.325 -16.511   3.107  0.00  0.00    -0.246 OA
ATOM      9  N   LIG    1       26.353 -18.456   3.712  0.00  0.00    -0.274 N 
ATOM     10  H   LIG    1       27.260 -18.894   3.678  0.00  0.00    +0.173 HD
ENDROOT
BRANCH   6  11
ATOM     11  C1* LIG    1       24.972 -15.090   3.261  0.00  0.00    +0.226 C 
ATOM     12  O4* LIG    1       26.216 -14.621   2.704  0.00  0.00    -0.348 OA
ATOM     13  C4* LIG    1       26.730 -13.579   3.560  0.00  0.00    +0.175 C 
ATOM     14  C3* LIG    1       26.055 -13.768   4.909  0.00  0.00    +0.150 C 
ATOM     15  C2* LIG    1       24.683 -14.256   4.506  0.00  0.00    +0.088 C 
BRANCH  14  16
ATOM     16  O3* LIG    1       26.004 -12.582   5.683  0.00  0.00    -0.389 OA
ATOM     17  H3* LIG    1       25.261 -12.638   6.310  0.00  0.00    +0.210 HD
ENDBRANCH  14  16
BRANCH  13  18
ATOM     18  C5* LIG    1       28.252 -13.692   3.625  0.00  0.00    +0.190 C 
BRANCH  18  19
ATOM     19  O5* LIG    1       28.783 -12.584   4.352  0.00  0.00    -0.392 OA
ATOM     20  H5* LIG    1       29.382 -12.116   3.739  0.00  0.00    +0.209 HD
ENDBRANCH  18  19
ENDBRANCH  13  18
ENDBRANCH   6  11
TORSDOF 4
ENDMDL
MODEL 4
REMARK VINA RESULT:      -2.4      2.535      4.124
REMARK  Name = *****
REMARK                            x       y       z     vdW  Elec       q    Type
REMARK                         _______ _______ _______ _____ _____    ______ ____
ROOT
ATOM      1  O   LIG    1       26.841 -21.572   6.656  0.00  0.00    -0.267 OA
ATOM      2  C   LIG    1       26.650 -20.625   5.897  0.00  0.00    +0.267 C 
ATOM      3  C   LIG    1       27.668 -19.576   5.627  0.00  0.00    +0.094 C 
ATOM      4  I   LIG    1       29.475 -19.625   6.581  0.00  0.00    -0.037 I 
ATOM      5  C   LIG    1       27.354 -18.620   4.744  0.00  0.00    +0.113 C 
ATOM      6  N   LIG    1       26.138 -18.566   4.086  0.00  0.00    -0.273 N 
ATOM      7  C   LIG    1       25.134 -19.489   4.348  0.00  0.00    +0.331 C 
ATOM      8  O   LIG    1       24.019 -19.457   3.835  0.00  0.00    -0.246 OA
ATOM      9  N   LIG    1       25.458 -20.476   5.243  0.00  0.00    -0.274 N 
ATOM     10  H   LIG    1       24.753 -21.174   5.422  0.00  0.00    +0.173 HD
ENDROOT
BRANCH   6  11
ATOM     11  C1* LIG    1       25.837 -17.521   3.106  0.00  0.00    +0.226 C 
ATOM     12  O4* LIG    1       26.954 -16.617   2.989  0.00  0.00    -0.348 OA
ATOM     13  C4* LIG    1       26.492 -15.285   3.294  0.00  0.00    +0.175 C 
ATOM     14  C3* LIG    1       25.208 -15.455   4.093  0.00  0.00    +0.150 C 
ATOM     15  C2* LIG    1       24.608 -16.688   3.460  0.00  0.00    +0.088 C 
BRANCH  14  16
ATOM     16  O3* LIG    1       24.347 -14.333   4.018  0.00  0.00    -0.389 OA
ATOM     17  H3* LIG    1       24.541 -13.727   4.756  0.00  0.00    +0.210 HD
ENDBRANCH  14  16
BRANCH  13  18
ATOM     18  C5* LIG    1       27.584 -14.540   4.058  0.00  0.00    +0.190 C 
BRANCH  18  19
ATOM     19  O5* LIG    1       26.991 -13.737   5.080  0.00  0.00    -0.392 OA
ATOM     20  H5* LIG    1       26.466 -14.344   5.634  0.00  0.00    +0.209 HD
ENDBRANCH  18  19
ENDBRANCH  13  18
ENDBRANCH   6  11
TORSDOF 4
ENDMDL
MODEL 5
REMARK VINA RESULT:      -2.2      3.478      5.192
REMARK  Name = *****
REMARK                            x       y       z     vdW  Elec       q    Type
REMARK                         _______ _______ _______ _____ _____    ______ ____
ROOT
ATOM      1  O   LIG    1       26.468 -20.867   5.382  0.00  0.00    -0.267 OA
ATOM      2  C   LIG    1       26.471 -19.775   4.820  0.00  0.00    +0.267 C 
ATOM      3  C   LIG    1       25.336 -19.270   4.006  0.00  0.00    +0.094 C 
ATOM      4  I   LIG    1       23.678 -20.431   3.720  0.00  0.00    -0.037 I 
ATOM      5  C   LIG    1       25.444 -18.042   3.483  0.00  0.00    +0.113 C 
ATOM      6  N   LIG    1       26.555 -17.238   3.663  0.00  0.00    -0.273 N 
ATOM      7  C   LIG    1       27.665 -17.688   4.366  0.00  0.00    +0.331 C 
ATOM      8  O   LIG    1       28.697 -17.038   4.510  0.00  0.00    -0.246 OA
ATOM      9  N   LIG    1       27.551 -18.940   4.913  0.00  0.00    -0.274 N 
ATOM     10  H   LIG    1       28.335 -19.270   5.454  0.00  0.00    +0.173 HD
ENDROOT
BRANCH   6  11
ATOM     11  C1* LIG    1       26.630 -15.889   3.099  0.00  0.00    +0.226 C 
ATOM     12  O4* LIG    1       27.547 -15.084   3.867  0.00  0.00    -0.348 OA
ATOM     13  C4* LIG    1       26.834 -13.926   4.353  0.00  0.00    +0.175 C 
ATOM     14  C3* LIG    1       25.358 -14.289   4.306  0.00  0.00    +0.150 C 
ATOM     15  C2* LIG    1       25.289 -15.161   3.075  0.00  0.00    +0.088 C 
BRANCH  14  16
ATOM     16  O3* LIG    1       24.505 -13.161   4.221  0.00  0.00    -0.389 OA
ATOM     17  H3* LIG    1       23.681 -13.342   4.706  0.00  0.00    +0.210 HD
ENDBRANCH  14  16
BRANCH  13  18
ATOM     18  C5* LIG    1       27.329 -13.589   5.757  0.00  0.00    +0.190 C 
BRANCH  18  19
ATOM     19  O5* LIG    1       28.211 -12.467   5.697  0.00  0.00    -0.392 OA
ATOM     20  H5* LIG    1       29.039 -12.747   6.131  0.00  0.00    +0.209 HD
ENDBRANCH  18  19
ENDBRANCH  13  18
ENDBRANCH   6  11
TORSDOF 4
ENDMDL
MODEL 6
REMARK VINA RESULT:      -1.2      4.194      5.766
REMARK  Name = *****
REMARK                            x       y       z     vdW  Elec       q    Type
REMARK                         _______ _______ _______ _____ _____    ______ ____
ROOT
ATOM      1  O   LIG    1       24.697 -20.114   4.183  0.00  0.00    -0.267 OA
ATOM      2  C   LIG    1       25.032 -18.946   4.004  0.00  0.00    +0.267 C 
ATOM      3  C   LIG    1       24.064 -17.823   3.909  0.00  0.00    +0.094 C 
ATOM      4  I   LIG    1       22.055 -18.183   4.014  0.00  0.00    -0.037 I 
ATOM      5  C   LIG    1       24.559 -16.588   3.759  0.00  0.00    +0.113 C 
ATOM      6  N   LIG    1       25.914 -16.319   3.685  0.00  0.00    -0.273 N 
ATOM      7  C   LIG    1       26.855 -17.341   3.711  0.00  0.00    +0.331 C 
ATOM      8  O   LIG    1       28.064 -17.164   3.595  0.00  0.00    -0.246 OA
ATOM      9  N   LIG    1       26.351 -18.605   3.876  0.00  0.00    -0.274 N 
ATOM     10  H   LIG    1       27.020 -19.356   3.930  0.00  0.00    +0.173 HD
ENDROOT
BRANCH   6  11
ATOM     11  C1* LIG    1       26.423 -14.954   3.547  0.00  0.00    +0.226 C 
ATOM     12  O4* LIG    1       25.950 -14.138   4.638  0.00  0.00    -0.348 OA
ATOM     13  C4* LIG    1       25.224 -13.020   4.085  0.00  0.00    +0.175 C 
ATOM     14  C3* LIG    1       24.820 -13.432   2.678  0.00  0.00    +0.150 C 
ATOM     15  C2* LIG    1       26.000 -14.272   2.248  0.00  0.00    +0.088 C 
BRANCH  14  16
ATOM     16  O3* LIG    1       24.594 -12.333   1.814  0.00  0.00    -0.389 OA
ATOM     17  H3* LIG    1       24.572 -12.646   0.892  0.00  0.00    +0.210 HD
ENDBRANCH  14  16
BRANCH  13  18
ATOM     18  C5* LIG    1       24.032 -12.704   4.986  0.00  0.00    +0.190 C 
BRANCH  18  19
ATOM     19  O5* LIG    1       23.465 -11.449   4.608  0.00  0.00    -0.392 OA
ATOM     20  H5* LIG    1       22.998 -11.605   3.765  0.00  0.00    +0.209 HD
ENDBRANCH  18  19
ENDBRANCH  13  18
ENDBRANCH   6  11
TORSDOF 4
ENDMDL
MODEL 7
REMARK VINA RESULT:      -1.2      3.980      6.143
REMARK  Name = *****
REMARK                            x       y       z     vdW  Elec       q    Type
REMARK                         _______ _______ _______ _____ _____    ______ ____
ROOT
ATOM      1  O   LIG    1       22.071 -18.140   4.459  0.00  0.00    -0.267 OA
ATOM      2  C   LIG    1       23.154 -17.636   4.172  0.00  0.00    +0.267 C 
ATOM      3  C   LIG    1       24.340 -18.429   3.757  0.00  0.00    +0.094 C 
ATOM      4  I   LIG    1       24.245 -20.470   3.697  0.00  0.00    -0.037 I 
ATOM      5  C   LIG    1       25.451 -17.758   3.426  0.00  0.00    +0.113 C 
ATOM      6  N   LIG    1       25.540 -16.378   3.459  0.00  0.00    -0.273 N 
ATOM      7  C   LIG    1       24.477 -15.597   3.896  0.00  0.00    +0.331 C 
ATOM      8  O   LIG    1       24.519 -14.374   3.996  0.00  0.00    -0.246 OA
ATOM      9  N   LIG    1       23.335 -16.281   4.223  0.00  0.00    -0.274 N 
ATOM     10  H   LIG    1       22.543 -15.728   4.512  0.00  0.00    +0.173 HD
ENDROOT
BRANCH   6  11
ATOM     11  C1* LIG    1       26.761 -15.674   3.065  0.00  0.00    +0.226 C 
ATOM     12  O4* LIG    1       27.473 -15.229   4.237  0.00  0.00    -0.348 OA
ATOM     13  C4* LIG    1       27.631 -13.797   4.154  0.00  0.00    +0.175 C 
ATOM     14  C3* LIG    1       26.567 -13.310   3.181  0.00  0.00    +0.150 C 
ATOM     15  C2* LIG    1       26.506 -14.449   2.191  0.00  0.00    +0.088 C 
BRANCH  14  16
ATOM     16  O3* LIG    1       26.890 -12.075   2.568  0.00  0.00    -0.389 OA
ATOM     17  H3* LIG    1       26.140 -11.462   2.663  0.00  0.00    +0.210 HD
ENDBRANCH  14  16
BRANCH  13  18
ATOM     18  C5* LIG    1       27.490 -13.197   5.551  0.00  0.00    +0.190 C 
BRANCH  18  19
ATOM     19  O5* LIG    1       26.154 -12.731   5.740  0.00  0.00    -0.392 OA
ATOM     20  H5* LIG    1       25.745 -12.709   4.854  0.00  0.00    +0.209 HD
ENDBRANCH  18  19
ENDBRANCH  13  18
ENDBRANCH   6  11
TORSDOF 4
ENDMDL
MODEL 8
REMARK VINA RESULT:      -1.2      4.031      6.210
REMARK  Name = *****
REMARK                            x       y       z     vdW  Elec       q    Type
REMARK                         _______ _______ _______ _____ _____    ______ ____
ROOT
ATOM      1  O   LIG    1       22.486 -19.660   4.619  0.00  0.00    -0.267 OA
ATOM      2  C   LIG    1       22.869 -18.498   4.512  0.00  0.00    +0.267 C 
ATOM      3  C   LIG    1       24.125 -18.111   3.819  0.00  0.00    +0.094 C 
ATOM      4  I   LIG    1       25.351 -19.546   3.033  0.00  0.00    -0.037 I 
ATOM      5  C   LIG    1       24.409 -16.806   3.730  0.00  0.00    +0.113 C 
ATOM      6  N   LIG    1       23.596 -15.817   4.253  0.00  0.00    -0.273 N 
ATOM      7  C   LIG    1       22.442 -16.131   4.961  0.00  0.00    +0.331 C 
ATOM      8  O   LIG    1       21.713 -15.297   5.492  0.00  0.00    -0.246 OA
ATOM      9  N   LIG    1       22.143 -17.466   5.042  0.00  0.00    -0.274 N 
ATOM     10  H   LIG    1       21.292 -17.711   5.524  0.00  0.00    +0.173 HD
ENDROOT
BRANCH   6  11
ATOM     11  C1* LIG    1       23.922 -14.397   4.116  0.00  0.00    +0.226 C 
ATOM     12  O4* LIG    1       24.772 -14.195   2.969  0.00  0.00    -0.348 OA
ATOM     13  C4* LIG    1       25.991 -13.564   3.415  0.00  0.00    +0.175 C 
ATOM     14  C3* LIG    1       26.093 -13.847   4.906  0.00  0.00    +0.150 C 
ATOM     15  C2* LIG    1       24.643 -13.815   5.329  0.00  0.00    +0.088 C 
BRANCH  14  16
ATOM     16  O3* LIG    1       26.882 -12.901   5.605  0.00  0.00    -0.389 OA
ATOM     17  H3* LIG    1       27.741 -12.802   5.156  0.00  0.00    +0.210 HD
ENDBRANCH  14  16
BRANCH  13  18
ATOM     18  C5* LIG    1       27.165 -14.122   2.614  0.00  0.00    +0.190 C 
BRANCH  18  19
ATOM     19  O5* LIG    1       28.366 -13.447   2.990  0.00  0.00    -0.392 OA
ATOM     20  H5* LIG    1       28.725 -13.935   3.755  0.00  0.00    +0.209 HD
ENDBRANCH  18  19
ENDBRANCH  13  18
ENDBRANCH   6  11
TORSDOF 4
ENDMDL
MODEL 9
REMARK VINA RESULT:      -1.1      2.199      2.622
REMARK  Name = *****
REMARK                            x       y       z     vdW  Elec       q    Type
REMARK                         _______ _______ _______ _____ _____    ______ ____
ROOT
ATOM      1  O   LIG    1       29.475 -17.437   5.398  0.00  0.00    -0.267 OA
ATOM      2  C   LIG    1       28.563 -18.257   5.329  0.00  0.00    +0.267 C 
ATOM      3  C   LIG    1       27.315 -18.029   4.556  0.00  0.00    +0.094 C 
ATOM      4  I   LIG    1       27.015 -16.255   3.585  0.00  0.00    -0.037 I 
ATOM      5  C   LIG    1       26.415 -19.020   4.522  0.00  0.00    +0.113 C 
ATOM      6  N   LIG    1       26.596 -20.229   5.171  0.00  0.00    -0.273 N 
ATOM      7  C   LIG    1       27.720 -20.467   5.953  0.00  0.00    +0.331 C 
ATOM      8  O   LIG    1       27.905 -21.498   6.593  0.00  0.00    -0.246 OA
ATOM      9  N   LIG    1       28.647 -19.458   5.979  0.00  0.00    -0.274 N 
ATOM     10  H   LIG    1       29.484 -19.625   6.516  0.00  0.00    +0.173 HD
ENDROOT
BRANCH   6  11
ATOM     11  C1* LIG    1       25.605 -21.302   5.092  0.00  0.00    +0.226 C 
ATOM     12  O4* LIG    1       24.604 -20.978   4.106  0.00  0.00    -0.348 OA
ATOM     13  C4* LIG    1       23.314 -20.982   4.752  0.00  0.00    +0.175 C 
ATOM     14  C3* LIG    1       23.585 -20.808   6.239  0.00  0.00    +0.150 C 
ATOM     15  C2* LIG    1       24.881 -21.564   6.411  0.00  0.00    +0.088 C 
BRANCH  14  16
ATOM     16  O3* LIG    1       22.549 -21.313   7.062  0.00  0.00    -0.389 OA
ATOM     17  H3* LIG    1       22.174 -20.587   7.591  0.00  0.00    +0.210 HD
ENDBRANCH  14  16
BRANCH  13  18
ATOM     18  C5* LIG    1       22.455 -19.867   4.160  0.00  0.00    +0.190 C 
BRANCH  18  19
ATOM     19  O5* LIG    1       22.409 -18.766   5.067  0.00  0.00    -0.392 OA
ATOM     20  H5* LIG    1       22.746 -17.993   4.576  0.00  0.00    +0.209 HD
ENDBRANCH  18  19
ENDBRANCH  13  18
ENDBRANCH   6  11
TORSDOF 4
ENDMDL
