MODEL 1
REMARK VINA RESULT:      -6.3      0.000      0.000
REMARK  Name = *****
REMARK                            x       y       z     vdW  Elec       q    Type
REMARK                         _______ _______ _______ _____ _____    ______ ____
ROOT
ATOM      1  O   LIG    1       29.653 -18.087   5.744  0.00  0.00    -0.267 OA
ATOM      2  C   LIG    1       29.655 -19.064   6.482  0.00  0.00    +0.262 C 
ATOM      3  C   LIG    1       30.569 -19.269   7.565  0.00  0.00    +0.102 A 
ATOM      4  C   LIG    1       30.454 -20.410   8.318  0.00  0.00    +0.163 A 
ATOM      5  N   LIG    1       31.434 -20.333   9.262  0.00  0.00    -0.260 N 
ATOM      6  H   LIG    1       31.640 -21.002   9.995  0.00  0.00    +0.191 HD
ATOM      7  N   LIG    1       32.182 -19.209   9.162  0.00  0.00    -0.180 NA
ATOM      8  N   LIG    1       29.557 -21.415   8.176  0.00  0.00    -0.218 NA
ATOM      9  C   LIG    1       28.739 -21.210   7.187  0.00  0.00    +0.201 C 
ATOM     10  C   LIG    1       31.642 -18.563   8.118  0.00  0.00    +0.149 A 
ATOM     11  N   LIG    1       28.750 -20.105   6.355  0.00  0.00    -0.313 N 
ATOM     12  H   LIG    1       28.079 -20.015   5.608  0.00  0.00    +0.170 HD
ENDROOT
TORSDOF 0
ENDMDL
MODEL 2
REMARK VINA RESULT:      -6.1      1.765      2.414
REMARK  Name = *****
REMARK                            x       y       z     vdW  Elec       q    Type
REMARK                         _______ _______ _______ _____ _____    ______ ____
ROOT
ATOM      1  O   LIG    1       28.192 -21.761   7.296  0.00  0.00    -0.267 OA
ATOM      2  C   LIG    1       28.860 -20.769   7.034  0.00  0.00    +0.262 C 
ATOM      3  C   LIG    1       30.075 -20.404   7.697  0.00  0.00    +0.102 A 
ATOM      4  C   LIG    1       30.729 -19.266   7.296  0.00  0.00    +0.163 A 
ATOM      5  N   LIG    1       31.836 -19.174   8.086  0.00  0.00    -0.260 N 
ATOM      6  H   LIG    1       32.554 -18.460   8.064  0.00  0.00    +0.191 HD
ATOM      7  N   LIG    1       31.935 -20.185   8.981  0.00  0.00    -0.180 NA
ATOM      8  N   LIG    1       30.371 -18.400   6.317  0.00  0.00    -0.218 NA
ATOM      9  C   LIG    1       29.266 -18.750   5.730  0.00  0.00    +0.201 C 
ATOM     10  C   LIG    1       30.851 -20.934   8.733  0.00  0.00    +0.149 A 
ATOM     11  N   LIG    1       28.514 -19.870   6.039  0.00  0.00    -0.313 N 
ATOM     12  H   LIG    1       27.666 -20.076   5.535  0.00  0.00    +0.170 HD
ENDROOT
TORSDOF 0
ENDMDL
MODEL 3
REMARK VINA RESULT:      -6.0      3.584      4.992
REMARK  Name = *****
REMARK                            x       y       z     vdW  Elec       q    Type
REMARK                         _______ _______ _______ _____ _____    ______ ____
ROOT
ATOM      1  O   LIG    1       25.916 -20.724   9.437  0.00  0.00    -0.267 OA
ATOM      2  C   LIG    1       25.649 -20.676   8.243  0.00  0.00    +0.262 C 
ATOM      3  C   LIG    1       26.604 -20.446   7.201  0.00  0.00    +0.102 A 
ATOM      4  C   LIG    1       26.167 -20.424   5.900  0.00  0.00    +0.163 A 
ATOM      5  N   LIG    1       27.275 -20.196   5.139  0.00  0.00    -0.260 N 
ATOM      6  H   LIG    1       27.328 -20.123   4.130  0.00  0.00    +0.191 HD
ATOM      7  N   LIG    1       28.405 -20.063   5.873  0.00  0.00    -0.180 NA
ATOM      8  N   LIG    1       24.904 -20.596   5.442  0.00  0.00    -0.218 NA
ATOM      9  C   LIG    1       24.055 -20.802   6.403  0.00  0.00    +0.201 C 
ATOM     10  C   LIG    1       27.982 -20.220   7.136  0.00  0.00    +0.149 A 
ATOM     11  N   LIG    1       24.366 -20.847   7.751  0.00  0.00    -0.313 N 
ATOM     12  H   LIG    1       23.649 -21.014   8.440  0.00  0.00    +0.170 HD
ENDROOT
TORSDOF 0
ENDMDL
MODEL 4
REMARK VINA RESULT:      -5.9      4.096      4.816
REMARK  Name = *****
REMARK                            x       y       z     vdW  Elec       q    Type
REMARK                         _______ _______ _______ _____ _____    ______ ____
ROOT
ATOM      1  O   LIG    1       28.449 -19.864   5.717  0.00  0.00    -0.267 OA
ATOM      2  C   LIG    1       27.261 -20.146   5.798  0.00  0.00    +0.262 C 
ATOM      3  C   LIG    1       26.568 -20.422   7.021  0.00  0.00    +0.102 A 
ATOM      4  C   LIG    1       25.230 -20.720   6.967  0.00  0.00    +0.163 A 
ATOM      5  N   LIG    1       24.843 -20.927   8.258  0.00  0.00    -0.260 N 
ATOM      6  H   LIG    1       23.917 -21.161   8.595  0.00  0.00    +0.191 HD
ATOM      7  N   LIG    1       25.855 -20.785   9.145  0.00  0.00    -0.180 NA
ATOM      8  N   LIG    1       24.436 -20.793   5.872  0.00  0.00    -0.218 NA
ATOM      9  C   LIG    1       25.084 -20.541   4.775  0.00  0.00    +0.201 C 
ATOM     10  C   LIG    1       26.909 -20.475   8.376  0.00  0.00    +0.149 A 
ATOM     11  N   LIG    1       26.430 -20.229   4.693  0.00  0.00    -0.313 N 
ATOM     12  H   LIG    1       26.863 -20.043   3.802  0.00  0.00    +0.170 HD
ENDROOT
TORSDOF 0
ENDMDL
MODEL 5
REMARK VINA RESULT:      -5.8      1.999      3.846
REMARK  Name = *****
REMARK                            x       y       z     vdW  Elec       q    Type
REMARK                         _______ _______ _______ _____ _____    ______ ____
ROOT
ATOM      1  O   LIG    1       31.048 -21.798   9.668  0.00  0.00    -0.267 OA
ATOM      2  C   LIG    1       30.965 -20.798   8.966  0.00  0.00    +0.262 C 
ATOM      3  C   LIG    1       29.980 -20.595   7.947  0.00  0.00    +0.102 A 
ATOM      4  C   LIG    1       29.999 -19.420   7.238  0.00  0.00    +0.163 A 
ATOM      5  N   LIG    1       28.962 -19.501   6.357  0.00  0.00    -0.260 N 
ATOM      6  H   LIG    1       28.672 -18.807   5.677  0.00  0.00    +0.191 HD
ATOM      7  N   LIG    1       28.275 -20.663   6.450  0.00  0.00    -0.180 NA
ATOM      8  N   LIG    1       30.856 -18.380   7.371  0.00  0.00    -0.218 NA
ATOM      9  C   LIG    1       31.741 -18.586   8.299  0.00  0.00    +0.201 C 
ATOM     10  C   LIG    1       28.906 -21.326   7.430  0.00  0.00    +0.149 A 
ATOM     11  N   LIG    1       31.830 -19.723   9.083  0.00  0.00    -0.313 N 
ATOM     12  H   LIG    1       32.546 -19.810   9.787  0.00  0.00    +0.170 HD
ENDROOT
TORSDOF 0
ENDMDL
MODEL 6
REMARK VINA RESULT:      -5.8      1.256      3.007
REMARK  Name = *****
REMARK                            x       y       z     vdW  Elec       q    Type
REMARK                         _______ _______ _______ _____ _____    ______ ____
ROOT
ATOM      1  O   LIG    1       32.040 -17.835   7.973  0.00  0.00    -0.267 OA
ATOM      2  C   LIG    1       31.406 -18.880   8.053  0.00  0.00    +0.262 C 
ATOM      3  C   LIG    1       30.294 -19.227   7.221  0.00  0.00    +0.102 A 
ATOM      4  C   LIG    1       29.678 -20.438   7.416  0.00  0.00    +0.163 A 
ATOM      5  N   LIG    1       28.676 -20.498   6.494  0.00  0.00    -0.260 N 
ATOM      6  H   LIG    1       28.019 -21.254   6.344  0.00  0.00    +0.191 HD
ATOM      7  N   LIG    1       28.604 -19.393   5.715  0.00  0.00    -0.180 NA
ATOM      8  N   LIG    1       29.987 -21.393   8.325  0.00  0.00    -0.218 NA
ATOM      9  C   LIG    1       30.997 -21.057   9.070  0.00  0.00    +0.201 C 
ATOM     10  C   LIG    1       29.602 -18.621   6.169  0.00  0.00    +0.149 A 
ATOM     11  N   LIG    1       31.702 -19.870   8.976  0.00  0.00    -0.313 N 
ATOM     12  H   LIG    1       32.479 -19.681   9.590  0.00  0.00    +0.170 HD
ENDROOT
TORSDOF 0
ENDMDL
MODEL 7
REMARK VINA RESULT:      -5.6      4.324      6.018
REMARK  Name = *****
REMARK                            x       y       z     vdW  Elec       q    Type
REMARK                         _______ _______ _______ _____ _____    ______ ____
ROOT
ATOM      1  O   LIG    1       24.528 -20.262   3.522  0.00  0.00    -0.267 OA
ATOM      2  C   LIG    1       25.164 -20.317   4.567  0.00  0.00    +0.262 C 
ATOM      3  C   LIG    1       24.602 -20.614   5.850  0.00  0.00    +0.102 A 
ATOM      4  C   LIG    1       25.434 -20.649   6.941  0.00  0.00    +0.163 A 
ATOM      5  N   LIG    1       24.639 -20.957   8.005  0.00  0.00    -0.260 N 
ATOM      6  H   LIG    1       24.918 -21.072   8.972  0.00  0.00    +0.191 HD
ATOM      7  N   LIG    1       23.339 -21.119   7.667  0.00  0.00    -0.180 NA
ATOM      8  N   LIG    1       26.770 -20.431   6.978  0.00  0.00    -0.218 NA
ATOM      9  C   LIG    1       27.258 -20.162   5.804  0.00  0.00    +0.201 C 
ATOM     10  C   LIG    1       23.327 -20.908   6.343  0.00  0.00    +0.149 A 
ATOM     11  N   LIG    1       26.530 -20.096   4.629  0.00  0.00    -0.313 N 
ATOM     12  H   LIG    1       26.981 -19.883   3.754  0.00  0.00    +0.170 HD
ENDROOT
TORSDOF 0
ENDMDL
MODEL 8
REMARK VINA RESULT:      -5.6      1.534      2.159
REMARK  Name = *****
REMARK                            x       y       z     vdW  Elec       q    Type
REMARK                         _______ _______ _______ _____ _____    ______ ____
ROOT
ATOM      1  O   LIG    1       28.540 -20.011   7.098  0.00  0.00    -0.267 OA
ATOM      2  C   LIG    1       29.551 -20.205   7.761  0.00  0.00    +0.262 C 
ATOM      3  C   LIG    1       30.330 -19.177   8.384  0.00  0.00    +0.102 A 
ATOM      4  C   LIG    1       31.439 -19.538   9.107  0.00  0.00    +0.163 A 
ATOM      5  N   LIG    1       31.969 -18.374   9.580  0.00  0.00    -0.260 N 
ATOM      6  H   LIG    1       32.792 -18.260  10.160  0.00  0.00    +0.191 HD
ATOM      7  N   LIG    1       31.269 -17.279   9.201  0.00  0.00    -0.180 NA
ATOM      8  N   LIG    1       31.925 -20.783   9.323  0.00  0.00    -0.218 NA
ATOM      9  C   LIG    1       31.204 -21.700   8.748  0.00  0.00    +0.201 C 
ATOM     10  C   LIG    1       30.265 -17.783   8.469  0.00  0.00    +0.149 A 
ATOM     11  N   LIG    1       30.067 -21.469   7.995  0.00  0.00    -0.313 N 
ATOM     12  H   LIG    1       29.558 -22.235   7.581  0.00  0.00    +0.170 HD
ENDROOT
TORSDOF 0
ENDMDL
MODEL 9
REMARK VINA RESULT:      -5.5      4.452      6.065
REMARK  Name = *****
REMARK                            x       y       z     vdW  Elec       q    Type
REMARK                         _______ _______ _______ _____ _____    ______ ____
ROOT
ATOM      1  O   LIG    1       23.259 -21.244   7.767  0.00  0.00    -0.267 OA
ATOM      2  C   LIG    1       24.417 -20.964   7.487  0.00  0.00    +0.262 C 
ATOM      3  C   LIG    1       24.898 -20.706   6.163  0.00  0.00    +0.102 A 
ATOM      4  C   LIG    1       26.224 -20.396   5.993  0.00  0.00    +0.163 A 
ATOM      5  N   LIG    1       26.391 -20.198   4.654  0.00  0.00    -0.260 N 
ATOM      6  H   LIG    1       27.243 -19.946   4.168  0.00  0.00    +0.191 HD
ATOM      7  N   LIG    1       25.250 -20.367   3.946  0.00  0.00    -0.180 NA
ATOM      8  N   LIG    1       27.185 -20.296   6.942  0.00  0.00    -0.218 NA
ATOM      9  C   LIG    1       26.728 -20.535   8.134  0.00  0.00    +0.201 C 
ATOM     10  C   LIG    1       24.340 -20.677   4.881  0.00  0.00    +0.149 A 
ATOM     11  N   LIG    1       25.417 -20.858   8.439  0.00  0.00    -0.313 N 
ATOM     12  H   LIG    1       25.136 -21.029   9.392  0.00  0.00    +0.170 HD
ENDROOT
TORSDOF 0
ENDMDL
