MODEL 1
REMARK VINA RESULT:      -5.9      0.000      0.000
REMARK  Name = *****
REMARK                            x       y       z     vdW  Elec       q    Type
REMARK                         _______ _______ _______ _____ _____    ______ ____
ROOT
ATOM      1  C   LIG    1       26.397 -32.132   8.593  0.00  0.00    +0.015 C 
ATOM      2  C   LIG    1       25.293 -31.151   8.085  0.00  0.00    +0.012 C 
ATOM      3  C   LIG    1       25.268 -31.181   6.518  0.00  0.00    +0.157 C 
ATOM      4  C   LIG    1       24.557 -32.545   6.243  0.00  0.00    +0.154 C 
ATOM      5  C   LIG    1       23.676 -32.852   7.475  0.00  0.00    +0.039 C 
ATOM      6  C   LIG    1       23.865 -31.644   8.401  0.00  0.00    +0.007 C 
ATOM      7  C   LIG    1       23.582 -31.779   9.910  0.00  0.00    +0.034 C 
ATOM      8  C   LIG    1       22.165 -32.335  10.138  0.00  0.00    +0.011 C 
ATOM      9  C   LIG    1       21.772 -32.345  11.612  0.00  0.00    +0.032 C 
ATOM     10  C   LIG    1       21.930 -30.966  12.198  0.00  0.00    -0.053 C 
ATOM     11  C   LIG    1       23.340 -30.355  12.101  0.00  0.00    +0.044 C 
ATOM     12  C   LIG    1       24.275 -31.172  13.020  0.00  0.00    +0.023 C 
ATOM     13  C   LIG    1       23.348 -28.927  12.649  0.00  0.00    -0.009 C 
ATOM     14  C   LIG    1       22.284 -28.283  13.148  0.00  0.00    +0.047 C 
ATOM     15  C   LIG    1       20.966 -28.937  13.216  0.00  0.00    +0.179 C 
ATOM     16  O   LIG    1       19.990 -28.358  13.686  0.00  0.00    -0.288 OA
ATOM     17  C   LIG    1       20.865 -30.317  12.703  0.00  0.00    +0.051 C 
ATOM     18  C   LIG    1       23.764 -30.368  10.576  0.00  0.00    +0.153 C 
ATOM     19  F   LIG    1       22.867 -29.532   9.930  0.00  0.00    -0.238 F 
ATOM     20  C   LIG    1       25.173 -29.767  10.265  0.00  0.00    +0.154 C 
ATOM     21  C   LIG    1       25.518 -29.778   8.755  0.00  0.00    +0.044 C 
ENDROOT
BRANCH   3  22
ATOM     22  C   LIG    1       24.510 -30.006   5.817  0.00  0.00    +0.193 C 
ATOM     23  O   LIG    1       23.287 -29.843   5.869  0.00  0.00    -0.292 OA
BRANCH  22  24
ATOM     24  C   LIG    1       25.357 -29.003   5.029  0.00  0.00    +0.233 C 
BRANCH  24  25
ATOM     25  O   LIG    1       26.129 -28.150   5.865  0.00  0.00    -0.387 OA
ATOM     26  H   LIG    1       26.183 -28.598   6.733  0.00  0.00    +0.210 HD
ENDBRANCH  24  25
ENDBRANCH  22  24
ENDBRANCH   3  22
BRANCH   3  27
ATOM     27  O   LIG    1       26.610 -31.216   6.017  0.00  0.00    -0.378 OA
ATOM     28  H   LIG    1       26.826 -32.143   5.806  0.00  0.00    +0.211 HD
ENDBRANCH   3  27
BRANCH   4  29
ATOM     29  O   LIG    1       23.835 -32.543   5.024  0.00  0.00    -0.389 OA
ATOM     30  H   LIG    1       23.569 -31.625   4.832  0.00  0.00    +0.210 HD
ENDBRANCH   4  29
BRANCH  20  31
ATOM     31  O   LIG    1       26.209 -30.418  10.996  0.00  0.00    -0.389 OA
ATOM     32  H   LIG    1       25.830 -30.721  11.839  0.00  0.00    +0.210 HD
ENDBRANCH  20  31
TORSDOF 6
ENDMDL
MODEL 2
REMARK VINA RESULT:      -5.8      1.268      1.634
REMARK  Name = *****
REMARK                            x       y       z     vdW  Elec       q    Type
REMARK                         _______ _______ _______ _____ _____    ______ ____
ROOT
ATOM      1  C   LIG    1       25.540 -33.553   9.008  0.00  0.00    +0.015 C 
ATOM      2  C   LIG    1       25.194 -32.175   8.359  0.00  0.00    +0.012 C 
ATOM      3  C   LIG    1       25.196 -32.331   6.799  0.00  0.00    +0.157 C 
ATOM      4  C   LIG    1       23.847 -33.084   6.560  0.00  0.00    +0.154 C 
ATOM      5  C   LIG    1       22.915 -32.730   7.741  0.00  0.00    +0.039 C 
ATOM      6  C   LIG    1       23.728 -31.754   8.600  0.00  0.00    +0.007 C 
ATOM      7  C   LIG    1       23.380 -31.566  10.089  0.00  0.00    +0.034 C 
ATOM      8  C   LIG    1       21.891 -31.212  10.248  0.00  0.00    +0.011 C 
ATOM      9  C   LIG    1       21.523 -30.862  11.686  0.00  0.00    +0.032 C 
ATOM     10  C   LIG    1       22.415 -29.759  12.194  0.00  0.00    -0.053 C 
ATOM     11  C   LIG    1       23.926 -30.052  12.163  0.00  0.00    +0.044 C 
ATOM     12  C   LIG    1       24.216 -31.162  13.198  0.00  0.00    +0.023 C 
ATOM     13  C   LIG    1       24.723 -28.829  12.619  0.00  0.00    -0.009 C 
ATOM     14  C   LIG    1       24.194 -27.657  12.997  0.00  0.00    +0.047 C 
ATOM     15  C   LIG    1       22.734 -27.454  13.008  0.00  0.00    +0.179 C 
ATOM     16  O   LIG    1       22.242 -26.387  13.368  0.00  0.00    -0.288 OA
ATOM     17  C   LIG    1       21.888 -28.582  12.578  0.00  0.00    +0.051 C 
ATOM     18  C   LIG    1       24.308 -30.443  10.676  0.00  0.00    +0.153 C 
ATOM     19  F   LIG    1       24.054 -29.312   9.915  0.00  0.00    -0.238 F 
ATOM     20  C   LIG    1       25.818 -30.763  10.433  0.00  0.00    +0.154 C 
ATOM     21  C   LIG    1       26.135 -31.106   8.956  0.00  0.00    +0.044 C 
ENDROOT
BRANCH   3  22
ATOM     22  C   LIG    1       25.249 -31.005   5.973  0.00  0.00    +0.193 C 
ATOM     23  O   LIG    1       25.978 -30.830   4.992  0.00  0.00    -0.292 OA
BRANCH  22  24
ATOM     24  C   LIG    1       24.326 -29.868   6.421  0.00  0.00    +0.233 C 
BRANCH  24  25
ATOM     25  O   LIG    1       23.193 -29.708   5.578  0.00  0.00    -0.387 OA
ATOM     26  H   LIG    1       22.810 -28.836   5.801  0.00  0.00    +0.210 HD
ENDBRANCH  24  25
ENDBRANCH  22  24
ENDBRANCH   3  22
BRANCH   3  27
ATOM     27  O   LIG    1       26.297 -33.157   6.402  0.00  0.00    -0.378 OA
ATOM     28  H   LIG    1       26.374 -33.106   5.431  0.00  0.00    +0.211 HD
ENDBRANCH   3  27
BRANCH   4  29
ATOM     29  O   LIG    1       23.283 -32.793   5.293  0.00  0.00    -0.389 OA
ATOM     30  H   LIG    1       23.084 -31.839   5.263  0.00  0.00    +0.210 HD
ENDBRANCH   4  29
BRANCH  20  31
ATOM     31  O   LIG    1       26.289 -31.810  11.277  0.00  0.00    -0.389 OA
ATOM     32  H   LIG    1       25.778 -31.774  12.105  0.00  0.00    +0.210 HD
ENDBRANCH  20  31
TORSDOF 6
ENDMDL
MODEL 3
REMARK VINA RESULT:      -5.7      2.717      3.707
REMARK  Name = *****
REMARK                            x       y       z     vdW  Elec       q    Type
REMARK                         _______ _______ _______ _____ _____    ______ ____
ROOT
ATOM      1  C   LIG    1       25.341 -32.635  11.373  0.00  0.00    +0.015 C 
ATOM      2  C   LIG    1       25.384 -31.429  10.381  0.00  0.00    +0.012 C 
ATOM      3  C   LIG    1       25.095 -31.952   8.931  0.00  0.00    +0.157 C 
ATOM      4  C   LIG    1       23.552 -32.193   8.989  0.00  0.00    +0.154 C 
ATOM      5  C   LIG    1       22.986 -31.245  10.071  0.00  0.00    +0.039 C 
ATOM      6  C   LIG    1       24.201 -30.456  10.573  0.00  0.00    +0.007 C 
ATOM      7  C   LIG    1       24.169 -29.796  11.965  0.00  0.00    +0.034 C 
ATOM      8  C   LIG    1       22.929 -28.894  12.098  0.00  0.00    +0.011 C 
ATOM      9  C   LIG    1       22.925 -28.094  13.397  0.00  0.00    +0.032 C 
ATOM     10  C   LIG    1       24.202 -27.306  13.523  0.00  0.00    -0.053 C 
ATOM     11  C   LIG    1       25.503 -28.130  13.492  0.00  0.00    +0.044 C 
ATOM     12  C   LIG    1       25.557 -28.980  14.781  0.00  0.00    +0.023 C 
ATOM     13  C   LIG    1       26.725 -27.212  13.540  0.00  0.00    -0.009 C 
ATOM     14  C   LIG    1       26.686 -25.873  13.599  0.00  0.00    +0.047 C 
ATOM     15  C   LIG    1       25.401 -25.154  13.633  0.00  0.00    +0.179 C 
ATOM     16  O   LIG    1       25.358 -23.928  13.703  0.00  0.00    -0.288 OA
ATOM     17  C   LIG    1       24.168 -25.962  13.586  0.00  0.00    +0.051 C 
ATOM     18  C   LIG    1       25.499 -28.983  12.159  0.00  0.00    +0.153 C 
ATOM     19  F   LIG    1       25.528 -28.061  11.124  0.00  0.00    -0.238 F 
ATOM     20  C   LIG    1       26.757 -29.883  11.933  0.00  0.00    +0.154 C 
ATOM     21  C   LIG    1       26.710 -30.668  10.598  0.00  0.00    +0.044 C 
ENDROOT
BRANCH   3  22
ATOM     22  C   LIG    1       25.464 -30.982   7.762  0.00  0.00    +0.193 C 
ATOM     23  O   LIG    1       25.230 -29.770   7.767  0.00  0.00    -0.292 OA
BRANCH  22  24
ATOM     24  C   LIG    1       26.165 -31.593   6.546  0.00  0.00    +0.233 C 
BRANCH  24  25
ATOM     25  O   LIG    1       25.355 -32.534   5.852  0.00  0.00    -0.387 OA
ATOM     26  H   LIG    1       25.908 -33.332   5.733  0.00  0.00    +0.210 HD
ENDBRANCH  24  25
ENDBRANCH  22  24
ENDBRANCH   3  22
BRANCH   3  27
ATOM     27  O   LIG    1       25.779 -33.193   8.724  0.00  0.00    -0.378 OA
ATOM     28  H   LIG    1       26.714 -32.990   8.531  0.00  0.00    +0.211 HD
ENDBRANCH   3  27
BRANCH   4  29
ATOM     29  O   LIG    1       22.931 -32.034   7.725  0.00  0.00    -0.389 OA
ATOM     30  H   LIG    1       22.442 -31.190   7.732  0.00  0.00    +0.210 HD
ENDBRANCH   4  29
BRANCH  20  31
ATOM     31  O   LIG    1       26.971 -30.790  13.012  0.00  0.00    -0.389 OA
ATOM     32  H   LIG    1       27.870 -31.152  12.919  0.00  0.00    +0.210 HD
ENDBRANCH  20  31
TORSDOF 6
ENDMDL
MODEL 4
REMARK VINA RESULT:      -5.6      2.003      2.513
REMARK  Name = *****
REMARK                            x       y       z     vdW  Elec       q    Type
REMARK                         _______ _______ _______ _____ _____    ______ ____
ROOT
ATOM      1  C   LIG    1       27.079 -32.014   8.981  0.00  0.00    +0.015 C 
ATOM      2  C   LIG    1       26.039 -30.868   8.767  0.00  0.00    +0.012 C 
ATOM      3  C   LIG    1       25.378 -31.038   7.355  0.00  0.00    +0.157 C 
ATOM      4  C   LIG    1       24.406 -32.235   7.608  0.00  0.00    +0.154 C 
ATOM      5  C   LIG    1       24.061 -32.228   9.114  0.00  0.00    +0.039 C 
ATOM      6  C   LIG    1       24.800 -31.009   9.678  0.00  0.00    +0.007 C 
ATOM      7  C   LIG    1       25.133 -30.938  11.181  0.00  0.00    +0.034 C 
ATOM      8  C   LIG    1       23.860 -31.150  12.019  0.00  0.00    +0.011 C 
ATOM      9  C   LIG    1       24.099 -30.937  13.510  0.00  0.00    +0.032 C 
ATOM     10  C   LIG    1       24.702 -29.577  13.748  0.00  0.00    -0.053 C 
ATOM     11  C   LIG    1       26.031 -29.297  13.023  0.00  0.00    +0.044 C 
ATOM     12  C   LIG    1       27.112 -30.208  13.646  0.00  0.00    +0.023 C 
ATOM     13  C   LIG    1       26.491 -27.861  13.274  0.00  0.00    -0.009 C 
ATOM     14  C   LIG    1       25.839 -26.957  14.019  0.00  0.00    +0.047 C 
ATOM     15  C   LIG    1       24.573 -27.301  14.690  0.00  0.00    +0.179 C 
ATOM     16  O   LIG    1       23.978 -26.483  15.387  0.00  0.00    -0.288 OA
ATOM     17  C   LIG    1       24.052 -28.668  14.498  0.00  0.00    +0.051 C 
ATOM     18  C   LIG    1       25.794 -29.544  11.477  0.00  0.00    +0.153 C 
ATOM     19  F   LIG    1       24.862 -28.597  11.084  0.00  0.00    -0.238 F 
ATOM     20  C   LIG    1       27.035 -29.294  10.559  0.00  0.00    +0.154 C 
ATOM     21  C   LIG    1       26.734 -29.520   9.057  0.00  0.00    +0.044 C 
ENDROOT
BRANCH   3  22
ATOM     22  C   LIG    1       24.603 -29.797   6.803  0.00  0.00    +0.193 C 
ATOM     23  O   LIG    1       23.678 -29.237   7.398  0.00  0.00    -0.292 OA
BRANCH  22  24
ATOM     24  C   LIG    1       25.039 -29.255   5.439  0.00  0.00    +0.233 C 
BRANCH  24  25
ATOM     25  O   LIG    1       26.202 -28.440   5.511  0.00  0.00    -0.387 OA
ATOM     26  H   LIG    1       25.893 -27.518   5.408  0.00  0.00    +0.210 HD
ENDBRANCH  24  25
ENDBRANCH  22  24
ENDBRANCH   3  22
BRANCH   3  27
ATOM     27  O   LIG    1       26.379 -31.409   6.400  0.00  0.00    -0.378 OA
ATOM     28  H   LIG    1       26.822 -32.213   6.729  0.00  0.00    +0.211 HD
ENDBRANCH   3  27
BRANCH   4  29
ATOM     29  O   LIG    1       23.263 -32.190   6.770  0.00  0.00    -0.389 OA
ATOM     30  H   LIG    1       23.543 -32.422   5.865  0.00  0.00    +0.210 HD
ENDBRANCH   4  29
BRANCH  20  31
ATOM     31  O   LIG    1       28.158 -30.083  10.944  0.00  0.00    -0.389 OA
ATOM     32  H   LIG    1       28.261 -30.791  10.284  0.00  0.00    +0.210 HD
ENDBRANCH  20  31
TORSDOF 6
ENDMDL
MODEL 5
REMARK VINA RESULT:      -5.3      9.248     11.892
REMARK  Name = *****
REMARK                            x       y       z     vdW  Elec       q    Type
REMARK                         _______ _______ _______ _____ _____    ______ ____
ROOT
ATOM      1  C   LIG    1       29.298 -18.163   6.627  0.00  0.00    +0.015 C 
ATOM      2  C   LIG    1       29.512 -19.539   7.335  0.00  0.00    +0.012 C 
ATOM      3  C   LIG    1       30.768 -19.442   8.268  0.00  0.00    +0.157 C 
ATOM      4  C   LIG    1       30.203 -18.612   9.466  0.00  0.00    +0.154 C 
ATOM      5  C   LIG    1       28.678 -18.860   9.509  0.00  0.00    +0.039 C 
ATOM      6  C   LIG    1       28.413 -19.854   8.372  0.00  0.00    +0.007 C 
ATOM      7  C   LIG    1       27.004 -19.963   7.758  0.00  0.00    +0.034 C 
ATOM      8  C   LIG    1       25.960 -20.213   8.861  0.00  0.00    +0.011 C 
ATOM      9  C   LIG    1       24.568 -20.484   8.298  0.00  0.00    +0.032 C 
ATOM     10  C   LIG    1       24.621 -21.622   7.313  0.00  0.00    -0.053 C 
ATOM     11  C   LIG    1       25.572 -21.429   6.118  0.00  0.00    +0.044 C 
ATOM     12  C   LIG    1       24.998 -20.303   5.231  0.00  0.00    +0.023 C 
ATOM     13  C   LIG    1       25.601 -22.683   5.243  0.00  0.00    -0.009 C 
ATOM     14  C   LIG    1       24.902 -23.804   5.472  0.00  0.00    +0.047 C 
ATOM     15  C   LIG    1       24.004 -23.911   6.635  0.00  0.00    +0.179 C 
ATOM     16  O   LIG    1       23.348 -24.929   6.842  0.00  0.00    -0.288 OA
ATOM     17  C   LIG    1       23.917 -22.747   7.537  0.00  0.00    +0.051 C 
ATOM     18  C   LIG    1       27.013 -21.121   6.697  0.00  0.00    +0.153 C 
ATOM     19  F   LIG    1       27.390 -22.260   7.391  0.00  0.00    -0.238 F 
ATOM     20  C   LIG    1       28.136 -20.909   5.630  0.00  0.00    +0.154 C 
ATOM     21  C   LIG    1       29.527 -20.644   6.256  0.00  0.00    +0.044 C 
ENDROOT
BRANCH   3  22
ATOM     22  C   LIG    1       31.367 -20.799   8.763  0.00  0.00    +0.193 C 
ATOM     23  O   LIG    1       32.552 -20.962   9.068  0.00  0.00    -0.292 OA
BRANCH  22  24
ATOM     24  C   LIG    1       30.405 -21.985   8.875  0.00  0.00    +0.233 C 
BRANCH  24  25
ATOM     25  O   LIG    1       30.425 -22.597  10.158  0.00  0.00    -0.387 OA
ATOM     26  H   LIG    1       31.366 -22.637  10.425  0.00  0.00    +0.210 HD
ENDBRANCH  24  25
ENDBRANCH  22  24
ENDBRANCH   3  22
BRANCH   3  27
ATOM     27  O   LIG    1       31.802 -18.705   7.605  0.00  0.00    -0.378 OA
ATOM     28  H   LIG    1       32.386 -19.347   7.159  0.00  0.00    +0.211 HD
ENDBRANCH   3  27
BRANCH   4  29
ATOM     29  O   LIG    1       30.854 -18.914  10.689  0.00  0.00    -0.389 OA
ATOM     30  H   LIG    1       31.681 -19.388  10.482  0.00  0.00    +0.210 HD
ENDBRANCH   4  29
BRANCH  20  31
ATOM     31  O   LIG    1       27.817 -19.863   4.714  0.00  0.00    -0.389 OA
ATOM     32  H   LIG    1       26.904 -19.579   4.898  0.00  0.00    +0.210 HD
ENDBRANCH  20  31
TORSDOF 6
ENDMDL
MODEL 6
REMARK VINA RESULT:      -5.1      3.819      6.204
REMARK  Name = *****
REMARK                            x       y       z     vdW  Elec       q    Type
REMARK                         _______ _______ _______ _____ _____    ______ ____
ROOT
ATOM      1  C   LIG    1       26.069 -28.645  10.861  0.00  0.00    +0.015 C 
ATOM      2  C   LIG    1       25.983 -28.811  12.413  0.00  0.00    +0.012 C 
ATOM      3  C   LIG    1       27.288 -28.234  13.060  0.00  0.00    +0.157 C 
ATOM      4  C   LIG    1       27.039 -26.695  12.944  0.00  0.00    +0.154 C 
ATOM      5  C   LIG    1       25.508 -26.486  12.910  0.00  0.00    +0.039 C 
ATOM      6  C   LIG    1       24.919 -27.894  13.053  0.00  0.00    +0.007 C 
ATOM      7  C   LIG    1       23.486 -28.182  12.564  0.00  0.00    +0.034 C 
ATOM      8  C   LIG    1       22.498 -27.186  13.197  0.00  0.00    +0.011 C 
ATOM      9  C   LIG    1       21.045 -27.519  12.872  0.00  0.00    +0.032 C 
ATOM     10  C   LIG    1       20.737 -28.938  13.270  0.00  0.00    -0.053 C 
ATOM     11  C   LIG    1       21.616 -30.022  12.618  0.00  0.00    +0.044 C 
ATOM     12  C   LIG    1       21.278 -30.062  11.111  0.00  0.00    +0.023 C 
ATOM     13  C   LIG    1       21.264 -31.405  13.168  0.00  0.00    -0.009 C 
ATOM     14  C   LIG    1       20.325 -31.656  14.091  0.00  0.00    +0.047 C 
ATOM     15  C   LIG    1       19.517 -30.566  14.665  0.00  0.00    +0.179 C 
ATOM     16  O   LIG    1       18.644 -30.791  15.500  0.00  0.00    -0.288 OA
ATOM     17  C   LIG    1       19.793 -29.196  14.194  0.00  0.00    +0.051 C 
ATOM     18  C   LIG    1       23.127 -29.666  12.930  0.00  0.00    +0.153 C 
ATOM     19  F   LIG    1       23.256 -29.753  14.307  0.00  0.00    -0.238 F 
ATOM     20  C   LIG    1       24.184 -30.667  12.361  0.00  0.00    +0.154 C 
ATOM     21  C   LIG    1       25.640 -30.284  12.725  0.00  0.00    +0.044 C 
ENDROOT
BRANCH   3  22
ATOM     22  C   LIG    1       27.563 -28.644  14.544  0.00  0.00    +0.193 C 
ATOM     23  O   LIG    1       26.814 -28.373  15.487  0.00  0.00    -0.292 OA
BRANCH  22  24
ATOM     24  C   LIG    1       28.844 -29.435  14.822  0.00  0.00    +0.233 C 
BRANCH  24  25
ATOM     25  O   LIG    1       28.752 -30.797  14.422  0.00  0.00    -0.387 OA
ATOM     26  H   LIG    1       28.218 -31.245  15.109  0.00  0.00    +0.210 HD
ENDBRANCH  24  25
ENDBRANCH  22  24
ENDBRANCH   3  22
BRANCH   3  27
ATOM     27  O   LIG    1       28.422 -28.610  12.269  0.00  0.00    -0.378 OA
ATOM     28  H   LIG    1       29.086 -29.003  12.866  0.00  0.00    +0.211 HD
ENDBRANCH   3  27
BRANCH   4  29
ATOM     29  O   LIG    1       27.683 -25.963  13.973  0.00  0.00    -0.389 OA
ATOM     30  H   LIG    1       28.590 -25.761  13.678  0.00  0.00    +0.210 HD
ENDBRANCH   4  29
BRANCH  20  31
ATOM     31  O   LIG    1       24.071 -30.824  10.948  0.00  0.00    -0.389 OA
ATOM     32  H   LIG    1       24.332 -31.736  10.731  0.00  0.00    +0.210 HD
ENDBRANCH  20  31
TORSDOF 6
ENDMDL
MODEL 7
REMARK VINA RESULT:      -5.1      1.928      6.579
REMARK  Name = *****
REMARK                            x       y       z     vdW  Elec       q    Type
REMARK                         _______ _______ _______ _____ _____    ______ ____
ROOT
ATOM      1  C   LIG    1       23.772 -32.997  12.000  0.00  0.00    +0.015 C 
ATOM      2  C   LIG    1       22.857 -31.768  11.695  0.00  0.00    +0.012 C 
ATOM      3  C   LIG    1       21.877 -31.551  12.899  0.00  0.00    +0.157 C 
ATOM      4  C   LIG    1       22.828 -30.915  13.964  0.00  0.00    +0.154 C 
ATOM      5  C   LIG    1       23.971 -30.219  13.191  0.00  0.00    +0.039 C 
ATOM      6  C   LIG    1       23.627 -30.431  11.712  0.00  0.00    +0.007 C 
ATOM      7  C   LIG    1       24.736 -30.348  10.645  0.00  0.00    +0.034 C 
ATOM      8  C   LIG    1       25.497 -29.016  10.770  0.00  0.00    +0.011 C 
ATOM      9  C   LIG    1       26.504 -28.810   9.643  0.00  0.00    +0.032 C 
ATOM     10  C   LIG    1       25.818 -28.936   8.308  0.00  0.00    -0.053 C 
ATOM     11  C   LIG    1       25.101 -30.273   8.047  0.00  0.00    +0.044 C 
ATOM     12  C   LIG    1       26.179 -31.373   7.926  0.00  0.00    +0.023 C 
ATOM     13  C   LIG    1       24.375 -30.243   6.701  0.00  0.00    -0.009 C 
ATOM     14  C   LIG    1       24.354 -29.204   5.855  0.00  0.00    +0.047 C 
ATOM     15  C   LIG    1       25.072 -27.957   6.171  0.00  0.00    +0.179 C 
ATOM     16  O   LIG    1       25.071 -27.006   5.392  0.00  0.00    -0.288 OA
ATOM     17  C   LIG    1       25.798 -27.896   7.453  0.00  0.00    +0.051 C 
ATOM     18  C   LIG    1       24.074 -30.505   9.230  0.00  0.00    +0.153 C 
ATOM     19  F   LIG    1       23.151 -29.475   9.132  0.00  0.00    -0.238 F 
ATOM     20  C   LIG    1       23.227 -31.816   9.137  0.00  0.00    +0.154 C 
ATOM     21  C   LIG    1       22.219 -31.971  10.303  0.00  0.00    +0.044 C 
ENDROOT
BRANCH   3  22
ATOM     22  C   LIG    1       20.645 -30.627  12.629  0.00  0.00    +0.193 C 
ATOM     23  O   LIG    1       20.702 -29.395  12.577  0.00  0.00    -0.292 OA
BRANCH  22  24
ATOM     24  C   LIG    1       19.294 -31.313  12.413  0.00  0.00    +0.233 C 
BRANCH  24  25
ATOM     25  O   LIG    1       18.646 -30.900  11.216  0.00  0.00    -0.387 OA
ATOM     26  H   LIG    1       19.113 -30.093  10.920  0.00  0.00    +0.210 HD
ENDBRANCH  24  25
ENDBRANCH  22  24
ENDBRANCH   3  22
BRANCH   3  27
ATOM     27  O   LIG    1       21.398 -32.820  13.362  0.00  0.00    -0.378 OA
ATOM     28  H   LIG    1       22.173 -33.389  13.526  0.00  0.00    +0.211 HD
ENDBRANCH   3  27
BRANCH   4  29
ATOM     29  O   LIG    1       22.143 -30.049  14.853  0.00  0.00    -0.389 OA
ATOM     30  H   LIG    1       21.680 -30.598  15.513  0.00  0.00    +0.210 HD
ENDBRANCH   4  29
BRANCH  20  31
ATOM     31  O   LIG    1       24.045 -32.980   9.056  0.00  0.00    -0.389 OA
ATOM     32  H   LIG    1       23.557 -33.649   8.544  0.00  0.00    +0.210 HD
ENDBRANCH  20  31
TORSDOF 6
ENDMDL
MODEL 8
REMARK VINA RESULT:      -4.8      1.709      2.118
REMARK  Name = *****
REMARK                            x       y       z     vdW  Elec       q    Type
REMARK                         _______ _______ _______ _____ _____    ______ ____
ROOT
ATOM      1  C   LIG    1       26.155 -31.540   7.666  0.00  0.00    +0.015 C 
ATOM      2  C   LIG    1       25.571 -30.105   7.865  0.00  0.00    +0.012 C 
ATOM      3  C   LIG    1       25.242 -29.490   6.461  0.00  0.00    +0.157 C 
ATOM      4  C   LIG    1       23.934 -30.258   6.083  0.00  0.00    +0.154 C 
ATOM      5  C   LIG    1       23.261 -30.684   7.408  0.00  0.00    +0.039 C 
ATOM      6  C   LIG    1       24.166 -30.115   8.506  0.00  0.00    +0.007 C 
ATOM      7  C   LIG    1       24.142 -30.730   9.919  0.00  0.00    +0.034 C 
ATOM      8  C   LIG    1       22.701 -30.763  10.460  0.00  0.00    +0.011 C 
ATOM      9  C   LIG    1       22.634 -31.217  11.915  0.00  0.00    +0.032 C 
ATOM     10  C   LIG    1       23.530 -30.358  12.767  0.00  0.00    -0.053 C 
ATOM     11  C   LIG    1       25.015 -30.330  12.361  0.00  0.00    +0.044 C 
ATOM     12  C   LIG    1       25.608 -31.730  12.635  0.00  0.00    +0.023 C 
ATOM     13  C   LIG    1       25.798 -29.358  13.246  0.00  0.00    -0.009 C 
ATOM     14  C   LIG    1       25.278 -28.625  14.240  0.00  0.00    +0.047 C 
ATOM     15  C   LIG    1       23.846 -28.711  14.576  0.00  0.00    +0.179 C 
ATOM     16  O   LIG    1       23.367 -28.054  15.496  0.00  0.00    -0.288 OA
ATOM     17  C   LIG    1       23.013 -29.622  13.769  0.00  0.00    +0.051 C 
ATOM     18  C   LIG    1       25.088 -29.884  10.844  0.00  0.00    +0.153 C 
ATOM     19  F   LIG    1       24.589 -28.592  10.808  0.00  0.00    -0.238 F 
ATOM     20  C   LIG    1       26.528 -29.778  10.243  0.00  0.00    +0.154 C 
ATOM     21  C   LIG    1       26.537 -29.308   8.768  0.00  0.00    +0.044 C 
ENDROOT
BRANCH   3  22
ATOM     22  C   LIG    1       25.011 -27.944   6.421  0.00  0.00    +0.193 C 
ATOM     23  O   LIG    1       23.940 -27.396   6.698  0.00  0.00    -0.292 OA
BRANCH  22  24
ATOM     24  C   LIG    1       26.203 -27.072   6.017  0.00  0.00    +0.233 C 
BRANCH  24  25
ATOM     25  O   LIG    1       26.273 -26.843   4.615  0.00  0.00    -0.387 OA
ATOM     26  H   LIG    1       27.040 -27.357   4.294  0.00  0.00    +0.210 HD
ENDBRANCH  24  25
ENDBRANCH  22  24
ENDBRANCH   3  22
BRANCH   3  27
ATOM     27  O   LIG    1       26.287 -29.815   5.538  0.00  0.00    -0.378 OA
ATOM     28  H   LIG    1       25.952 -30.508   4.939  0.00  0.00    +0.211 HD
ENDBRANCH   3  27
BRANCH   4  29
ATOM     29  O   LIG    1       23.084 -29.498   5.241  0.00  0.00    -0.389 OA
ATOM     30  H   LIG    1       22.373 -30.084   4.922  0.00  0.00    +0.210 HD
ENDBRANCH   4  29
BRANCH  20  31
ATOM     31  O   LIG    1       27.251 -31.001  10.359  0.00  0.00    -0.389 OA
ATOM     32  H   LIG    1       27.328 -31.383   9.467  0.00  0.00    +0.210 HD
ENDBRANCH  20  31
TORSDOF 6
ENDMDL
MODEL 9
REMARK VINA RESULT:      -4.8      4.489      7.392
REMARK  Name = *****
REMARK                            x       y       z     vdW  Elec       q    Type
REMARK                         _______ _______ _______ _____ _____    ______ ____
ROOT
ATOM      1  C   LIG    1       21.790 -27.153  13.044  0.00  0.00    +0.015 C 
ATOM      2  C   LIG    1       22.224 -28.547  13.601  0.00  0.00    +0.012 C 
ATOM      3  C   LIG    1       20.967 -29.481  13.673  0.00  0.00    +0.157 C 
ATOM      4  C   LIG    1       20.764 -29.848  12.167  0.00  0.00    +0.154 C 
ATOM      5  C   LIG    1       22.144 -29.724  11.482  0.00  0.00    +0.039 C 
ATOM      6  C   LIG    1       23.107 -29.337  12.611  0.00  0.00    +0.007 C 
ATOM      7  C   LIG    1       24.437 -28.633  12.280  0.00  0.00    +0.034 C 
ATOM      8  C   LIG    1       25.227 -29.449  11.241  0.00  0.00    +0.011 C 
ATOM      9  C   LIG    1       26.621 -28.883  10.990  0.00  0.00    +0.032 C 
ATOM     10  C   LIG    1       27.372 -28.761  12.290  0.00  0.00    -0.053 C 
ATOM     11  C   LIG    1       26.706 -27.887  13.368  0.00  0.00    +0.044 C 
ATOM     12  C   LIG    1       26.736 -26.422  12.877  0.00  0.00    +0.023 C 
ATOM     13  C   LIG    1       27.518 -27.914  14.664  0.00  0.00    -0.009 C 
ATOM     14  C   LIG    1       28.654 -28.601  14.851  0.00  0.00    +0.047 C 
ATOM     15  C   LIG    1       29.237 -29.411  13.767  0.00  0.00    +0.179 C 
ATOM     16  O   LIG    1       30.286 -30.030  13.927  0.00  0.00    -0.288 OA
ATOM     17  C   LIG    1       28.515 -29.445  12.481  0.00  0.00    +0.051 C 
ATOM     18  C   LIG    1       25.248 -28.454  13.613  0.00  0.00    +0.153 C 
ATOM     19  F   LIG    1       25.424 -29.733  14.118  0.00  0.00    -0.238 F 
ATOM     20  C   LIG    1       24.408 -27.704  14.697  0.00  0.00    +0.154 C 
ATOM     21  C   LIG    1       23.005 -28.324  14.914  0.00  0.00    +0.044 C 
ENDROOT
BRANCH   3  22
ATOM     22  C   LIG    1       21.113 -30.770  14.547  0.00  0.00    +0.193 C 
ATOM     23  O   LIG    1       22.095 -31.518  14.517  0.00  0.00    -0.292 OA
BRANCH  22  24
ATOM     24  C   LIG    1       19.958 -31.103  15.495  0.00  0.00    +0.233 C 
BRANCH  24  25
ATOM     25  O   LIG    1       18.747 -31.401  14.812  0.00  0.00    -0.387 OA
ATOM     26  H   LIG    1       18.074 -30.792  15.176  0.00  0.00    +0.210 HD
ENDBRANCH  24  25
ENDBRANCH  22  24
ENDBRANCH   3  22
BRANCH   3  27
ATOM     27  O   LIG    1       19.842 -28.734  14.153  0.00  0.00    -0.378 OA
ATOM     28  H   LIG    1       20.117 -28.269  14.965  0.00  0.00    +0.211 HD
ENDBRANCH   3  27
BRANCH   4  29
ATOM     29  O   LIG    1       20.166 -31.122  11.997  0.00  0.00    -0.389 OA
ATOM     30  H   LIG    1       20.869 -31.795  12.048  0.00  0.00    +0.210 HD
ENDBRANCH   4  29
BRANCH  20  31
ATOM     31  O   LIG    1       24.276 -26.314  14.408  0.00  0.00    -0.389 OA
ATOM     32  H   LIG    1       23.375 -26.045  14.662  0.00  0.00    +0.210 HD
ENDBRANCH  20  31
TORSDOF 6
ENDMDL
