MODEL 1
REMARK VINA RESULT:       7.2      0.000      0.000
REMARK  Name = *****
REMARK                            x       y       z     vdW  Elec       q    Type
REMARK                         _______ _______ _______ _____ _____    ______ ____
ROOT
ATOM      1  C   LIG    1       25.626 -15.432   3.788  0.00  0.00    -0.007 A 
ATOM      2  C   LIG    1       26.139 -16.683   3.436  0.00  0.00    +0.010 A 
ATOM      3  C   LIG    1       25.337 -17.819   3.562  0.00  0.00    +0.010 A 
ATOM      4  C   LIG    1       24.021 -17.697   4.024  0.00  0.00    -0.007 A 
ATOM      5  C   LIG    1       23.503 -16.439   4.354  0.00  0.00    +0.010 A 
ATOM      6  C   LIG    1       24.310 -15.305   4.242  0.00  0.00    +0.010 A 
ENDROOT
BRANCH   1   8
ATOM      7  N   LIG    1       26.151 -13.104   4.151  0.00  0.00    -0.276 NA
ATOM      8  C   LIG    1       26.503 -14.253   3.680  0.00  0.00    +0.113 C 
BRANCH   7  11
ATOM      9  O   LIG    1       28.352 -12.520   6.025  0.00  0.00    -0.271 OA
ATOM     10  C   LIG    1       28.354 -12.224   4.841  0.00  0.00    +0.263 C 
ATOM     11  C   LIG    1       27.155 -12.049   3.945  0.00  0.00    +0.220 C 
ATOM     12  C   LIG    1       27.815 -12.214   2.586  0.00  0.00    +0.226 C 
ATOM     13  O   LIG    1       29.183 -11.805   2.726  0.00  0.00    -0.277 OA
ATOM     14  N   LIG    1       29.475 -11.924   4.105  0.00  0.00    -0.193 N 
ATOM     15  H   LIG    1       30.407 -12.173   4.405  0.00  0.00    +0.182 HD
ENDBRANCH   7  11
ENDBRANCH   1   8
BRANCH   4  16
ATOM     16  C   LIG    1       23.190 -18.915   4.136  0.00  0.00    +0.113 C 
ATOM     17  N   LIG    1       23.667 -20.090   3.904  0.00  0.00    -0.276 NA
BRANCH  17  18
ATOM     18  C   LIG    1       22.725 -21.205   4.125  0.00  0.00    +0.220 C 
ATOM     19  C   LIG    1       22.291 -21.355   5.559  0.00  0.00    +0.263 C 
ATOM     20  O   LIG    1       23.008 -21.363   6.546  0.00  0.00    -0.271 OA
ATOM     21  N   LIG    1       20.937 -21.571   5.576  0.00  0.00    -0.193 N 
ATOM     22  H   LIG    1       20.373 -21.549   6.415  0.00  0.00    +0.182 HD
ATOM     23  O   LIG    1       20.342 -21.377   4.314  0.00  0.00    -0.277 OA
ATOM     24  C   LIG    1       21.388 -20.899   3.457  0.00  0.00    +0.226 C 
ENDBRANCH  17  18
ENDBRANCH   4  16
TORSDOF 4
ENDMDL
MODEL 2
REMARK VINA RESULT:       7.2      0.205      9.049
REMARK  Name = *****
REMARK                            x       y       z     vdW  Elec       q    Type
REMARK                         _______ _______ _______ _____ _____    ______ ____
ROOT
ATOM      1  C   LIG    1       24.159 -17.822   3.934  0.00  0.00    -0.007 A 
ATOM      2  C   LIG    1       23.686 -16.599   4.417  0.00  0.00    +0.010 A 
ATOM      3  C   LIG    1       24.503 -15.468   4.354  0.00  0.00    +0.010 A 
ATOM      4  C   LIG    1       25.783 -15.562   3.795  0.00  0.00    -0.007 A 
ATOM      5  C   LIG    1       26.245 -16.784   3.292  0.00  0.00    +0.010 A 
ATOM      6  C   LIG    1       25.434 -17.918   3.369  0.00  0.00    +0.010 A 
ENDROOT
BRANCH   1   8
ATOM      7  N   LIG    1       23.784 -20.200   4.101  0.00  0.00    -0.276 NA
ATOM      8  C   LIG    1       23.293 -19.007   4.045  0.00  0.00    +0.113 C 
BRANCH   7  11
ATOM      9  O   LIG    1       22.809 -21.323   6.649  0.00  0.00    -0.271 OA
ATOM     10  C   LIG    1       22.193 -21.358   5.596  0.00  0.00    +0.263 C 
ATOM     11  C   LIG    1       22.763 -21.254   4.205  0.00  0.00    +0.220 C 
ATOM     12  C   LIG    1       21.514 -20.848   3.439  0.00  0.00    +0.226 C 
ATOM     13  O   LIG    1       20.388 -21.373   4.156  0.00  0.00    -0.277 OA
ATOM     14  N   LIG    1       20.841 -21.571   5.481  0.00  0.00    -0.193 N 
ATOM     15  H   LIG    1       20.203 -21.459   6.257  0.00  0.00    +0.182 HD
ENDBRANCH   7  11
ENDBRANCH   1   8
BRANCH   4  16
ATOM     16  C   LIG    1       26.623 -14.346   3.729  0.00  0.00    +0.113 C 
ATOM     17  N   LIG    1       26.189 -13.196   4.120  0.00  0.00    -0.276 NA
BRANCH  17  18
ATOM     18  C   LIG    1       27.174 -12.098   4.051  0.00  0.00    +0.220 C 
ATOM     19  C   LIG    1       28.301 -12.233   5.040  0.00  0.00    +0.263 C 
ATOM     20  O   LIG    1       28.208 -12.483   6.231  0.00  0.00    -0.271 OA
ATOM     21  N   LIG    1       29.475 -11.941   4.393  0.00  0.00    -0.193 N 
ATOM     22  H   LIG    1       30.391 -12.108   4.786  0.00  0.00    +0.182 HD
ATOM     23  O   LIG    1       29.310 -11.821   2.999  0.00  0.00    -0.277 OA
ATOM     24  C   LIG    1       27.943 -12.169   2.735  0.00  0.00    +0.226 C 
ENDBRANCH  17  18
ENDBRANCH   4  16
TORSDOF 4
ENDMDL
