MODEL 1
REMARK VINA RESULT:      -7.2      0.000      0.000
REMARK  Name = *****
REMARK                            x       y       z     vdW  Elec       q    Type
REMARK                         _______ _______ _______ _____ _____    ______ ____
ROOT
ATOM      1  C   LIG    1       24.913 -30.273   6.514  0.00  0.00    +0.162 A 
ATOM      2  C   LIG    1       24.317 -29.509   7.529  0.00  0.00    +0.162 A 
ATOM      3  C   LIG    1       24.455 -28.108   7.501  0.00  0.00    +0.054 A 
ATOM      4  C   LIG    1       25.122 -27.449   6.448  0.00  0.00    -0.023 A 
ATOM      5  C   LIG    1       25.092 -25.929   6.355  0.00  0.00    +0.091 C 
ATOM      6  N   LIG    1       25.629 -25.348   5.117  0.00  0.00    -0.295 NA
ATOM      7  C   LIG    1       25.530 -26.207   3.937  0.00  0.00    +0.089 C 
ATOM      8  C   LIG    1       26.171 -27.578   4.161  0.00  0.00    +0.051 C 
ATOM      9  C   LIG    1       25.030 -24.026   4.869  0.00  0.00    +0.092 C 
ATOM     10  C   LIG    1       24.771 -23.178   6.143  0.00  0.00    +0.044 C 
ATOM     11  C   LIG    1       25.722 -23.624   7.301  0.00  0.00    +0.182 C 
ATOM     12  C   LIG    1       25.812 -25.168   7.488  0.00  0.00    +0.068 C 
ATOM     13  C   LIG    1       25.634 -28.230   5.404  0.00  0.00    -0.038 A 
ATOM     14  C   LIG    1       25.595 -29.628   5.480  0.00  0.00    +0.053 A 
ENDROOT
BRANCH   1  16
ATOM     15  C   LIG    1       23.720 -32.268   5.985  0.00  0.00    +0.277 C 
ATOM     16  O   LIG    1       24.842 -31.636   6.578  0.00  0.00    -0.491 OA
ENDBRANCH   1  16
BRANCH   2  17
ATOM     17  O   LIG    1       23.550 -29.973   8.573  0.00  0.00    -0.491 OA
ATOM     18  C   LIG    1       24.216 -30.232   9.807  0.00  0.00    +0.277 C 
ENDBRANCH   2  17
BRANCH  10  19
ATOM     19  C   LIG    1       23.268 -23.131   6.600  0.00  0.00    +0.011 C 
BRANCH  19  20
ATOM     20  C   LIG    1       22.554 -21.746   6.597  0.00  0.00    -0.017 C 
ATOM     21  C   LIG    1       22.207 -21.225   5.202  0.00  0.00    +0.007 C 
ATOM     22  C   LIG    1       23.399 -20.672   7.306  0.00  0.00    +0.007 C 
ENDBRANCH  19  20
ENDBRANCH  10  19
BRANCH  11  23
ATOM     23  O   LIG    1       27.047 -23.075   7.024  0.00  0.00    -0.460 OA
BRANCH  23  24
ATOM     24  C   LIG    1       27.365 -21.879   7.613  0.00  0.00    +0.325 C 
ATOM     25  O   LIG    1       26.977 -21.526   8.709  0.00  0.00    -0.249 OA
BRANCH  24  26
ATOM     26  C   LIG    1       28.262 -20.989   6.698  0.00  0.00    +0.163 C 
BRANCH  26  27
ATOM     27  C   LIG    1       29.145 -19.981   7.472  0.00  0.00    +0.011 C 
ATOM     28  C   LIG    1       29.619 -18.817   6.595  0.00  0.00    +0.009 C 
ATOM     29  C   LIG    1       30.371 -20.640   8.118  0.00  0.00    +0.009 C 
ENDBRANCH  26  27
BRANCH  26  30
ATOM     30  N   LIG    1       27.415 -20.298   5.689  0.00  0.00    -0.318 NA
ATOM     31  H   LIG    1       28.004 -19.633   5.182  0.00  0.00    +0.119 HD
ATOM     32  H   LIG    1       27.134 -20.976   4.979  0.00  0.00    +0.119 HD
ENDBRANCH  26  30
ENDBRANCH  24  26
ENDBRANCH  23  24
ENDBRANCH  11  23
TORSDOF 9
ENDMDL
MODEL 2
REMARK VINA RESULT:      -6.8      3.003      8.358
REMARK  Name = *****
REMARK                            x       y       z     vdW  Elec       q    Type
REMARK                         _______ _______ _______ _____ _____    ______ ____
ROOT
ATOM      1  C   LIG    1       29.953 -19.227   6.938  0.00  0.00    +0.162 A 
ATOM      2  C   LIG    1       29.179 -18.879   5.820  0.00  0.00    +0.162 A 
ATOM      3  C   LIG    1       27.901 -19.450   5.669  0.00  0.00    +0.054 A 
ATOM      4  C   LIG    1       27.354 -20.311   6.642  0.00  0.00    -0.023 A 
ATOM      5  C   LIG    1       25.902 -20.761   6.537  0.00  0.00    +0.091 C 
ATOM      6  N   LIG    1       25.363 -21.478   7.700  0.00  0.00    -0.295 NA
ATOM      7  C   LIG    1       25.987 -21.137   8.979  0.00  0.00    +0.089 C 
ATOM      8  C   LIG    1       27.507 -21.312   8.949  0.00  0.00    +0.051 C 
ATOM      9  C   LIG    1       23.899 -21.328   7.762  0.00  0.00    +0.092 C 
ATOM     10  C   LIG    1       23.186 -21.322   6.383  0.00  0.00    +0.044 C 
ATOM     11  C   LIG    1       24.054 -22.063   5.313  0.00  0.00    +0.182 C 
ATOM     12  C   LIG    1       25.559 -21.661   5.331  0.00  0.00    +0.068 C 
ATOM     13  C   LIG    1       28.113 -20.573   7.789  0.00  0.00    -0.038 A 
ATOM     14  C   LIG    1       29.425 -20.096   7.894  0.00  0.00    +0.053 A 
ENDROOT
BRANCH   1  16
ATOM     15  C   LIG    1       31.694 -18.412   8.348  0.00  0.00    +0.277 C 
ATOM     16  O   LIG    1       31.221 -18.731   7.050  0.00  0.00    -0.491 OA
ENDBRANCH   1  16
BRANCH   2  17
ATOM     17  O   LIG    1       29.512 -17.985   4.827  0.00  0.00    -0.491 OA
ATOM     18  C   LIG    1       28.513 -17.048   4.431  0.00  0.00    +0.277 C 
ENDBRANCH   2  17
BRANCH  10  19
ATOM     19  C   LIG    1       22.730 -19.902   5.890  0.00  0.00    +0.011 C 
BRANCH  19  20
ATOM     20  C   LIG    1       22.682 -19.650   4.354  0.00  0.00    -0.017 C 
ATOM     21  C   LIG    1       23.935 -18.978   3.791  0.00  0.00    +0.007 C 
ATOM     22  C   LIG    1       21.466 -18.792   3.959  0.00  0.00    +0.007 C 
ENDBRANCH  19  20
ENDBRANCH  10  19
BRANCH  11  23
ATOM     23  O   LIG    1       23.917 -23.498   5.547  0.00  0.00    -0.460 OA
BRANCH  23  24
ATOM     24  C   LIG    1       24.844 -24.319   4.960  0.00  0.00    +0.325 C 
ATOM     25  O   LIG    1       24.902 -24.554   3.769  0.00  0.00    -0.249 OA
BRANCH  24  26
ATOM     26  C   LIG    1       25.811 -24.961   6.004  0.00  0.00    +0.163 C 
BRANCH  26  27
ATOM     27  C   LIG    1       25.726 -26.504   6.073  0.00  0.00    +0.011 C 
ATOM     28  C   LIG    1       26.487 -27.188   4.932  0.00  0.00    +0.009 C 
ATOM     29  C   LIG    1       24.280 -27.020   6.077  0.00  0.00    +0.009 C 
ENDBRANCH  26  27
BRANCH  26  30
ATOM     30  N   LIG    1       25.577 -24.350   7.340  0.00  0.00    -0.318 NA
ATOM     31  H   LIG    1       25.705 -23.339   7.253  0.00  0.00    +0.119 HD
ATOM     32  H   LIG    1       24.590 -24.458   7.580  0.00  0.00    +0.119 HD
ENDBRANCH  26  30
ENDBRANCH  24  26
ENDBRANCH  23  24
ENDBRANCH  11  23
TORSDOF 9
ENDMDL
MODEL 3
REMARK VINA RESULT:      -6.2      2.472      5.331
REMARK  Name = *****
REMARK                            x       y       z     vdW  Elec       q    Type
REMARK                         _______ _______ _______ _____ _____    ______ ____
ROOT
ATOM      1  C   LIG    1       24.666 -26.878   5.858  0.00  0.00    +0.162 A 
ATOM      2  C   LIG    1       25.982 -26.392   5.814  0.00  0.00    +0.162 A 
ATOM      3  C   LIG    1       26.207 -25.011   5.966  0.00  0.00    +0.054 A 
ATOM      4  C   LIG    1       25.152 -24.112   6.224  0.00  0.00    -0.023 A 
ATOM      5  C   LIG    1       25.451 -22.658   6.565  0.00  0.00    +0.091 C 
ATOM      6  N   LIG    1       24.310 -21.855   7.024  0.00  0.00    -0.295 NA
ATOM      7  C   LIG    1       23.248 -22.613   7.687  0.00  0.00    +0.089 C 
ATOM      8  C   LIG    1       22.729 -23.764   6.823  0.00  0.00    +0.051 C 
ATOM      9  C   LIG    1       24.773 -20.737   7.863  0.00  0.00    +0.092 C 
ATOM     10  C   LIG    1       26.114 -20.097   7.414  0.00  0.00    +0.044 C 
ATOM     11  C   LIG    1       26.359 -20.349   5.890  0.00  0.00    +0.182 C 
ATOM     12  C   LIG    1       26.092 -21.817   5.441  0.00  0.00    +0.068 C 
ATOM     13  C   LIG    1       23.859 -24.635   6.348  0.00  0.00    -0.038 A 
ATOM     14  C   LIG    1       23.615 -25.990   6.092  0.00  0.00    +0.053 A 
ENDROOT
BRANCH   1  16
ATOM     15  C   LIG    1       24.425 -29.069   6.765  0.00  0.00    +0.277 C 
ATOM     16  O   LIG    1       24.440 -28.207   5.639  0.00  0.00    -0.491 OA
ENDBRANCH   1  16
BRANCH   2  17
ATOM     17  O   LIG    1       27.134 -27.132   5.671  0.00  0.00    -0.491 OA
ATOM     18  C   LIG    1       27.524 -27.483   4.345  0.00  0.00    +0.277 C 
ENDBRANCH   2  17
BRANCH  10  19
ATOM     19  C   LIG    1       27.356 -20.506   8.286  0.00  0.00    +0.011 C 
BRANCH  19  20
ATOM     20  C   LIG    1       28.762 -20.437   7.619  0.00  0.00    -0.017 C 
ATOM     21  C   LIG    1       29.771 -21.438   8.184  0.00  0.00    +0.007 C 
ATOM     22  C   LIG    1       29.375 -19.030   7.736  0.00  0.00    +0.007 C 
ENDBRANCH  19  20
ENDBRANCH  10  19
BRANCH  11  23
ATOM     23  O   LIG    1       25.500 -19.434   5.145  0.00  0.00    -0.460 OA
BRANCH  23  24
ATOM     24  C   LIG    1       25.293 -19.709   3.818  0.00  0.00    +0.325 C 
ATOM     25  O   LIG    1       26.148 -19.634   2.958  0.00  0.00    -0.249 OA
BRANCH  24  26
ATOM     26  C   LIG    1       23.812 -20.099   3.519  0.00  0.00    +0.163 C 
BRANCH  26  27
ATOM     27  C   LIG    1       22.832 -19.778   4.672  0.00  0.00    +0.011 C 
ATOM     28  C   LIG    1       21.746 -20.846   4.837  0.00  0.00    +0.009 C 
ATOM     29  C   LIG    1       22.155 -18.409   4.511  0.00  0.00    +0.009 C 
ENDBRANCH  26  27
BRANCH  26  30
ATOM     30  N   LIG    1       23.743 -21.535   3.139  0.00  0.00    -0.318 NA
ATOM     31  H   LIG    1       24.443 -22.042   3.685  0.00  0.00    +0.119 HD
ATOM     32  H   LIG    1       22.851 -21.915   3.460  0.00  0.00    +0.119 HD
ENDBRANCH  26  30
ENDBRANCH  24  26
ENDBRANCH  23  24
ENDBRANCH  11  23
TORSDOF 9
ENDMDL
MODEL 4
REMARK VINA RESULT:      -6.2      4.019      8.180
REMARK  Name = *****
REMARK                            x       y       z     vdW  Elec       q    Type
REMARK                         _______ _______ _______ _____ _____    ______ ____
ROOT
ATOM      1  C   LIG    1       20.622 -29.719  12.895  0.00  0.00    +0.162 A 
ATOM      2  C   LIG    1       20.515 -30.638  11.840  0.00  0.00    +0.162 A 
ATOM      3  C   LIG    1       21.581 -30.758  10.927  0.00  0.00    +0.054 A 
ATOM      4  C   LIG    1       22.776 -30.027  11.081  0.00  0.00    -0.023 A 
ATOM      5  C   LIG    1       23.973 -30.318  10.186  0.00  0.00    +0.091 C 
ATOM      6  N   LIG    1       25.233 -29.660  10.558  0.00  0.00    -0.295 NA
ATOM      7  C   LIG    1       25.375 -29.360  11.983  0.00  0.00    +0.089 C 
ATOM      8  C   LIG    1       24.205 -28.535  12.523  0.00  0.00    +0.051 C 
ATOM      9  C   LIG    1       26.382 -30.431  10.056  0.00  0.00    +0.092 C 
ATOM     10  C   LIG    1       26.167 -31.093   8.669  0.00  0.00    +0.044 C 
ATOM     11  C   LIG    1       25.068 -30.328   7.860  0.00  0.00    +0.182 C 
ATOM     12  C   LIG    1       23.792 -29.993   8.688  0.00  0.00    +0.068 C 
ATOM     13  C   LIG    1       22.889 -29.181  12.192  0.00  0.00    -0.038 A 
ATOM     14  C   LIG    1       21.795 -28.975  13.041  0.00  0.00    +0.053 A 
ENDROOT
BRANCH   1  16
ATOM     15  C   LIG    1       19.792 -28.866  14.960  0.00  0.00    +0.277 C 
ATOM     16  O   LIG    1       19.562 -29.548  13.739  0.00  0.00    -0.491 OA
ENDBRANCH   1  16
BRANCH   2  17
ATOM     17  O   LIG    1       19.470 -31.499  11.594  0.00  0.00    -0.491 OA
ATOM     18  C   LIG    1       18.985 -31.573  10.255  0.00  0.00    +0.277 C 
ENDBRANCH   2  17
BRANCH  10  19
ATOM     19  C   LIG    1       25.891 -32.639   8.719  0.00  0.00    +0.011 C 
BRANCH  19  20
ATOM     20  C   LIG    1       26.352 -33.496   7.502  0.00  0.00    -0.017 C 
ATOM     21  C   LIG    1       27.531 -32.903   6.731  0.00  0.00    +0.007 C 
ATOM     22  C   LIG    1       25.202 -33.728   6.505  0.00  0.00    +0.007 C 
ENDBRANCH  19  20
ENDBRANCH  10  19
BRANCH  11  23
ATOM     23  O   LIG    1       25.669 -29.099   7.348  0.00  0.00    -0.460 OA
BRANCH  23  24
ATOM     24  C   LIG    1       24.911 -28.340   6.495  0.00  0.00    +0.325 C 
ATOM     25  O   LIG    1       24.058 -28.783   5.751  0.00  0.00    -0.249 OA
BRANCH  24  26
ATOM     26  C   LIG    1       25.289 -26.827   6.554  0.00  0.00    +0.163 C 
BRANCH  26  27
ATOM     27  C   LIG    1       24.355 -25.913   5.726  0.00  0.00    +0.011 C 
ATOM     28  C   LIG    1       25.066 -25.270   4.531  0.00  0.00    +0.009 C 
ATOM     29  C   LIG    1       23.711 -24.803   6.569  0.00  0.00    +0.009 C 
ENDBRANCH  26  27
BRANCH  26  30
ATOM     30  N   LIG    1       26.709 -26.653   6.149  0.00  0.00    -0.318 NA
ATOM     31  H   LIG    1       26.737 -25.997   5.364  0.00  0.00    +0.119 HD
ATOM     32  H   LIG    1       27.205 -26.167   6.898  0.00  0.00    +0.119 HD
ENDBRANCH  26  30
ENDBRANCH  24  26
ENDBRANCH  23  24
ENDBRANCH  11  23
TORSDOF 9
ENDMDL
MODEL 5
REMARK VINA RESULT:      -6.1      3.763      7.776
REMARK  Name = *****
REMARK                            x       y       z     vdW  Elec       q    Type
REMARK                         _______ _______ _______ _____ _____    ______ ____
ROOT
ATOM      1  C   LIG    1       23.135 -28.801  13.111  0.00  0.00    +0.162 A 
ATOM      2  C   LIG    1       22.287 -29.452  12.202  0.00  0.00    +0.162 A 
ATOM      3  C   LIG    1       22.805 -29.868  10.961  0.00  0.00    +0.054 A 
ATOM      4  C   LIG    1       24.166 -29.705  10.633  0.00  0.00    -0.023 A 
ATOM      5  C   LIG    1       24.729 -30.331   9.364  0.00  0.00    +0.091 C 
ATOM      6  N   LIG    1       26.190 -30.288   9.215  0.00  0.00    -0.295 NA
ATOM      7  C   LIG    1       26.937 -30.261  10.473  0.00  0.00    +0.089 C 
ATOM      8  C   LIG    1       26.497 -29.115  11.386  0.00  0.00    +0.051 C 
ATOM      9  C   LIG    1       26.649 -31.382   8.343  0.00  0.00    +0.092 C 
ATOM     10  C   LIG    1       25.702 -31.713   7.159  0.00  0.00    +0.044 C 
ATOM     11  C   LIG    1       24.820 -30.473   6.798  0.00  0.00    +0.182 C 
ATOM     12  C   LIG    1       24.186 -29.767   8.033  0.00  0.00    +0.068 C 
ATOM     13  C   LIG    1       25.008 -29.129  11.593  0.00  0.00    -0.038 A 
ATOM     14  C   LIG    1       24.480 -28.616  12.783  0.00  0.00    +0.053 A 
ENDROOT
BRANCH   1  16
ATOM     15  C   LIG    1       21.855 -27.137  14.241  0.00  0.00    +0.277 C 
ATOM     16  O   LIG    1       22.618 -28.332  14.285  0.00  0.00    -0.491 OA
ENDBRANCH   1  16
BRANCH   2  17
ATOM     17  O   LIG    1       20.964 -29.782  12.393  0.00  0.00    -0.491 OA
ATOM     18  C   LIG    1       20.330 -30.553  11.376  0.00  0.00    +0.277 C 
ENDBRANCH   2  17
BRANCH  10  19
ATOM     19  C   LIG    1       24.838 -33.011   7.358  0.00  0.00    +0.011 C 
BRANCH  19  20
ATOM     20  C   LIG    1       24.452 -33.825   6.087  0.00  0.00    -0.017 C 
ATOM     21  C   LIG    1       25.395 -33.616   4.901  0.00  0.00    +0.007 C 
ATOM     22  C   LIG    1       23.023 -33.498   5.618  0.00  0.00    +0.007 C 
ENDBRANCH  19  20
ENDBRANCH  10  19
BRANCH  11  23
ATOM     23  O   LIG    1       25.658 -29.532   6.060  0.00  0.00    -0.460 OA
BRANCH  23  24
ATOM     24  C   LIG    1       25.082 -28.351   5.670  0.00  0.00    +0.325 C 
ATOM     25  O   LIG    1       24.016 -28.263   5.094  0.00  0.00    -0.249 OA
BRANCH  24  26
ATOM     26  C   LIG    1       25.969 -27.116   6.017  0.00  0.00    +0.163 C 
BRANCH  26  27
ATOM     27  C   LIG    1       25.202 -25.773   6.022  0.00  0.00    +0.011 C 
ATOM     28  C   LIG    1       25.038 -25.182   4.618  0.00  0.00    +0.009 C 
ATOM     29  C   LIG    1       25.858 -24.718   6.924  0.00  0.00    +0.009 C 
ENDBRANCH  26  27
BRANCH  26  30
ATOM     30  N   LIG    1       27.135 -27.066   5.095  0.00  0.00    -0.318 NA
ATOM     31  H   LIG    1       26.851 -27.474   4.202  0.00  0.00    +0.119 HD
ATOM     32  H   LIG    1       27.333 -26.089   4.873  0.00  0.00    +0.119 HD
ENDBRANCH  26  30
ENDBRANCH  24  26
ENDBRANCH  23  24
ENDBRANCH  11  23
TORSDOF 9
ENDMDL
MODEL 6
REMARK VINA RESULT:      -6.1      5.180      9.722
REMARK  Name = *****
REMARK                            x       y       z     vdW  Elec       q    Type
REMARK                         _______ _______ _______ _____ _____    ______ ____
ROOT
ATOM      1  C   LIG    1       19.294 -27.662  14.394  0.00  0.00    +0.162 A 
ATOM      2  C   LIG    1       19.209 -29.008  14.006  0.00  0.00    +0.162 A 
ATOM      3  C   LIG    1       20.244 -29.562  13.229  0.00  0.00    +0.054 A 
ATOM      4  C   LIG    1       21.391 -28.820  12.884  0.00  0.00    -0.023 A 
ATOM      5  C   LIG    1       22.570 -29.504  12.204  0.00  0.00    +0.091 C 
ATOM      6  N   LIG    1       23.795 -28.704  12.077  0.00  0.00    -0.295 NA
ATOM      7  C   LIG    1       23.972 -27.678  13.106  0.00  0.00    +0.089 C 
ATOM      8  C   LIG    1       22.771 -26.735  13.199  0.00  0.00    +0.051 C 
ATOM      9  C   LIG    1       24.974 -29.581  11.989  0.00  0.00    +0.092 C 
ATOM     10  C   LIG    1       24.751 -30.894  11.191  0.00  0.00    +0.044 C 
ATOM     11  C   LIG    1       23.573 -30.726  10.176  0.00  0.00    +0.182 C 
ATOM     12  C   LIG    1       22.309 -30.045  10.782  0.00  0.00    +0.068 C 
ATOM     13  C   LIG    1       21.490 -27.505  13.357  0.00  0.00    -0.038 A 
ATOM     14  C   LIG    1       20.418 -26.915  14.037  0.00  0.00    +0.053 A 
ENDROOT
BRANCH   1  16
ATOM     15  C   LIG    1       17.296 -26.363  14.353  0.00  0.00    +0.277 C 
ATOM     16  O   LIG    1       18.257 -27.102  15.086  0.00  0.00    -0.491 OA
ENDBRANCH   1  16
BRANCH   2  17
ATOM     17  O   LIG    1       18.216 -29.903  14.333  0.00  0.00    -0.491 OA
ATOM     18  C   LIG    1       17.753 -30.772  13.301  0.00  0.00    +0.277 C 
ENDBRANCH   2  17
BRANCH  10  19
ATOM     19  C   LIG    1       24.584 -32.178  12.081  0.00  0.00    +0.011 C 
BRANCH  19  20
ATOM     20  C   LIG    1       24.860 -32.041  13.608  0.00  0.00    -0.017 C 
ATOM     21  C   LIG    1       25.858 -33.062  14.156  0.00  0.00    +0.007 C 
ATOM     22  C   LIG    1       23.564 -32.157  14.430  0.00  0.00    +0.007 C 
ENDBRANCH  19  20
ENDBRANCH  10  19
BRANCH  11  23
ATOM     23  O   LIG    1       24.068 -29.946   9.045  0.00  0.00    -0.460 OA
BRANCH  23  24
ATOM     24  C   LIG    1       23.958 -30.509   7.801  0.00  0.00    +0.325 C 
ATOM     25  O   LIG    1       23.568 -31.640   7.588  0.00  0.00    -0.249 OA
BRANCH  24  26
ATOM     26  C   LIG    1       24.427 -29.542   6.670  0.00  0.00    +0.163 C 
BRANCH  26  27
ATOM     27  C   LIG    1       24.673 -28.091   7.146  0.00  0.00    +0.011 C 
ATOM     28  C   LIG    1       24.306 -27.050   6.083  0.00  0.00    +0.009 C 
ATOM     29  C   LIG    1       26.123 -27.849   7.589  0.00  0.00    +0.009 C 
ENDBRANCH  26  27
BRANCH  26  30
ATOM     30  N   LIG    1       23.454 -29.581   5.545  0.00  0.00    -0.318 NA
ATOM     31  H   LIG    1       22.529 -29.782   5.933  0.00  0.00    +0.119 HD
ATOM     32  H   LIG    1       23.364 -28.639   5.160  0.00  0.00    +0.119 HD
ENDBRANCH  26  30
ENDBRANCH  24  26
ENDBRANCH  23  24
ENDBRANCH  11  23
TORSDOF 9
ENDMDL
MODEL 7
REMARK VINA RESULT:      -5.9      5.672      9.422
REMARK  Name = *****
REMARK                            x       y       z     vdW  Elec       q    Type
REMARK                         _______ _______ _______ _____ _____    ______ ____
ROOT
ATOM      1  C   LIG    1       25.435 -31.080   5.957  0.00  0.00    +0.162 A 
ATOM      2  C   LIG    1       24.858 -29.846   6.296  0.00  0.00    +0.162 A 
ATOM      3  C   LIG    1       24.314 -29.677   7.583  0.00  0.00    +0.054 A 
ATOM      4  C   LIG    1       24.390 -30.690   8.561  0.00  0.00    -0.023 A 
ATOM      5  C   LIG    1       23.959 -30.407   9.993  0.00  0.00    +0.091 C 
ATOM      6  N   LIG    1       24.272 -31.449  10.980  0.00  0.00    -0.295 NA
ATOM      7  C   LIG    1       25.441 -32.269  10.662  0.00  0.00    +0.089 C 
ATOM      8  C   LIG    1       25.341 -32.911   9.276  0.00  0.00    +0.051 C 
ATOM      9  C   LIG    1       24.379 -30.865  12.327  0.00  0.00    +0.092 C 
ATOM     10  C   LIG    1       23.379 -29.715  12.620  0.00  0.00    +0.044 C 
ATOM     11  C   LIG    1       22.121 -29.833  11.697  0.00  0.00    +0.182 C 
ATOM     12  C   LIG    1       22.459 -30.111  10.202  0.00  0.00    +0.068 C 
ATOM     13  C   LIG    1       25.048 -31.880   8.223  0.00  0.00    -0.038 A 
ATOM     14  C   LIG    1       25.494 -32.095   6.913  0.00  0.00    +0.053 A 
ENDROOT
BRANCH   1  16
ATOM     15  C   LIG    1       25.998 -32.604   4.212  0.00  0.00    +0.277 C 
ATOM     16  O   LIG    1       25.898 -31.271   4.686  0.00  0.00    -0.491 OA
ENDBRANCH   1  16
BRANCH   2  17
ATOM     17  O   LIG    1       24.785 -28.721   5.507  0.00  0.00    -0.491 OA
ATOM     18  C   LIG    1       24.467 -27.490   6.152  0.00  0.00    +0.277 C 
ENDBRANCH   2  17
BRANCH  10  19
ATOM     19  C   LIG    1       24.008 -28.275  12.577  0.00  0.00    +0.011 C 
BRANCH  19  20
ATOM     20  C   LIG    1       23.455 -27.214  13.574  0.00  0.00    -0.017 C 
ATOM     21  C   LIG    1       22.069 -26.679  13.213  0.00  0.00    +0.007 C 
ATOM     22  C   LIG    1       24.407 -26.011  13.706  0.00  0.00    +0.007 C 
ENDBRANCH  19  20
ENDBRANCH  10  19
BRANCH  11  23
ATOM     23  O   LIG    1       21.280 -30.902  12.228  0.00  0.00    -0.460 OA
BRANCH  23  24
ATOM     24  C   LIG    1       20.024 -30.557  12.655  0.00  0.00    +0.325 C 
ATOM     25  O   LIG    1       19.791 -29.711  13.497  0.00  0.00    -0.249 OA
BRANCH  24  26
ATOM     26  C   LIG    1       18.910 -31.402  11.963  0.00  0.00    +0.163 C 
BRANCH  26  27
ATOM     27  C   LIG    1       19.086 -31.541  10.433  0.00  0.00    +0.011 C 
ATOM     28  C   LIG    1       17.842 -31.102   9.653  0.00  0.00    +0.009 C 
ATOM     29  C   LIG    1       19.455 -32.969  10.005  0.00  0.00    +0.009 C 
ENDBRANCH  26  27
BRANCH  26  30
ATOM     30  N   LIG    1       17.575 -30.839  12.302  0.00  0.00    -0.318 NA
ATOM     31  H   LIG    1       17.132 -31.461  12.982  0.00  0.00    +0.119 HD
ATOM     32  H   LIG    1       17.710 -29.965  12.812  0.00  0.00    +0.119 HD
ENDBRANCH  26  30
ENDBRANCH  24  26
ENDBRANCH  23  24
ENDBRANCH  11  23
TORSDOF 9
ENDMDL
MODEL 8
REMARK VINA RESULT:      -5.7      5.755      8.930
REMARK  Name = *****
REMARK                            x       y       z     vdW  Elec       q    Type
REMARK                         _______ _______ _______ _____ _____    ______ ____
ROOT
ATOM      1  C   LIG    1       25.358 -31.330   5.731  0.00  0.00    +0.162 A 
ATOM      2  C   LIG    1       24.918 -30.052   6.109  0.00  0.00    +0.162 A 
ATOM      3  C   LIG    1       24.510 -29.834   7.438  0.00  0.00    +0.054 A 
ATOM      4  C   LIG    1       24.591 -30.848   8.415  0.00  0.00    -0.023 A 
ATOM      5  C   LIG    1       24.317 -30.526   9.878  0.00  0.00    +0.091 C 
ATOM      6  N   LIG    1       24.632 -31.588  10.842  0.00  0.00    -0.295 NA
ATOM      7  C   LIG    1       25.695 -32.504  10.428  0.00  0.00    +0.089 C 
ATOM      8  C   LIG    1       25.416 -33.138   9.064  0.00  0.00    +0.051 C 
ATOM      9  C   LIG    1       24.909 -31.011  12.168  0.00  0.00    +0.092 C 
ATOM     10  C   LIG    1       24.038 -29.782  12.539  0.00  0.00    +0.044 C 
ATOM     11  C   LIG    1       22.696 -29.797  11.736  0.00  0.00    +0.182 C 
ATOM     12  C   LIG    1       22.872 -30.106  10.219  0.00  0.00    +0.068 C 
ATOM     13  C   LIG    1       25.114 -32.089   8.030  0.00  0.00    -0.038 A 
ATOM     14  C   LIG    1       25.420 -32.344   6.688  0.00  0.00    +0.053 A 
ENDROOT
BRANCH   1  16
ATOM     15  C   LIG    1       26.022 -32.889   4.054  0.00  0.00    +0.277 C 
ATOM     16  O   LIG    1       25.686 -31.562   4.426  0.00  0.00    -0.491 OA
ENDBRANCH   1  16
BRANCH   2  17
ATOM     17  O   LIG    1       24.867 -28.926   5.318  0.00  0.00    -0.491 OA
ATOM     18  C   LIG    1       24.425 -27.717   5.931  0.00  0.00    +0.277 C 
ENDBRANCH   2  17
BRANCH  10  19
ATOM     19  C   LIG    1       24.778 -28.400  12.425  0.00  0.00    +0.011 C 
BRANCH  19  20
ATOM     20  C   LIG    1       26.329 -28.419  12.284  0.00  0.00    -0.017 C 
ATOM     21  C   LIG    1       27.056 -27.488  13.256  0.00  0.00    +0.007 C 
ATOM     22  C   LIG    1       26.772 -28.052  10.856  0.00  0.00    +0.007 C 
ENDBRANCH  19  20
ENDBRANCH  10  19
BRANCH  11  23
ATOM     23  O   LIG    1       21.821 -30.790  12.351  0.00  0.00    -0.460 OA
BRANCH  23  24
ATOM     24  C   LIG    1       21.114 -30.402  13.458  0.00  0.00    +0.325 C 
ATOM     25  O   LIG    1       21.210 -30.919  14.554  0.00  0.00    -0.249 OA
BRANCH  24  26
ATOM     26  C   LIG    1       20.129 -29.231  13.151  0.00  0.00    +0.163 C 
BRANCH  26  27
ATOM     27  C   LIG    1       20.398 -27.950  13.975  0.00  0.00    +0.011 C 
ATOM     28  C   LIG    1       19.109 -27.262  14.435  0.00  0.00    +0.009 C 
ATOM     29  C   LIG    1       21.258 -26.927  13.219  0.00  0.00    +0.009 C 
ENDBRANCH  26  27
BRANCH  26  30
ATOM     30  N   LIG    1       18.728 -29.699  13.328  0.00  0.00    -0.318 NA
ATOM     31  H   LIG    1       18.727 -30.721  13.282  0.00  0.00    +0.119 HD
ATOM     32  H   LIG    1       18.434 -29.492  14.284  0.00  0.00    +0.119 HD
ENDBRANCH  26  30
ENDBRANCH  24  26
ENDBRANCH  23  24
ENDBRANCH  11  23
TORSDOF 9
ENDMDL
MODEL 9
REMARK VINA RESULT:      -5.5      6.403      9.663
REMARK  Name = *****
REMARK                            x       y       z     vdW  Elec       q    Type
REMARK                         _______ _______ _______ _____ _____    ______ ____
ROOT
ATOM      1  C   LIG    1       20.489 -27.618  14.118  0.00  0.00    +0.162 A 
ATOM      2  C   LIG    1       20.289 -28.868  13.512  0.00  0.00    +0.162 A 
ATOM      3  C   LIG    1       21.317 -29.418  12.722  0.00  0.00    +0.054 A 
ATOM      4  C   LIG    1       22.564 -28.776  12.576  0.00  0.00    -0.023 A 
ATOM      5  C   LIG    1       23.712 -29.485  11.870  0.00  0.00    +0.091 C 
ATOM      6  N   LIG    1       25.024 -28.830  11.953  0.00  0.00    -0.295 NA
ATOM      7  C   LIG    1       25.227 -28.004  13.143  0.00  0.00    +0.089 C 
ATOM      8  C   LIG    1       24.134 -26.948  13.312  0.00  0.00    +0.051 C 
ATOM      9  C   LIG    1       26.103 -29.820  11.798  0.00  0.00    +0.092 C 
ATOM     10  C   LIG    1       25.803 -30.957  10.785  0.00  0.00    +0.044 C 
ATOM     11  C   LIG    1       24.737 -30.493   9.738  0.00  0.00    +0.182 C 
ATOM     12  C   LIG    1       23.510 -29.765  10.365  0.00  0.00    +0.068 C 
ATOM     13  C   LIG    1       22.767 -27.572  13.262  0.00  0.00    -0.038 A 
ATOM     14  C   LIG    1       21.714 -26.967  13.959  0.00  0.00    +0.053 A 
ENDROOT
BRANCH   1  16
ATOM     15  C   LIG    1       18.477 -26.341  14.100  0.00  0.00    +0.277 C 
ATOM     16  O   LIG    1       19.468 -27.050  14.825  0.00  0.00    -0.491 OA
ENDBRANCH   1  16
BRANCH   2  17
ATOM     17  O   LIG    1       19.180 -29.676  13.626  0.00  0.00    -0.491 OA
ATOM     18  C   LIG    1       19.105 -30.807  12.761  0.00  0.00    +0.277 C 
ENDBRANCH   2  17
BRANCH  10  19
ATOM     19  C   LIG    1       25.423 -32.333  11.442  0.00  0.00    +0.011 C 
BRANCH  19  20
ATOM     20  C   LIG    1       25.423 -33.596  10.529  0.00  0.00    -0.017 C 
ATOM     21  C   LIG    1       26.482 -33.568   9.426  0.00  0.00    +0.007 C 
ATOM     22  C   LIG    1       24.052 -33.813   9.864  0.00  0.00    +0.007 C 
ENDBRANCH  19  20
ENDBRANCH  10  19
BRANCH  11  23
ATOM     23  O   LIG    1       25.406 -29.615   8.783  0.00  0.00    -0.460 OA
BRANCH  23  24
ATOM     24  C   LIG    1       24.835 -29.488   7.543  0.00  0.00    +0.325 C 
ATOM     25  O   LIG    1       24.620 -28.428   6.988  0.00  0.00    -0.249 OA
BRANCH  24  26
ATOM     26  C   LIG    1       24.452 -30.868   6.924  0.00  0.00    +0.163 C 
BRANCH  26  27
ATOM     27  C   LIG    1       25.648 -31.639   6.318  0.00  0.00    +0.011 C 
ATOM     28  C   LIG    1       25.963 -31.206   4.882  0.00  0.00    +0.009 C 
ATOM     29  C   LIG    1       25.444 -33.161   6.337  0.00  0.00    +0.009 C 
ENDBRANCH  26  27
BRANCH  26  30
ATOM     30  N   LIG    1       23.370 -30.680   5.921  0.00  0.00    -0.318 NA
ATOM     31  H   LIG    1       23.730 -30.966   5.008  0.00  0.00    +0.119 HD
ATOM     32  H   LIG    1       22.624 -31.350   6.117  0.00  0.00    +0.119 HD
ENDBRANCH  26  30
ENDBRANCH  24  26
ENDBRANCH  23  24
ENDBRANCH  11  23
TORSDOF 9
ENDMDL
