MODEL 1
REMARK VINA RESULT:      -8.6      0.000      0.000
REMARK  Name = *****
REMARK                            x       y       z     vdW  Elec       q    Type
REMARK                         _______ _______ _______ _____ _____    ______ ____
ROOT
ATOM      1  O   LIG    1       27.297 -19.144   4.927  0.00  0.00    -0.275 OA
ATOM      2  C   LIG    1       27.330 -20.055   5.756  0.00  0.00    +0.219 C 
ATOM      3  N   LIG    1       26.152 -20.645   6.217  0.00  0.00    -0.290 N 
ATOM      4  C   LIG    1       26.026 -21.283   7.525  0.00  0.00    +0.135 C 
ATOM      5  C   LIG    1       24.818 -22.241   7.624  0.00  0.00    +0.124 C 
ATOM      6  N   LIG    1       23.582 -21.611   7.148  0.00  0.00    -0.291 N 
ATOM      7  C   LIG    1       22.392 -22.422   7.349  0.00  0.00    +0.113 C 
ATOM      8  C   LIG    1       22.471 -23.667   6.464  0.00  0.00    +0.054 C 
ATOM      9  C   LIG    1       23.839 -24.320   6.507  0.00  0.00    -0.041 A 
ATOM     10  C   LIG    1       23.975 -25.616   5.984  0.00  0.00    +0.004 A 
ATOM     11  C   LIG    1       25.211 -26.255   5.987  0.00  0.00    +0.000 A 
ATOM     12  C   LIG    1       26.322 -25.609   6.520  0.00  0.00    +0.000 A 
ATOM     13  C   LIG    1       26.201 -24.318   7.039  0.00  0.00    +0.006 A 
ATOM     14  C   LIG    1       23.592 -20.749   6.054  0.00  0.00    +0.234 C 
ATOM     15  O   LIG    1       22.557 -20.446   5.457  0.00  0.00    -0.274 OA
ATOM     16  C   LIG    1       24.974 -23.635   7.012  0.00  0.00    -0.022 A 
ATOM     17  C   LIG    1       24.916 -20.058   5.703  0.00  0.00    +0.203 C 
ENDROOT
BRANCH   2  18
ATOM     18  C   LIG    1       28.671 -20.617   6.251  0.00  0.00    +0.075 C 
ATOM     19  C   LIG    1       29.829 -19.730   5.772  0.00  0.00    +0.012 C 
ATOM     20  C   LIG    1       29.978 -18.447   6.590  0.00  0.00    +0.001 C 
ATOM     21  C   LIG    1       30.103 -18.740   8.079  0.00  0.00    +0.000 C 
ATOM     22  C   LIG    1       28.912 -19.542   8.584  0.00  0.00    +0.001 C 
ATOM     23  C   LIG    1       28.701 -20.820   7.776  0.00  0.00    +0.012 C 
ENDBRANCH   2  18
TORSDOF 1
ENDMDL
MODEL 2
REMARK VINA RESULT:      -8.5      2.330      3.983
REMARK  Name = *****
REMARK                            x       y       z     vdW  Elec       q    Type
REMARK                         _______ _______ _______ _____ _____    ______ ____
ROOT
ATOM      1  O   LIG    1       27.699 -21.420   9.024  0.00  0.00    -0.275 OA
ATOM      2  C   LIG    1       27.609 -21.393   7.795  0.00  0.00    +0.219 C 
ATOM      3  N   LIG    1       26.369 -21.511   7.167  0.00  0.00    -0.290 N 
ATOM      4  C   LIG    1       26.195 -22.038   5.816  0.00  0.00    +0.135 C 
ATOM      5  C   LIG    1       24.841 -21.652   5.178  0.00  0.00    +0.124 C 
ATOM      6  N   LIG    1       23.716 -21.933   6.076  0.00  0.00    -0.291 N 
ATOM      7  C   LIG    1       22.411 -21.716   5.471  0.00  0.00    +0.113 C 
ATOM      8  C   LIG    1       22.224 -20.225   5.189  0.00  0.00    +0.054 C 
ATOM      9  C   LIG    1       23.454 -19.596   4.563  0.00  0.00    -0.041 A 
ATOM     10  C   LIG    1       23.331 -18.320   3.989  0.00  0.00    +0.004 A 
ATOM     11  C   LIG    1       24.432 -17.694   3.413  0.00  0.00    +0.000 A 
ATOM     12  C   LIG    1       25.664 -18.339   3.398  0.00  0.00    +0.000 A 
ATOM     13  C   LIG    1       25.802 -19.605   3.971  0.00  0.00    +0.006 A 
ATOM     14  C   LIG    1       23.827 -21.729   7.450  0.00  0.00    +0.234 C 
ATOM     15  O   LIG    1       22.834 -21.670   8.179  0.00  0.00    -0.274 OA
ATOM     16  C   LIG    1       24.716 -20.243   4.593  0.00  0.00    -0.022 A 
ATOM     17  C   LIG    1       25.234 -21.736   8.060  0.00  0.00    +0.203 C 
ENDROOT
BRANCH   2  18
ATOM     18  C   LIG    1       28.851 -21.155   6.923  0.00  0.00    +0.075 C 
ATOM     19  C   LIG    1       28.801 -19.755   6.297  0.00  0.00    +0.012 C 
ATOM     20  C   LIG    1       29.183 -18.646   7.278  0.00  0.00    +0.001 C 
ATOM     21  C   LIG    1       30.542 -18.904   7.916  0.00  0.00    +0.000 C 
ATOM     22  C   LIG    1       30.573 -20.253   8.620  0.00  0.00    +0.001 C 
ATOM     23  C   LIG    1       30.165 -21.391   7.688  0.00  0.00    +0.012 C 
ENDBRANCH   2  18
TORSDOF 1
ENDMDL
MODEL 3
REMARK VINA RESULT:      -8.1      1.743      2.097
REMARK  Name = *****
REMARK                            x       y       z     vdW  Elec       q    Type
REMARK                         _______ _______ _______ _____ _____    ______ ____
ROOT
ATOM      1  O   LIG    1       29.437 -18.909   5.731  0.00  0.00    -0.275 OA
ATOM      2  C   LIG    1       28.735 -19.597   6.475  0.00  0.00    +0.219 C 
ATOM      3  N   LIG    1       27.433 -19.944   6.112  0.00  0.00    -0.290 N 
ATOM      4  C   LIG    1       26.377 -20.238   7.076  0.00  0.00    +0.135 C 
ATOM      5  C   LIG    1       25.193 -21.023   6.466  0.00  0.00    +0.124 C 
ATOM      6  N   LIG    1       24.712 -20.407   5.225  0.00  0.00    -0.291 N 
ATOM      7  C   LIG    1       23.513 -21.028   4.686  0.00  0.00    +0.113 C 
ATOM      8  C   LIG    1       23.840 -22.449   4.225  0.00  0.00    +0.054 C 
ATOM      9  C   LIG    1       24.686 -23.203   5.233  0.00  0.00    -0.041 A 
ATOM     10  C   LIG    1       24.819 -24.593   5.084  0.00  0.00    +0.004 A 
ATOM     11  C   LIG    1       25.594 -25.330   5.975  0.00  0.00    +0.000 A 
ATOM     12  C   LIG    1       26.237 -24.687   7.027  0.00  0.00    +0.000 A 
ATOM     13  C   LIG    1       26.118 -23.304   7.183  0.00  0.00    +0.006 A 
ATOM     14  C   LIG    1       25.600 -19.834   4.318  0.00  0.00    +0.234 C 
ATOM     15  O   LIG    1       25.269 -19.583   3.157  0.00  0.00    -0.274 OA
ATOM     16  C   LIG    1       25.374 -22.531   6.276  0.00  0.00    -0.022 A 
ATOM     17  C   LIG    1       26.965 -19.378   4.848  0.00  0.00    +0.203 C 
ENDROOT
BRANCH   2  18
ATOM     18  C   LIG    1       29.299 -20.153   7.791  0.00  0.00    +0.075 C 
ATOM     19  C   LIG    1       30.777 -20.531   7.620  0.00  0.00    +0.012 C 
ATOM     20  C   LIG    1       31.712 -19.321   7.641  0.00  0.00    +0.001 C 
ATOM     21  C   LIG    1       31.512 -18.479   8.894  0.00  0.00    +0.000 C 
ATOM     22  C   LIG    1       30.066 -18.021   9.027  0.00  0.00    +0.001 C 
ATOM     23  C   LIG    1       29.090 -19.194   8.977  0.00  0.00    +0.012 C 
ENDBRANCH   2  18
TORSDOF 1
ENDMDL
MODEL 4
REMARK VINA RESULT:      -7.9      8.276     10.025
REMARK  Name = *****
REMARK                            x       y       z     vdW  Elec       q    Type
REMARK                         _______ _______ _______ _____ _____    ______ ____
ROOT
ATOM      1  O   LIG    1       27.408 -29.155   9.601  0.00  0.00    -0.275 OA
ATOM      2  C   LIG    1       26.587 -29.560  10.426  0.00  0.00    +0.219 C 
ATOM      3  N   LIG    1       26.248 -28.785  11.537  0.00  0.00    -0.290 N 
ATOM      4  C   LIG    1       25.769 -29.347  12.797  0.00  0.00    +0.135 C 
ATOM      5  C   LIG    1       25.040 -28.316  13.688  0.00  0.00    +0.124 C 
ATOM      6  N   LIG    1       25.819 -27.083  13.844  0.00  0.00    -0.291 N 
ATOM      7  C   LIG    1       25.241 -26.136  14.785  0.00  0.00    +0.113 C 
ATOM      8  C   LIG    1       23.922 -25.604  14.223  0.00  0.00    +0.054 C 
ATOM      9  C   LIG    1       23.056 -26.705  13.640  0.00  0.00    -0.041 A 
ATOM     10  C   LIG    1       21.712 -26.416  13.356  0.00  0.00    +0.004 A 
ATOM     11  C   LIG    1       20.879 -27.387  12.809  0.00  0.00    +0.000 A 
ATOM     12  C   LIG    1       21.378 -28.658  12.548  0.00  0.00    +0.000 A 
ATOM     13  C   LIG    1       22.714 -28.958  12.821  0.00  0.00    +0.006 A 
ATOM     14  C   LIG    1       26.559 -26.563  12.785  0.00  0.00    +0.234 C 
ATOM     15  O   LIG    1       26.972 -25.402  12.790  0.00  0.00    -0.274 OA
ATOM     16  C   LIG    1       23.587 -27.985  13.337  0.00  0.00    -0.022 A 
ATOM     17  C   LIG    1       26.982 -27.528  11.670  0.00  0.00    +0.203 C 
ENDROOT
BRANCH   2  18
ATOM     18  C   LIG    1       25.859 -30.895  10.217  0.00  0.00    +0.075 C 
ATOM     19  C   LIG    1       24.355 -30.657  10.023  0.00  0.00    +0.012 C 
ATOM     20  C   LIG    1       24.003 -30.159   8.621  0.00  0.00    +0.001 C 
ATOM     21  C   LIG    1       24.547 -31.086   7.542  0.00  0.00    +0.000 C 
ATOM     22  C   LIG    1       26.054 -31.257   7.670  0.00  0.00    +0.001 C 
ATOM     23  C   LIG    1       26.458 -31.723   9.066  0.00  0.00    +0.012 C 
ENDBRANCH   2  18
TORSDOF 1
ENDMDL
MODEL 5
REMARK VINA RESULT:      -7.2      6.562      8.876
REMARK  Name = *****
REMARK                            x       y       z     vdW  Elec       q    Type
REMARK                         _______ _______ _______ _____ _____    ______ ____
ROOT
ATOM      1  O   LIG    1       24.651 -29.166  12.662  0.00  0.00    -0.275 OA
ATOM      2  C   LIG    1       25.433 -28.871  11.756  0.00  0.00    +0.219 C 
ATOM      3  N   LIG    1       25.259 -29.377  10.467  0.00  0.00    -0.290 N 
ATOM      4  C   LIG    1       26.352 -29.562   9.518  0.00  0.00    +0.135 C 
ATOM      5  C   LIG    1       25.876 -29.688   8.053  0.00  0.00    +0.124 C 
ATOM      6  N   LIG    1       24.794 -30.669   7.914  0.00  0.00    -0.291 N 
ATOM      7  C   LIG    1       24.405 -30.926   6.537  0.00  0.00    +0.113 C 
ATOM      8  C   LIG    1       23.764 -29.668   5.948  0.00  0.00    +0.054 C 
ATOM      9  C   LIG    1       24.544 -28.411   6.284  0.00  0.00    -0.041 A 
ATOM     10  C   LIG    1       24.246 -27.233   5.581  0.00  0.00    +0.004 A 
ATOM     11  C   LIG    1       24.923 -26.050   5.860  0.00  0.00    +0.000 A 
ATOM     12  C   LIG    1       25.910 -26.033   6.840  0.00  0.00    +0.000 A 
ATOM     13  C   LIG    1       26.212 -27.196   7.551  0.00  0.00    +0.006 A 
ATOM     14  C   LIG    1       23.810 -30.795   8.892  0.00  0.00    +0.234 C 
ATOM     15  O   LIG    1       22.749 -31.383   8.673  0.00  0.00    -0.274 OA
ATOM     16  C   LIG    1       25.517 -28.395   7.316  0.00  0.00    -0.022 A 
ATOM     17  C   LIG    1       24.148 -30.314  10.309  0.00  0.00    +0.203 C 
ENDROOT
BRANCH   2  18
ATOM     18  C   LIG    1       26.580 -27.880  12.003  0.00  0.00    +0.075 C 
ATOM     19  C   LIG    1       26.077 -26.674  12.809  0.00  0.00    +0.012 C 
ATOM     20  C   LIG    1       25.915 -26.975  14.300  0.00  0.00    +0.001 C 
ATOM     21  C   LIG    1       27.197 -27.531  14.904  0.00  0.00    +0.000 C 
ATOM     22  C   LIG    1       27.656 -28.782  14.168  0.00  0.00    +0.001 C 
ATOM     23  C   LIG    1       27.801 -28.540  12.668  0.00  0.00    +0.012 C 
ENDBRANCH   2  18
TORSDOF 1
ENDMDL
MODEL 6
REMARK VINA RESULT:      -6.7      8.307     10.135
REMARK  Name = *****
REMARK                            x       y       z     vdW  Elec       q    Type
REMARK                         _______ _______ _______ _____ _____    ______ ____
ROOT
ATOM      1  O   LIG    1       26.694 -28.969   8.881  0.00  0.00    -0.275 OA
ATOM      2  C   LIG    1       25.884 -29.411   9.698  0.00  0.00    +0.219 C 
ATOM      3  N   LIG    1       25.772 -28.848  10.970  0.00  0.00    -0.290 N 
ATOM      4  C   LIG    1       25.304 -29.585  12.141  0.00  0.00    +0.135 C 
ATOM      5  C   LIG    1       24.835 -28.668  13.294  0.00  0.00    +0.124 C 
ATOM      6  N   LIG    1       25.823 -27.629  13.600  0.00  0.00    -0.291 N 
ATOM      7  C   LIG    1       25.492 -26.827  14.767  0.00  0.00    +0.113 C 
ATOM      8  C   LIG    1       24.243 -25.995  14.473  0.00  0.00    +0.054 C 
ATOM      9  C   LIG    1       23.158 -26.803  13.787  0.00  0.00    -0.041 A 
ATOM     10  C   LIG    1       21.865 -26.261  13.718  0.00  0.00    +0.004 A 
ATOM     11  C   LIG    1       20.838 -26.956  13.089  0.00  0.00    +0.000 A 
ATOM     12  C   LIG    1       21.090 -28.204  12.528  0.00  0.00    +0.000 A 
ATOM     13  C   LIG    1       22.373 -28.753  12.585  0.00  0.00    +0.006 A 
ATOM     14  C   LIG    1       26.555 -27.014  12.587  0.00  0.00    +0.234 C 
ATOM     15  O   LIG    1       27.160 -25.956  12.774  0.00  0.00    -0.274 OA
ATOM     16  C   LIG    1       23.437 -28.055  13.180  0.00  0.00    -0.022 A 
ATOM     17  C   LIG    1       26.718 -27.773  11.264  0.00  0.00    +0.203 C 
ENDROOT
BRANCH   2  18
ATOM     18  C   LIG    1       24.924 -30.546   9.314  0.00  0.00    +0.075 C 
ATOM     19  C   LIG    1       24.724 -30.583   7.792  0.00  0.00    +0.012 C 
ATOM     20  C   LIG    1       25.898 -31.222   7.049  0.00  0.00    +0.001 C 
ATOM     21  C   LIG    1       26.214 -32.611   7.586  0.00  0.00    +0.000 C 
ATOM     22  C   LIG    1       26.504 -32.573   9.080  0.00  0.00    +0.001 C 
ATOM     23  C   LIG    1       25.372 -31.912   9.863  0.00  0.00    +0.012 C 
ENDBRANCH   2  18
TORSDOF 1
ENDMDL
MODEL 7
REMARK VINA RESULT:      -6.7      5.033      7.586
REMARK  Name = *****
REMARK                            x       y       z     vdW  Elec       q    Type
REMARK                         _______ _______ _______ _____ _____    ______ ____
ROOT
ATOM      1  O   LIG    1       25.229 -26.051   4.604  0.00  0.00    -0.275 OA
ATOM      2  C   LIG    1       24.853 -26.437   5.712  0.00  0.00    +0.219 C 
ATOM      3  N   LIG    1       24.839 -27.796   6.029  0.00  0.00    -0.290 N 
ATOM      4  C   LIG    1       23.939 -28.386   7.017  0.00  0.00    +0.135 C 
ATOM      5  C   LIG    1       24.406 -29.771   7.520  0.00  0.00    +0.124 C 
ATOM      6  N   LIG    1       24.741 -30.669   6.409  0.00  0.00    -0.291 N 
ATOM      7  C   LIG    1       25.052 -32.027   6.824  0.00  0.00    +0.113 C 
ATOM      8  C   LIG    1       26.353 -32.026   7.630  0.00  0.00    +0.054 C 
ATOM      9  C   LIG    1       26.401 -30.902   8.647  0.00  0.00    -0.041 A 
ATOM     10  C   LIG    1       27.388 -30.947   9.644  0.00  0.00    +0.004 A 
ATOM     11  C   LIG    1       27.484 -29.935  10.594  0.00  0.00    +0.000 A 
ATOM     12  C   LIG    1       26.589 -28.871  10.562  0.00  0.00    +0.000 A 
ATOM     13  C   LIG    1       25.605 -28.810   9.572  0.00  0.00    +0.006 A 
ATOM     14  C   LIG    1       25.370 -30.189   5.263  0.00  0.00    +0.234 C 
ATOM     15  O   LIG    1       25.921 -30.945   4.461  0.00  0.00    -0.274 OA
ATOM     16  C   LIG    1       25.511 -29.799   8.578  0.00  0.00    -0.022 A 
ATOM     17  C   LIG    1       25.224 -28.696   4.943  0.00  0.00    +0.203 C 
ENDROOT
BRANCH   2  18
ATOM     18  C   LIG    1       24.460 -25.429   6.801  0.00  0.00    +0.075 C 
ATOM     19  C   LIG    1       25.715 -24.821   7.443  0.00  0.00    +0.012 C 
ATOM     20  C   LIG    1       26.370 -23.745   6.575  0.00  0.00    +0.001 C 
ATOM     21  C   LIG    1       25.379 -22.655   6.189  0.00  0.00    +0.000 C 
ATOM     22  C   LIG    1       24.170 -23.237   5.470  0.00  0.00    +0.001 C 
ATOM     23  C   LIG    1       23.501 -24.342   6.284  0.00  0.00    +0.012 C 
ENDBRANCH   2  18
TORSDOF 1
ENDMDL
MODEL 8
REMARK VINA RESULT:      -6.7      8.934     10.659
REMARK  Name = *****
REMARK                            x       y       z     vdW  Elec       q    Type
REMARK                         _______ _______ _______ _____ _____    ______ ____
ROOT
ATOM      1  O   LIG    1       27.229 -30.126   9.529  0.00  0.00    -0.275 OA
ATOM      2  C   LIG    1       26.214 -30.376  10.182  0.00  0.00    +0.219 C 
ATOM      3  N   LIG    1       26.072 -29.908  11.490  0.00  0.00    -0.290 N 
ATOM      4  C   LIG    1       25.246 -30.568  12.498  0.00  0.00    +0.135 C 
ATOM      5  C   LIG    1       24.882 -29.649  13.687  0.00  0.00    +0.124 C 
ATOM      6  N   LIG    1       26.063 -28.972  14.233  0.00  0.00    -0.291 N 
ATOM      7  C   LIG    1       25.795 -28.204  15.439  0.00  0.00    +0.113 C 
ATOM      8  C   LIG    1       24.886 -27.023  15.097  0.00  0.00    +0.054 C 
ATOM      9  C   LIG    1       23.736 -27.422  14.192  0.00  0.00    -0.041 A 
ATOM     10  C   LIG    1       22.671 -26.521  14.032  0.00  0.00    +0.004 A 
ATOM     11  C   LIG    1       21.598 -26.833  13.204  0.00  0.00    +0.000 A 
ATOM     12  C   LIG    1       21.574 -28.051  12.533  0.00  0.00    +0.000 A 
ATOM     13  C   LIG    1       22.630 -28.954  12.678  0.00  0.00    +0.006 A 
ATOM     14  C   LIG    1       27.081 -28.519  13.398  0.00  0.00    +0.234 C 
ATOM     15  O   LIG    1       27.921 -27.703  13.783  0.00  0.00    -0.274 OA
ATOM     16  C   LIG    1       23.744 -28.647  13.478  0.00  0.00    -0.022 A 
ATOM     17  C   LIG    1       27.224 -29.184  12.023  0.00  0.00    +0.203 C 
ENDROOT
BRANCH   2  18
ATOM     18  C   LIG    1       25.045 -31.147   9.551  0.00  0.00    +0.075 C 
ATOM     19  C   LIG    1       23.988 -30.169   9.018  0.00  0.00    +0.012 C 
ATOM     20  C   LIG    1       24.383 -29.526   7.688  0.00  0.00    +0.001 C 
ATOM     21  C   LIG    1       24.727 -30.574   6.638  0.00  0.00    +0.000 C 
ATOM     22  C   LIG    1       25.840 -31.494   7.121  0.00  0.00    +0.001 C 
ATOM     23  C   LIG    1       25.506 -32.135   8.465  0.00  0.00    +0.012 C 
ENDBRANCH   2  18
TORSDOF 1
ENDMDL
MODEL 9
REMARK VINA RESULT:      -6.5      9.868     12.117
REMARK  Name = *****
REMARK                            x       y       z     vdW  Elec       q    Type
REMARK                         _______ _______ _______ _____ _____    ______ ____
ROOT
ATOM      1  O   LIG    1       22.327 -27.073  12.882  0.00  0.00    -0.275 OA
ATOM      2  C   LIG    1       21.845 -28.065  13.431  0.00  0.00    +0.219 C 
ATOM      3  N   LIG    1       20.542 -28.044  13.930  0.00  0.00    -0.290 N 
ATOM      4  C   LIG    1       20.086 -28.886  15.033  0.00  0.00    +0.135 C 
ATOM      5  C   LIG    1       18.548 -29.025  15.101  0.00  0.00    +0.124 C 
ATOM      6  N   LIG    1       17.880 -27.721  15.032  0.00  0.00    -0.291 N 
ATOM      7  C   LIG    1       16.441 -27.785  15.231  0.00  0.00    +0.113 C 
ATOM      8  C   LIG    1       15.799 -28.528  14.059  0.00  0.00    +0.054 C 
ATOM      9  C   LIG    1       16.561 -29.786  13.685  0.00  0.00    -0.041 A 
ATOM     10  C   LIG    1       15.940 -30.713  12.833  0.00  0.00    +0.004 A 
ATOM     11  C   LIG    1       16.601 -31.876  12.450  0.00  0.00    +0.000 A 
ATOM     12  C   LIG    1       17.885 -32.129  12.921  0.00  0.00    +0.000 A 
ATOM     13  C   LIG    1       18.516 -31.212  13.764  0.00  0.00    +0.006 A 
ATOM     14  C   LIG    1       18.368 -26.707  14.211  0.00  0.00    +0.234 C 
ATOM     15  O   LIG    1       17.681 -25.729  13.908  0.00  0.00    -0.274 OA
ATOM     16  C   LIG    1       17.887 -30.012  14.135  0.00  0.00    -0.022 A 
ATOM     17  C   LIG    1       19.849 -26.762  13.815  0.00  0.00    +0.203 C 
ENDROOT
BRANCH   2  18
ATOM     18  C   LIG    1       22.638 -29.377  13.515  0.00  0.00    +0.075 C 
ATOM     19  C   LIG    1       22.165 -30.356  12.431  0.00  0.00    +0.012 C 
ATOM     20  C   LIG    1       22.714 -30.025  11.043  0.00  0.00    +0.001 C 
ATOM     21  C   LIG    1       24.234 -29.919  11.050  0.00  0.00    +0.000 C 
ATOM     22  C   LIG    1       24.710 -28.883  12.058  0.00  0.00    +0.001 C 
ATOM     23  C   LIG    1       24.160 -29.154  13.456  0.00  0.00    +0.012 C 
ENDBRANCH   2  18
TORSDOF 1
ENDMDL
