MODEL 1
REMARK VINA RESULT:      -8.1      0.000      0.000
REMARK  Name = *****
REMARK                            x       y       z     vdW  Elec       q    Type
REMARK                         _______ _______ _______ _____ _____    ______ ____
ROOT
ATOM      1  N   LIG    1       26.214 -21.704   6.652  0.00  0.00    -0.179 NA
ATOM      2  C   LIG    1       27.186 -21.914   7.484  0.00  0.00    +0.177 C 
ENDROOT
BRANCH   1   5
ATOM      3  O   LIG    1       23.499 -21.104   7.800  0.00  0.00    -0.224 OA
ATOM      4  C   LIG    1       23.845 -22.150   7.270  0.00  0.00    +0.423 C 
ATOM      5  N   LIG    1       25.100 -22.493   6.767  0.00  0.00    -0.155 N 
ATOM      6  C   LIG    1       24.983 -23.690   6.001  0.00  0.00    +0.179 C 
ATOM      7  C   LIG    1       23.733 -24.300   6.580  0.00  0.00    +0.255 C 
ATOM      8  O   LIG    1       22.972 -23.190   7.064  0.00  0.00    -0.448 OA
ENDBRANCH   1   5
BRANCH   2   9
ATOM      9  C   LIG    1       28.394 -21.143   7.430  0.00  0.00    +0.154 A 
ATOM     10  O   LIG    1       29.325 -21.386   8.402  0.00  0.00    -0.399 OA
ATOM     11  C   LIG    1       30.388 -20.591   8.122  0.00  0.00    +0.438 A 
ATOM     12  C   LIG    1       30.166 -19.824   7.003  0.00  0.00    +0.132 A 
ATOM     13  C   LIG    1       28.866 -20.181   6.555  0.00  0.00    +0.058 A 
BRANCH  11  14
ATOM     14  N   LIG    1       31.510 -20.708   8.998  0.00  0.00    +0.119 N 
ATOM     15  O   LIG    1       31.878 -21.845   9.319  0.00  0.00    -0.574 OA
ATOM     16  O   LIG    1       32.031 -19.646   9.363  0.00  0.00    +0.045 OA
ENDBRANCH  11  14
ENDBRANCH   2   9
TORSDOF 3
ENDMDL
MODEL 2
REMARK VINA RESULT:      -7.7      1.744      1.964
REMARK  Name = *****
REMARK                            x       y       z     vdW  Elec       q    Type
REMARK                         _______ _______ _______ _____ _____    ______ ____
ROOT
ATOM      1  N   LIG    1       26.488 -20.490   6.849  0.00  0.00    -0.179 NA
ATOM      2  C   LIG    1       27.511 -20.205   6.107  0.00  0.00    +0.177 C 
ENDROOT
BRANCH   1   5
ATOM      3  O   LIG    1       23.711 -20.781   7.969  0.00  0.00    -0.224 OA
ATOM      4  C   LIG    1       24.019 -20.795   6.786  0.00  0.00    +0.423 C 
ATOM      5  N   LIG    1       25.291 -20.712   6.220  0.00  0.00    -0.155 N 
ATOM      6  C   LIG    1       25.163 -20.493   4.817  0.00  0.00    +0.179 C 
ATOM      7  C   LIG    1       23.781 -21.033   4.551  0.00  0.00    +0.255 C 
ATOM      8  O   LIG    1       23.080 -20.876   5.787  0.00  0.00    -0.448 OA
ENDBRANCH   1   5
BRANCH   2   9
ATOM      9  C   LIG    1       28.800 -19.947   6.680  0.00  0.00    +0.154 A 
ATOM     10  O   LIG    1       29.204 -20.775   7.690  0.00  0.00    -0.399 OA
ATOM     11  C   LIG    1       30.455 -20.379   8.035  0.00  0.00    +0.438 A 
ATOM     12  C   LIG    1       30.869 -19.302   7.287  0.00  0.00    +0.132 A 
ATOM     13  C   LIG    1       29.790 -19.019   6.407  0.00  0.00    +0.058 A 
BRANCH  11  14
ATOM     14  N   LIG    1       31.097 -21.139   9.059  0.00  0.00    +0.119 N 
ATOM     15  O   LIG    1       32.268 -20.856   9.343  0.00  0.00    -0.574 OA
ATOM     16  O   LIG    1       30.415 -22.025   9.591  0.00  0.00    +0.045 OA
ENDBRANCH  11  14
ENDBRANCH   2   9
TORSDOF 3
ENDMDL
MODEL 3
REMARK VINA RESULT:      -7.7      1.077      1.562
REMARK  Name = *****
REMARK                            x       y       z     vdW  Elec       q    Type
REMARK                         _______ _______ _______ _____ _____    ______ ____
ROOT
ATOM      1  N   LIG    1       26.065 -21.889   6.456  0.00  0.00    -0.179 NA
ATOM      2  C   LIG    1       26.973 -22.079   7.361  0.00  0.00    +0.177 C 
ENDROOT
BRANCH   1   5
ATOM      3  O   LIG    1       25.709 -24.820   5.877  0.00  0.00    -0.224 OA
ATOM      4  C   LIG    1       24.844 -24.050   6.268  0.00  0.00    +0.423 C 
ATOM      5  N   LIG    1       24.946 -22.679   6.506  0.00  0.00    -0.155 N 
ATOM      6  C   LIG    1       23.785 -22.240   7.207  0.00  0.00    +0.179 C 
ATOM      7  C   LIG    1       22.787 -23.307   6.837  0.00  0.00    +0.255 C 
ATOM      8  O   LIG    1       23.573 -24.471   6.572  0.00  0.00    -0.448 OA
ENDBRANCH   1   5
BRANCH   2   9
ATOM      9  C   LIG    1       28.181 -21.306   7.381  0.00  0.00    +0.154 A 
ATOM     10  O   LIG    1       29.052 -21.547   8.407  0.00  0.00    -0.399 OA
ATOM     11  C   LIG    1       30.129 -20.751   8.192  0.00  0.00    +0.438 A 
ATOM     12  C   LIG    1       29.973 -19.984   7.062  0.00  0.00    +0.132 A 
ATOM     13  C   LIG    1       28.703 -20.343   6.536  0.00  0.00    +0.058 A 
BRANCH  11  14
ATOM     14  N   LIG    1       31.196 -20.866   9.134  0.00  0.00    +0.119 N 
ATOM     15  O   LIG    1       31.190 -21.838   9.900  0.00  0.00    -0.574 OA
ATOM     16  O   LIG    1       32.054 -19.974   9.099  0.00  0.00    +0.045 OA
ENDBRANCH  11  14
ENDBRANCH   2   9
TORSDOF 3
ENDMDL
MODEL 4
REMARK VINA RESULT:      -7.5      1.845      6.658
REMARK  Name = *****
REMARK                            x       y       z     vdW  Elec       q    Type
REMARK                         _______ _______ _______ _____ _____    ______ ____
ROOT
ATOM      1  N   LIG    1       28.722 -21.415   7.922  0.00  0.00    -0.179 NA
ATOM      2  C   LIG    1       27.631 -20.717   7.959  0.00  0.00    +0.177 C 
ENDROOT
BRANCH   1   5
ATOM      3  O   LIG    1       30.889 -22.083   9.900  0.00  0.00    -0.224 OA
ATOM      4  C   LIG    1       30.893 -21.149   9.111  0.00  0.00    +0.423 C 
ATOM      5  N   LIG    1       29.896 -20.770   8.211  0.00  0.00    -0.155 N 
ATOM      6  C   LIG    1       30.428 -19.804   7.307  0.00  0.00    +0.179 C 
ATOM      7  C   LIG    1       31.579 -19.245   8.104  0.00  0.00    +0.255 C 
ATOM      8  O   LIG    1       31.968 -20.305   8.981  0.00  0.00    -0.448 OA
ENDBRANCH   1   5
BRANCH   2   9
ATOM      9  C   LIG    1       26.358 -21.306   7.661  0.00  0.00    +0.154 A 
ATOM     10  O   LIG    1       26.358 -22.623   7.292  0.00  0.00    -0.399 OA
ATOM     11  C   LIG    1       25.059 -22.972   7.114  0.00  0.00    +0.438 A 
ATOM     12  C   LIG    1       24.214 -21.911   7.340  0.00  0.00    +0.132 A 
ATOM     13  C   LIG    1       25.060 -20.826   7.692  0.00  0.00    +0.058 A 
BRANCH  11  14
ATOM     14  N   LIG    1       24.816 -24.333   6.758  0.00  0.00    +0.119 N 
ATOM     15  O   LIG    1       23.640 -24.710   6.676  0.00  0.00    -0.574 OA
ATOM     16  O   LIG    1       25.817 -25.031   6.550  0.00  0.00    +0.045 OA
ENDBRANCH  11  14
ENDBRANCH   2   9
TORSDOF 3
ENDMDL
MODEL 5
REMARK VINA RESULT:      -7.4      2.000      6.933
REMARK  Name = *****
REMARK                            x       y       z     vdW  Elec       q    Type
REMARK                         _______ _______ _______ _____ _____    ______ ____
ROOT
ATOM      1  N   LIG    1       28.708 -21.191   8.015  0.00  0.00    -0.179 NA
ATOM      2  C   LIG    1       27.675 -20.417   7.907  0.00  0.00    +0.177 C 
ENDROOT
BRANCH   1   5
ATOM      3  O   LIG    1       30.953 -22.033   9.833  0.00  0.00    -0.224 OA
ATOM      4  C   LIG    1       30.947 -21.059   9.094  0.00  0.00    +0.423 C 
ATOM      5  N   LIG    1       29.918 -20.601   8.272  0.00  0.00    -0.155 N 
ATOM      6  C   LIG    1       30.434 -19.604   7.392  0.00  0.00    +0.179 C 
ATOM      7  C   LIG    1       31.644 -19.126   8.152  0.00  0.00    +0.255 C 
ATOM      8  O   LIG    1       32.042 -20.243   8.950  0.00  0.00    -0.448 OA
ENDBRANCH   1   5
BRANCH   2   9
ATOM      9  C   LIG    1       26.372 -20.947   7.629  0.00  0.00    +0.154 A 
ATOM     10  O   LIG    1       25.657 -20.340   6.634  0.00  0.00    -0.399 OA
ATOM     11  C   LIG    1       24.497 -21.034   6.515  0.00  0.00    +0.438 A 
ATOM     12  C   LIG    1       24.430 -22.066   7.421  0.00  0.00    +0.132 A 
ATOM     13  C   LIG    1       25.648 -22.007   8.149  0.00  0.00    +0.058 A 
BRANCH  11  14
ATOM     14  N   LIG    1       23.601 -20.592   5.495  0.00  0.00    +0.119 N 
ATOM     15  O   LIG    1       23.779 -21.013   4.345  0.00  0.00    -0.574 OA
ATOM     16  O   LIG    1       22.702 -19.820   5.854  0.00  0.00    +0.045 OA
ENDBRANCH  11  14
ENDBRANCH   2   9
TORSDOF 3
ENDMDL
MODEL 6
REMARK VINA RESULT:      -7.3      2.287      2.912
REMARK  Name = *****
REMARK                            x       y       z     vdW  Elec       q    Type
REMARK                         _______ _______ _______ _____ _____    ______ ____
ROOT
ATOM      1  N   LIG    1       27.694 -20.254   8.158  0.00  0.00    -0.179 NA
ATOM      2  C   LIG    1       28.658 -19.928   7.356  0.00  0.00    +0.177 C 
ENDROOT
BRANCH   1   5
ATOM      3  O   LIG    1       25.394 -21.691   9.462  0.00  0.00    -0.224 OA
ATOM      4  C   LIG    1       25.524 -21.469   8.267  0.00  0.00    +0.423 C 
ATOM      5  N   LIG    1       26.589 -20.852   7.610  0.00  0.00    -0.155 N 
ATOM      6  C   LIG    1       26.202 -20.559   6.269  0.00  0.00    +0.179 C 
ATOM      7  C   LIG    1       25.092 -21.555   6.050  0.00  0.00    +0.255 C 
ATOM      8  O   LIG    1       24.555 -21.800   7.352  0.00  0.00    -0.448 OA
ENDBRANCH   1   5
BRANCH   2   9
ATOM      9  C   LIG    1       29.847 -19.289   7.840  0.00  0.00    +0.154 A 
ATOM     10  O   LIG    1       29.783 -18.727   9.085  0.00  0.00    -0.399 OA
ATOM     11  C   LIG    1       31.020 -18.236   9.349  0.00  0.00    +0.438 A 
ATOM     12  C   LIG    1       31.883 -18.448   8.300  0.00  0.00    +0.132 A 
ATOM     13  C   LIG    1       31.118 -19.130   7.316  0.00  0.00    +0.058 A 
BRANCH  11  14
ATOM     14  N   LIG    1       31.198 -17.630  10.630  0.00  0.00    +0.119 N 
ATOM     15  O   LIG    1       32.348 -17.550  11.079  0.00  0.00    -0.574 OA
ATOM     16  O   LIG    1       30.170 -17.224  11.188  0.00  0.00    +0.045 OA
ENDBRANCH  11  14
ENDBRANCH   2   9
TORSDOF 3
ENDMDL
MODEL 7
REMARK VINA RESULT:      -7.2      2.700      7.310
REMARK  Name = *****
REMARK                            x       y       z     vdW  Elec       q    Type
REMARK                         _______ _______ _______ _____ _____    ______ ____
ROOT
ATOM      1  N   LIG    1       29.674 -18.480   9.372  0.00  0.00    -0.179 NA
ATOM      2  C   LIG    1       29.769 -19.145   8.264  0.00  0.00    +0.177 C 
ENDROOT
BRANCH   1   5
ATOM      3  O   LIG    1       32.270 -17.743   8.040  0.00  0.00    -0.224 OA
ATOM      4  C   LIG    1       31.991 -17.584   9.220  0.00  0.00    +0.423 C 
ATOM      5  N   LIG    1       30.826 -17.951   9.893  0.00  0.00    -0.155 N 
ATOM      6  C   LIG    1       30.818 -17.335  11.179  0.00  0.00    +0.179 C 
ATOM      7  C   LIG    1       32.287 -17.086  11.405  0.00  0.00    +0.255 C 
ATOM      8  O   LIG    1       32.844 -16.956  10.095  0.00  0.00    -0.448 OA
ENDBRANCH   1   5
BRANCH   2   9
ATOM      9  C   LIG    1       28.618 -19.743   7.652  0.00  0.00    +0.154 A 
ATOM     10  O   LIG    1       27.603 -20.125   8.486  0.00  0.00    -0.399 OA
ATOM     11  C   LIG    1       26.615 -20.608   7.692  0.00  0.00    +0.438 A 
ATOM     12  C   LIG    1       26.967 -20.567   6.364  0.00  0.00    +0.132 A 
ATOM     13  C   LIG    1       28.272 -20.008   6.338  0.00  0.00    +0.058 A 
BRANCH  11  14
ATOM     14  N   LIG    1       25.425 -21.035   8.357  0.00  0.00    +0.119 N 
ATOM     15  O   LIG    1       25.547 -21.719   9.381  0.00  0.00    -0.574 OA
ATOM     16  O   LIG    1       24.356 -20.673   7.849  0.00  0.00    +0.045 OA
ENDBRANCH  11  14
ENDBRANCH   2   9
TORSDOF 3
ENDMDL
MODEL 8
REMARK VINA RESULT:      -7.2      1.784      6.760
REMARK  Name = *****
REMARK                            x       y       z     vdW  Elec       q    Type
REMARK                         _______ _______ _______ _____ _____    ______ ____
ROOT
ATOM      1  N   LIG    1       29.101 -20.582   7.056  0.00  0.00    -0.179 NA
ATOM      2  C   LIG    1       27.928 -20.162   7.409  0.00  0.00    +0.177 C 
ENDROOT
BRANCH   1   5
ATOM      3  O   LIG    1       30.673 -21.864   9.278  0.00  0.00    -0.224 OA
ATOM      4  C   LIG    1       30.902 -20.779   8.763  0.00  0.00    +0.423 C 
ATOM      5  N   LIG    1       30.179 -20.122   7.767  0.00  0.00    -0.155 N 
ATOM      6  C   LIG    1       30.949 -19.025   7.280  0.00  0.00    +0.179 C 
ATOM      7  C   LIG    1       31.871 -18.762   8.442  0.00  0.00    +0.255 C 
ATOM      8  O   LIG    1       31.996 -20.023   9.105  0.00  0.00    -0.448 OA
ENDBRANCH   1   5
BRANCH   2   9
ATOM      9  C   LIG    1       26.745 -20.582   6.716  0.00  0.00    +0.154 A 
ATOM     10  O   LIG    1       25.855 -21.347   7.418  0.00  0.00    -0.399 OA
ATOM     11  C   LIG    1       24.807 -21.576   6.589  0.00  0.00    +0.438 A 
ATOM     12  C   LIG    1       24.999 -20.995   5.358  0.00  0.00    +0.132 A 
ATOM     13  C   LIG    1       26.262 -20.351   5.439  0.00  0.00    +0.058 A 
BRANCH  11  14
ATOM     14  N   LIG    1       23.726 -22.334   7.134  0.00  0.00    +0.119 N 
ATOM     15  O   LIG    1       23.620 -23.519   6.795  0.00  0.00    -0.574 OA
ATOM     16  O   LIG    1       22.979 -21.734   7.918  0.00  0.00    +0.045 OA
ENDBRANCH  11  14
ENDBRANCH   2   9
TORSDOF 3
ENDMDL
MODEL 9
REMARK VINA RESULT:      -7.1      2.253      6.670
REMARK  Name = *****
REMARK                            x       y       z     vdW  Elec       q    Type
REMARK                         _______ _______ _______ _____ _____    ______ ____
ROOT
ATOM      1  N   LIG    1       28.045 -20.537   6.532  0.00  0.00    -0.179 NA
ATOM      2  C   LIG    1       27.161 -20.576   7.479  0.00  0.00    +0.177 C 
ENDROOT
BRANCH   1   5
ATOM      3  O   LIG    1       29.321 -18.035   5.453  0.00  0.00    -0.224 OA
ATOM      4  C   LIG    1       29.780 -18.766   6.319  0.00  0.00    +0.423 C 
ATOM      5  N   LIG    1       29.253 -19.957   6.818  0.00  0.00    -0.155 N 
ATOM      6  C   LIG    1       29.970 -20.327   7.994  0.00  0.00    +0.179 C 
ATOM      7  C   LIG    1       31.276 -19.602   7.793  0.00  0.00    +0.255 C 
ATOM      8  O   LIG    1       30.949 -18.474   6.978  0.00  0.00    -0.448 OA
ENDBRANCH   1   5
BRANCH   2   9
ATOM      9  C   LIG    1       25.865 -21.153   7.267  0.00  0.00    +0.154 A 
ATOM     10  O   LIG    1       25.831 -22.426   6.766  0.00  0.00    -0.399 OA
ATOM     11  C   LIG    1       24.522 -22.777   6.701  0.00  0.00    +0.438 A 
ATOM     12  C   LIG    1       23.703 -21.760   7.128  0.00  0.00    +0.132 A 
ATOM     13  C   LIG    1       24.577 -20.701   7.493  0.00  0.00    +0.058 A 
BRANCH  11  14
ATOM     14  N   LIG    1       24.248 -24.099   6.236  0.00  0.00    +0.119 N 
ATOM     15  O   LIG    1       23.227 -24.661   6.654  0.00  0.00    -0.574 OA
ATOM     16  O   LIG    1       25.062 -24.577   5.435  0.00  0.00    +0.045 OA
ENDBRANCH  11  14
ENDBRANCH   2   9
TORSDOF 3
ENDMDL
