MODEL 1
REMARK VINA RESULT:      -6.7      0.000      0.000
REMARK  Name = *****
REMARK                            x       y       z     vdW  Elec       q    Type
REMARK                         _______ _______ _______ _____ _____    ______ ____
ROOT
ATOM      1  C   LIG    1       25.113 -22.141   7.499  0.00  0.00    -0.015 A 
ATOM      2  C   LIG    1       23.747 -22.353   7.254  0.00  0.00    +0.051 A 
ATOM      3  C   LIG    1       23.302 -23.585   6.783  0.00  0.00    +0.117 A 
ATOM      4  C   LIG    1       24.194 -24.622   6.537  0.00  0.00    +0.045 A 
ATOM      5  C   LIG    1       25.555 -24.422   6.775  0.00  0.00    +0.004 A 
ATOM      6  C   LIG    1       26.012 -23.193   7.252  0.00  0.00    +0.006 A 
ENDROOT
BRANCH   3   7
ATOM      7  O   LIG    1       21.964 -23.730   6.565  0.00  0.00    -0.507 OA
ATOM      8  H   LIG    1       21.784 -24.660   6.348  0.00  0.00    +0.292 HD
ENDBRANCH   3   7
BRANCH   1   9
ATOM      9  C   LIG    1       25.614 -20.800   7.994  0.00  0.00    +0.158 C 
BRANCH   9  10
ATOM     10  O   LIG    1       25.829 -20.856   9.411  0.00  0.00    -0.386 OA
ATOM     11  H   LIG    1       24.954 -20.945   9.829  0.00  0.00    +0.210 HD
ENDBRANCH   9  10
BRANCH   9  12
ATOM     12  C   LIG    1       26.916 -20.336   7.291  0.00  0.00    +0.116 C 
BRANCH  12  14
ATOM     13  C   LIG    1       29.173 -21.133   7.763  0.00  0.00    +0.101 C 
ATOM     14  N   LIG    1       28.101 -20.233   8.166  0.00  0.00    -0.316 NA
ATOM     15  H   LIG    1       28.442 -19.272   8.096  0.00  0.00    +0.122 HD
ENDBRANCH  12  14
ENDBRANCH   9  12
ENDBRANCH   1   9
TORSDOF 5
ENDMDL
MODEL 2
REMARK VINA RESULT:      -6.4      3.362      5.128
REMARK  Name = *****
REMARK                            x       y       z     vdW  Elec       q    Type
REMARK                         _______ _______ _______ _____ _____    ______ ____
ROOT
ATOM      1  C   LIG    1       23.599 -21.916   5.921  0.00  0.00    -0.015 A 
ATOM      2  C   LIG    1       24.847 -21.586   5.371  0.00  0.00    +0.051 A 
ATOM      3  C   LIG    1       24.984 -20.456   4.569  0.00  0.00    +0.117 A 
ATOM      4  C   LIG    1       23.893 -19.641   4.290  0.00  0.00    +0.045 A 
ATOM      5  C   LIG    1       22.647 -19.960   4.830  0.00  0.00    +0.004 A 
ATOM      6  C   LIG    1       22.499 -21.087   5.640  0.00  0.00    +0.006 A 
ENDROOT
BRANCH   3   7
ATOM      7  O   LIG    1       26.222 -20.188   4.064  0.00  0.00    -0.507 OA
ATOM      8  H   LIG    1       26.826 -20.903   4.326  0.00  0.00    +0.292 HD
ENDBRANCH   3   7
BRANCH   1   9
ATOM      9  C   LIG    1       23.431 -23.153   6.780  0.00  0.00    +0.158 C 
BRANCH   9  10
ATOM     10  O   LIG    1       22.113 -23.688   6.605  0.00  0.00    -0.386 OA
ATOM     11  H   LIG    1       21.661 -23.622   7.465  0.00  0.00    +0.210 HD
ENDBRANCH   9  10
BRANCH   9  12
ATOM     12  C   LIG    1       24.481 -24.254   6.480  0.00  0.00    +0.116 C 
BRANCH  12  14
ATOM     13  C   LIG    1       24.306 -26.632   5.966  0.00  0.00    +0.101 C 
ATOM     14  N   LIG    1       24.060 -25.274   5.500  0.00  0.00    -0.316 NA
ATOM     15  H   LIG    1       23.053 -25.157   5.361  0.00  0.00    +0.122 HD
ENDBRANCH  12  14
ENDBRANCH   9  12
ENDBRANCH   1   9
TORSDOF 5
ENDMDL
MODEL 3
REMARK VINA RESULT:      -6.4      3.067      4.364
REMARK  Name = *****
REMARK                            x       y       z     vdW  Elec       q    Type
REMARK                         _______ _______ _______ _____ _____    ______ ____
ROOT
ATOM      1  C   LIG    1       28.361 -19.995   6.814  0.00  0.00    -0.015 A 
ATOM      2  C   LIG    1       27.762 -20.216   8.063  0.00  0.00    +0.051 A 
ATOM      3  C   LIG    1       26.407 -20.522   8.147  0.00  0.00    +0.117 A 
ATOM      4  C   LIG    1       25.620 -20.606   7.004  0.00  0.00    +0.045 A 
ATOM      5  C   LIG    1       26.204 -20.387   5.756  0.00  0.00    +0.004 A 
ATOM      6  C   LIG    1       27.563 -20.084   5.659  0.00  0.00    +0.006 A 
ENDROOT
BRANCH   3   7
ATOM      7  O   LIG    1       25.882 -20.726   9.389  0.00  0.00    -0.507 OA
ATOM      8  H   LIG    1       26.573 -20.550  10.050  0.00  0.00    +0.292 HD
ENDBRANCH   3   7
BRANCH   1   9
ATOM      9  C   LIG    1       29.831 -19.643   6.708  0.00  0.00    +0.158 C 
BRANCH   9  10
ATOM     10  O   LIG    1       29.975 -18.325   6.163  0.00  0.00    -0.386 OA
ATOM     11  H   LIG    1       30.834 -18.297   5.706  0.00  0.00    +0.210 HD
ENDBRANCH   9  10
BRANCH   9  12
ATOM     12  C   LIG    1       30.580 -19.729   8.063  0.00  0.00    +0.116 C 
BRANCH  12  14
ATOM     13  C   LIG    1       31.094 -21.864   9.125  0.00  0.00    +0.101 C 
ATOM     14  N   LIG    1       31.538 -20.846   8.182  0.00  0.00    -0.316 NA
ATOM     15  H   LIG    1       31.614 -21.275   7.256  0.00  0.00    +0.122 HD
ENDBRANCH  12  14
ENDBRANCH   9  12
ENDBRANCH   1   9
TORSDOF 5
ENDMDL
MODEL 4
REMARK VINA RESULT:      -6.3      3.760      5.037
REMARK  Name = *****
REMARK                            x       y       z     vdW  Elec       q    Type
REMARK                         _______ _______ _______ _____ _____    ______ ____
ROOT
ATOM      1  C   LIG    1       23.830 -21.019   5.786  0.00  0.00    -0.015 A 
ATOM      2  C   LIG    1       24.885 -20.675   4.927  0.00  0.00    +0.051 A 
ATOM      3  C   LIG    1       24.721 -19.660   3.988  0.00  0.00    +0.117 A 
ATOM      4  C   LIG    1       23.516 -18.977   3.874  0.00  0.00    +0.045 A 
ATOM      5  C   LIG    1       22.459 -19.312   4.723  0.00  0.00    +0.004 A 
ATOM      6  C   LIG    1       22.614 -20.324   5.672  0.00  0.00    +0.006 A 
ENDROOT
BRANCH   3   7
ATOM      7  O   LIG    1       25.782 -19.371   3.181  0.00  0.00    -0.507 OA
ATOM      8  H   LIG    1       25.787 -19.999   2.439  0.00  0.00    +0.292 HD
ENDBRANCH   3   7
BRANCH   1   9
ATOM      9  C   LIG    1       23.988 -22.133   6.800  0.00  0.00    +0.158 C 
BRANCH   9  10
ATOM     10  O   LIG    1       24.141 -21.575   8.112  0.00  0.00    -0.386 OA
ATOM     11  H   LIG    1       24.233 -20.612   8.005  0.00  0.00    +0.210 HD
ENDBRANCH   9  10
BRANCH   9  12
ATOM     12  C   LIG    1       22.804 -23.135   6.798  0.00  0.00    +0.116 C 
BRANCH  12  14
ATOM     13  C   LIG    1       24.604 -24.720   6.351  0.00  0.00    +0.101 C 
ATOM     14  N   LIG    1       23.169 -24.538   6.519  0.00  0.00    -0.316 NA
ATOM     15  H   LIG    1       22.864 -25.092   7.323  0.00  0.00    +0.122 HD
ENDBRANCH  12  14
ENDBRANCH   9  12
ENDBRANCH   1   9
TORSDOF 5
ENDMDL
MODEL 5
REMARK VINA RESULT:      -6.3      5.066      6.406
REMARK  Name = *****
REMARK                            x       y       z     vdW  Elec       q    Type
REMARK                         _______ _______ _______ _____ _____    ______ ____
ROOT
ATOM      1  C   LIG    1       30.192 -19.497   7.935  0.00  0.00    -0.015 A 
ATOM      2  C   LIG    1       30.021 -18.610   6.862  0.00  0.00    +0.051 A 
ATOM      3  C   LIG    1       29.126 -18.911   5.839  0.00  0.00    +0.117 A 
ATOM      4  C   LIG    1       28.394 -20.093   5.853  0.00  0.00    +0.045 A 
ATOM      5  C   LIG    1       28.557 -20.984   6.915  0.00  0.00    +0.004 A 
ATOM      6  C   LIG    1       29.448 -20.690   7.949  0.00  0.00    +0.006 A 
ENDROOT
BRANCH   3   7
ATOM      7  O   LIG    1       29.003 -18.009   4.823  0.00  0.00    -0.507 OA
ATOM      8  H   LIG    1       28.112 -18.089   4.444  0.00  0.00    +0.292 HD
ENDBRANCH   3   7
BRANCH   1   9
ATOM      9  C   LIG    1       31.176 -19.192   9.046  0.00  0.00    +0.158 C 
BRANCH   9  10
ATOM     10  O   LIG    1       32.094 -20.284   9.193  0.00  0.00    -0.386 OA
ATOM     11  H   LIG    1       32.058 -20.801   8.370  0.00  0.00    +0.210 HD
ENDBRANCH   9  10
BRANCH   9  12
ATOM     12  C   LIG    1       31.967 -17.877   8.820  0.00  0.00    +0.116 C 
BRANCH  12  14
ATOM     13  C   LIG    1       32.819 -15.867   9.909  0.00  0.00    +0.101 C 
ATOM     14  N   LIG    1       32.586 -17.300  10.030  0.00  0.00    -0.316 NA
ATOM     15  H   LIG    1       31.934 -17.457  10.803  0.00  0.00    +0.122 HD
ENDBRANCH  12  14
ENDBRANCH   9  12
ENDBRANCH   1   9
TORSDOF 5
ENDMDL
MODEL 6
REMARK VINA RESULT:      -6.3      3.566      4.629
REMARK  Name = *****
REMARK                            x       y       z     vdW  Elec       q    Type
REMARK                         _______ _______ _______ _____ _____    ______ ____
ROOT
ATOM      1  C   LIG    1       28.779 -19.951   7.010  0.00  0.00    -0.015 A 
ATOM      2  C   LIG    1       28.160 -19.940   5.751  0.00  0.00    +0.051 A 
ATOM      3  C   LIG    1       26.802 -20.219   5.635  0.00  0.00    +0.117 A 
ATOM      4  C   LIG    1       26.034 -20.520   6.754  0.00  0.00    +0.045 A 
ATOM      5  C   LIG    1       26.639 -20.535   8.012  0.00  0.00    +0.004 A 
ATOM      6  C   LIG    1       28.000 -20.253   8.141  0.00  0.00    +0.006 A 
ENDROOT
BRANCH   3   7
ATOM      7  O   LIG    1       26.257 -20.193   4.385  0.00  0.00    -0.507 OA
ATOM      8  H   LIG    1       25.489 -19.598   4.393  0.00  0.00    +0.292 HD
ENDBRANCH   3   7
BRANCH   1   9
ATOM      9  C   LIG    1       30.261 -19.668   7.150  0.00  0.00    +0.158 C 
BRANCH   9  10
ATOM     10  O   LIG    1       30.602 -18.493   6.402  0.00  0.00    -0.386 OA
ATOM     11  H   LIG    1       29.857 -17.873   6.488  0.00  0.00    +0.210 HD
ENDBRANCH   9  10
BRANCH   9  12
ATOM     12  C   LIG    1       30.715 -19.496   8.622  0.00  0.00    +0.116 C 
BRANCH  12  14
ATOM     13  C   LIG    1       31.316 -21.810   9.106  0.00  0.00    +0.101 C 
ATOM     14  N   LIG    1       31.771 -20.427   9.067  0.00  0.00    -0.316 NA
ATOM     15  H   LIG    1       32.536 -20.357   8.392  0.00  0.00    +0.122 HD
ENDBRANCH  12  14
ENDBRANCH   9  12
ENDBRANCH   1   9
TORSDOF 5
ENDMDL
MODEL 7
REMARK VINA RESULT:      -6.3      3.166      3.952
REMARK  Name = *****
REMARK                            x       y       z     vdW  Elec       q    Type
REMARK                         _______ _______ _______ _____ _____    ______ ____
ROOT
ATOM      1  C   LIG    1       27.687 -20.288   7.317  0.00  0.00    -0.015 A 
ATOM      2  C   LIG    1       27.429 -20.201   5.941  0.00  0.00    +0.051 A 
ATOM      3  C   LIG    1       26.135 -20.374   5.457  0.00  0.00    +0.117 A 
ATOM      4  C   LIG    1       25.079 -20.645   6.320  0.00  0.00    +0.045 A 
ATOM      5  C   LIG    1       25.324 -20.736   7.690  0.00  0.00    +0.004 A 
ATOM      6  C   LIG    1       26.616 -20.559   8.187  0.00  0.00    +0.006 A 
ENDROOT
BRANCH   3   7
ATOM      7  O   LIG    1       25.948 -20.277   4.110  0.00  0.00    -0.507 OA
ATOM      8  H   LIG    1       26.576 -19.626   3.755  0.00  0.00    +0.292 HD
ENDBRANCH   3   7
BRANCH   1   9
ATOM      9  C   LIG    1       29.093 -20.121   7.856  0.00  0.00    +0.158 C 
BRANCH   9  10
ATOM     10  O   LIG    1       29.506 -21.325   8.515  0.00  0.00    -0.386 OA
ATOM     11  H   LIG    1       29.724 -21.971   7.819  0.00  0.00    +0.210 HD
ENDBRANCH   9  10
BRANCH   9  12
ATOM     12  C   LIG    1       30.127 -19.746   6.764  0.00  0.00    +0.116 C 
BRANCH  12  14
ATOM     13  C   LIG    1       31.749 -18.608   8.187  0.00  0.00    +0.101 C 
ATOM     14  N   LIG    1       31.529 -19.677   7.223  0.00  0.00    -0.316 NA
ATOM     15  H   LIG    1       31.740 -20.570   7.675  0.00  0.00    +0.122 HD
ENDBRANCH  12  14
ENDBRANCH   9  12
ENDBRANCH   1   9
TORSDOF 5
ENDMDL
MODEL 8
REMARK VINA RESULT:      -6.2      1.296      1.900
REMARK  Name = *****
REMARK                            x       y       z     vdW  Elec       q    Type
REMARK                         _______ _______ _______ _____ _____    ______ ____
ROOT
ATOM      1  C   LIG    1       25.002 -22.034   7.502  0.00  0.00    -0.015 A 
ATOM      2  C   LIG    1       25.810 -23.142   7.207  0.00  0.00    +0.051 A 
ATOM      3  C   LIG    1       25.240 -24.319   6.731  0.00  0.00    +0.117 A 
ATOM      4  C   LIG    1       23.866 -24.425   6.546  0.00  0.00    +0.045 A 
ATOM      5  C   LIG    1       23.052 -23.329   6.837  0.00  0.00    +0.004 A 
ATOM      6  C   LIG    1       23.614 -22.142   7.311  0.00  0.00    +0.006 A 
ENDROOT
BRANCH   3   7
ATOM      7  O   LIG    1       26.077 -25.362   6.462  0.00  0.00    -0.507 OA
ATOM      8  H   LIG    1       26.669 -25.488   7.222  0.00  0.00    +0.292 HD
ENDBRANCH   3   7
BRANCH   1   9
ATOM      9  C   LIG    1       25.607 -20.752   8.038  0.00  0.00    +0.158 C 
BRANCH   9  10
ATOM     10  O   LIG    1       25.806 -20.866   9.454  0.00  0.00    -0.386 OA
ATOM     11  H   LIG    1       25.676 -21.803   9.686  0.00  0.00    +0.210 HD
ENDBRANCH   9  10
BRANCH   9  12
ATOM     12  C   LIG    1       26.947 -20.375   7.356  0.00  0.00    +0.116 C 
BRANCH  12  14
ATOM     13  C   LIG    1       29.252 -21.096   7.699  0.00  0.00    +0.101 C 
ATOM     14  N   LIG    1       28.124 -20.356   8.248  0.00  0.00    -0.316 NA
ATOM     15  H   LIG    1       28.401 -19.377   8.356  0.00  0.00    +0.122 HD
ENDBRANCH  12  14
ENDBRANCH   9  12
ENDBRANCH   1   9
TORSDOF 5
ENDMDL
MODEL 9
REMARK VINA RESULT:      -6.1      2.531      3.230
REMARK  Name = *****
REMARK                            x       y       z     vdW  Elec       q    Type
REMARK                         _______ _______ _______ _____ _____    ______ ____
ROOT
ATOM      1  C   LIG    1       25.334 -20.671   7.072  0.00  0.00    -0.015 A 
ATOM      2  C   LIG    1       25.841 -20.412   5.789  0.00  0.00    +0.051 A 
ATOM      3  C   LIG    1       24.975 -20.254   4.711  0.00  0.00    +0.117 A 
ATOM      4  C   LIG    1       23.599 -20.358   4.878  0.00  0.00    +0.045 A 
ATOM      5  C   LIG    1       23.083 -20.617   6.148  0.00  0.00    +0.004 A 
ATOM      6  C   LIG    1       23.942 -20.772   7.238  0.00  0.00    +0.006 A 
ENDROOT
BRANCH   3   7
ATOM      7  O   LIG    1       25.527 -20.004   3.490  0.00  0.00    -0.507 OA
ATOM      8  H   LIG    1       26.430 -20.364   3.478  0.00  0.00    +0.292 HD
ENDBRANCH   3   7
BRANCH   1   9
ATOM      9  C   LIG    1       26.266 -20.864   8.251  0.00  0.00    +0.158 C 
BRANCH   9  10
ATOM     10  O   LIG    1       25.558 -21.490   9.329  0.00  0.00    -0.386 OA
ATOM     11  H   LIG    1       24.627 -21.566   9.055  0.00  0.00    +0.210 HD
ENDBRANCH   9  10
BRANCH   9  12
ATOM     12  C   LIG    1       27.527 -21.696   7.905  0.00  0.00    +0.116 C 
BRANCH  12  14
ATOM     13  C   LIG    1       29.390 -20.345   7.096  0.00  0.00    +0.101 C 
ATOM     14  N   LIG    1       28.815 -21.052   8.232  0.00  0.00    -0.316 NA
ATOM     15  H   LIG    1       28.629 -20.373   8.975  0.00  0.00    +0.122 HD
ENDBRANCH  12  14
ENDBRANCH   9  12
ENDBRANCH   1   9
TORSDOF 5
ENDMDL
