MODEL 1
REMARK VINA RESULT:      -3.4      0.000      0.000
REMARK  Name = *****
REMARK                            x       y       z     vdW  Elec       q    Type
REMARK                         _______ _______ _______ _____ _____    ______ ____
ROOT
ATOM      1  C   UNK A  0       22.279 -17.941   4.345  0.00  0.00    -0.047 A 
ATOM      2  C   UNK A  0       23.426 -17.672   3.581  0.00  0.00    +0.004 A 
ATOM      3  C   UNK A  0       23.982 -16.389   3.558  0.00  0.00    +0.013 A 
ATOM      4  C   UNK A  0       23.408 -15.363   4.316  0.00  0.00    +0.037 A 
ATOM      5  C   UNK A  0       22.250 -15.620   5.059  0.00  0.00    +0.013 A 
ATOM      6  C   UNK A  0       21.693 -16.901   5.076  0.00  0.00    +0.004 A 
ENDROOT
BRANCH   4   7
ATOM      7  C   UNK A  0       24.033 -14.010   4.300  0.00  0.00    +0.245 C 
ATOM      8  N   GLU A  1       25.270 -13.897   4.921  0.00  0.00    -0.298 N 
ATOM      9  H   GLU A  1       25.757 -14.752   5.167  0.00  0.00    +0.150 HD
ATOM     10  O   UNK A  0       23.484 -13.073   3.734  0.00  0.00    -0.270 OA
BRANCH   8  11
ATOM     11  CA  GLU A  1       26.012 -12.622   4.890  0.00  0.00    +0.182 C 
BRANCH  11  12
ATOM     12  C   GLU A  1       27.301 -12.760   5.724  0.00  0.00    +0.325 C 
ATOM     13  O   GLU A  1       28.317 -12.114   5.531  0.00  0.00    -0.249 OA
BRANCH  12  14
ATOM     14  OXT GLU A  1       27.271 -13.821   6.575  0.00  0.00    -0.479 OA
ATOM     15  HXT GLU A  1       27.583 -13.552   7.460  0.00  0.00    +0.295 HD
ENDBRANCH  12  14
ENDBRANCH  11  12
BRANCH  11  16
ATOM     16  CB  GLU A  1       26.372 -12.254   3.440  0.00  0.00    +0.045 C 
BRANCH  16  17
ATOM     17  CG  GLU A  1       26.724 -13.462   2.562  0.00  0.00    +0.123 C 
BRANCH  17  18
ATOM     18  CD  GLU A  1       27.823 -14.299   3.176  0.00  0.00    +0.305 C 
ATOM     19  OE1 GLU A  1       27.661 -15.386   3.704  0.00  0.00    -0.251 OA
BRANCH  18  20
ATOM     20  OE2 GLU A  1       29.037 -13.709   3.088  0.00  0.00    -0.481 OA
ATOM     21  HE2 GLU A  1       29.599 -13.824   3.879  0.00  0.00    +0.295 HD
ENDBRANCH  18  20
ENDBRANCH  17  18
ENDBRANCH  16  17
ENDBRANCH  11  16
ENDBRANCH   8  11
ENDBRANCH   4   7
BRANCH   1  22
ATOM     22  C   UNK A  0       21.635 -19.310   4.312  0.00  0.00    +0.040 C 
BRANCH  22  23
ATOM     23  C   UNK A  0       22.603 -20.452   3.975  0.00  0.00    +0.042 C 
BRANCH  23  34
ATOM     24  C   UNK A  0       27.507 -20.501   6.018  0.00  0.00    +0.195 C 
ATOM     25  N   UNK A  0       27.165 -19.968   4.792  0.00  0.00    -0.295 N 
ATOM     26  H   UNK A  0       27.865 -19.516   4.228  0.00  0.00    +0.172 HD
ATOM     27  C   UNK A  0       25.887 -19.948   4.286  0.00  0.00    +0.262 C 
ATOM     28  O   UNK A  0       25.635 -19.465   3.178  0.00  0.00    -0.267 OA
ATOM     29  C   UNK A  0       24.920 -20.560   5.167  0.00  0.00    +0.086 C 
ATOM     30  C   UNK A  0       25.380 -21.039   6.373  0.00  0.00    +0.147 C 
ATOM     31  N   UNK A  0       24.319 -21.546   7.062  0.00  0.00    -0.345 NA
ATOM     32  H   UNK A  0       24.382 -21.958   7.982  0.00  0.00    +0.167 HD
ATOM     33  C   UNK A  0       23.180 -21.416   6.302  0.00  0.00    +0.088 C 
ATOM     34  C   UNK A  0       23.519 -20.807   5.103  0.00  0.00    -0.015 C 
ATOM     35  N   UNK A  0       26.648 -21.039   6.839  0.00  0.00    -0.198 NA
BRANCH  24  36
ATOM     36  N   UNK A  0       28.824 -20.470   6.334  0.00  0.00    -0.329 NA
ATOM     37  H   UNK A  0       29.047 -20.267   7.300  0.00  0.00    +0.145 HD
ATOM     38  H   UNK A  0       29.348 -19.893   5.685  0.00  0.00    +0.145 HD
ENDBRANCH  24  36
ENDBRANCH  23  34
ENDBRANCH  22  23
ENDBRANCH   1  22
TORSDOF 12
ENDMDL
MODEL 2
REMARK VINA RESULT:      -1.9      1.287      2.007
REMARK  Name = *****
REMARK                            x       y       z     vdW  Elec       q    Type
REMARK                         _______ _______ _______ _____ _____    ______ ____
ROOT
ATOM      1  C   UNK A  0       22.612 -19.129   4.537  0.00  0.00    -0.047 A 
ATOM      2  C   UNK A  0       22.236 -18.324   5.624  0.00  0.00    +0.004 A 
ATOM      3  C   UNK A  0       22.459 -16.943   5.599  0.00  0.00    +0.013 A 
ATOM      4  C   UNK A  0       23.043 -16.348   4.475  0.00  0.00    +0.037 A 
ATOM      5  C   UNK A  0       23.442 -17.150   3.400  0.00  0.00    +0.013 A 
ATOM      6  C   UNK A  0       23.224 -18.530   3.430  0.00  0.00    +0.004 A 
ENDROOT
BRANCH   4   7
ATOM      7  C   UNK A  0       23.245 -14.871   4.457  0.00  0.00    +0.245 C 
ATOM      8  N   GLU A  1       24.305 -14.406   3.689  0.00  0.00    -0.298 N 
ATOM      9  H   GLU A  1       24.743 -15.054   3.044  0.00  0.00    +0.150 HD
ATOM     10  O   UNK A  0       22.487 -14.127   5.066  0.00  0.00    -0.270 OA
BRANCH   8  11
ATOM     11  CA  GLU A  1       24.542 -12.958   3.537  0.00  0.00    +0.182 C 
BRANCH  11  12
ATOM     12  C   GLU A  1       24.513 -12.286   4.923  0.00  0.00    +0.325 C 
ATOM     13  O   GLU A  1       23.694 -11.450   5.264  0.00  0.00    -0.249 OA
BRANCH  12  14
ATOM     14  OXT GLU A  1       25.615 -12.565   5.671  0.00  0.00    -0.479 OA
ATOM     15  HXT GLU A  1       25.585 -13.489   5.983  0.00  0.00    +0.295 HD
ENDBRANCH  12  14
ENDBRANCH  11  12
BRANCH  11  16
ATOM     16  CB  GLU A  1       25.908 -12.713   2.873  0.00  0.00    +0.045 C 
BRANCH  16  17
ATOM     17  CG  GLU A  1       26.738 -13.988   2.669  0.00  0.00    +0.123 C 
BRANCH  17  18
ATOM     18  CD  GLU A  1       27.993 -13.979   3.511  0.00  0.00    +0.305 C 
ATOM     19  OE1 GLU A  1       28.797 -13.064   3.557  0.00  0.00    -0.251 OA
BRANCH  18  20
ATOM     20  OE2 GLU A  1       28.148 -15.118   4.225  0.00  0.00    -0.481 OA
ATOM     21  HE2 GLU A  1       28.673 -15.013   5.042  0.00  0.00    +0.295 HD
ENDBRANCH  18  20
ENDBRANCH  17  18
ENDBRANCH  16  17
ENDBRANCH  11  16
ENDBRANCH   8  11
ENDBRANCH   4   7
BRANCH   1  22
ATOM     22  C   UNK A  0       22.439 -20.631   4.595  0.00  0.00    +0.040 C 
BRANCH  22  23
ATOM     23  C   UNK A  0       23.722 -21.424   4.313  0.00  0.00    +0.042 C 
BRANCH  23  34
ATOM     24  C   UNK A  0       28.243 -18.809   5.286  0.00  0.00    +0.195 C 
ATOM     25  N   UNK A  0       27.518 -18.728   4.114  0.00  0.00    -0.295 N 
ATOM     26  H   UNK A  0       27.819 -18.112   3.379  0.00  0.00    +0.172 HD
ATOM     27  C   UNK A  0       26.339 -19.398   3.886  0.00  0.00    +0.262 C 
ATOM     28  O   UNK A  0       25.732 -19.299   2.816  0.00  0.00    -0.267 OA
ATOM     29  C   UNK A  0       25.932 -20.220   5.001  0.00  0.00    +0.086 C 
ATOM     30  C   UNK A  0       26.729 -20.202   6.124  0.00  0.00    +0.147 C 
ATOM     31  N   UNK A  0       26.161 -21.012   7.061  0.00  0.00    -0.345 NA
ATOM     32  H   UNK A  0       26.545 -21.173   7.982  0.00  0.00    +0.167 HD
ATOM     33  C   UNK A  0       25.013 -21.569   6.547  0.00  0.00    +0.088 C 
ATOM     34  C   UNK A  0       24.840 -21.099   5.253  0.00  0.00    -0.015 C 
ATOM     35  N   UNK A  0       27.883 -19.527   6.313  0.00  0.00    -0.198 NA
BRANCH  24  36
ATOM     36  N   UNK A  0       29.404 -18.110   5.317  0.00  0.00    -0.329 NA
ATOM     37  H   UNK A  0       29.549 -17.520   6.125  0.00  0.00    +0.145 HD
ATOM     38  H   UNK A  0       29.564 -17.618   4.443  0.00  0.00    +0.145 HD
ENDBRANCH  24  36
ENDBRANCH  23  34
ENDBRANCH  22  23
ENDBRANCH   1  22
TORSDOF 12
ENDMDL
MODEL 3
REMARK VINA RESULT:      -0.9      1.081      1.904
REMARK  Name = *****
REMARK                            x       y       z     vdW  Elec       q    Type
REMARK                         _______ _______ _______ _____ _____    ______ ____
ROOT
ATOM      1  C   UNK A  0       22.315 -18.147   4.043  0.00  0.00    -0.047 A 
ATOM      2  C   UNK A  0       21.694 -17.247   4.924  0.00  0.00    +0.004 A 
ATOM      3  C   UNK A  0       22.235 -15.976   5.142  0.00  0.00    +0.013 A 
ATOM      4  C   UNK A  0       23.395 -15.583   4.466  0.00  0.00    +0.037 A 
ATOM      5  C   UNK A  0       24.031 -16.486   3.606  0.00  0.00    +0.013 A 
ATOM      6  C   UNK A  0       23.491 -17.757   3.394  0.00  0.00    +0.004 A 
ENDROOT
BRANCH   4   7
ATOM      7  C   UNK A  0       23.940 -14.214   4.691  0.00  0.00    +0.245 C 
ATOM      8  N   GLU A  1       25.323 -14.103   4.736  0.00  0.00    -0.298 N 
ATOM      9  H   GLU A  1       25.872 -14.896   4.422  0.00  0.00    +0.150 HD
ATOM     10  O   UNK A  0       23.191 -13.251   4.795  0.00  0.00    -0.270 OA
BRANCH   8  11
ATOM     11  CA  GLU A  1       25.967 -12.783   4.872  0.00  0.00    +0.182 C 
BRANCH  11  12
ATOM     12  C   GLU A  1       27.287 -12.934   5.653  0.00  0.00    +0.325 C 
ATOM     13  O   GLU A  1       28.361 -12.497   5.278  0.00  0.00    -0.249 OA
BRANCH  12  14
ATOM     14  OXT GLU A  1       27.182 -13.783   6.711  0.00  0.00    -0.479 OA
ATOM     15  HXT GLU A  1       27.165 -13.279   7.547  0.00  0.00    +0.295 HD
ENDBRANCH  12  14
ENDBRANCH  11  12
BRANCH  11  16
ATOM     16  CB  GLU A  1       26.255 -12.188   3.483  0.00  0.00    +0.045 C 
BRANCH  16  17
ATOM     17  CG  GLU A  1       26.335 -13.235   2.363  0.00  0.00    +0.123 C 
BRANCH  17  18
ATOM     18  CD  GLU A  1       27.363 -14.300   2.666  0.00  0.00    +0.305 C 
ATOM     19  OE1 GLU A  1       27.108 -15.467   2.910  0.00  0.00    -0.251 OA
BRANCH  18  20
ATOM     20  OE2 GLU A  1       28.628 -13.823   2.648  0.00  0.00    -0.481 OA
ATOM     21  HE2 GLU A  1       29.042 -13.811   1.763  0.00  0.00    +0.295 HD
ENDBRANCH  18  20
ENDBRANCH  17  18
ENDBRANCH  16  17
ENDBRANCH  11  16
ENDBRANCH   8  11
ENDBRANCH   4   7
BRANCH   1  22
ATOM     22  C   UNK A  0       21.770 -19.548   3.863  0.00  0.00    +0.040 C 
BRANCH  22  23
ATOM     23  C   UNK A  0       22.754 -20.660   4.249  0.00  0.00    +0.042 C 
BRANCH  23  34
ATOM     24  C   UNK A  0       27.624 -20.260   6.336  0.00  0.00    +0.195 C 
ATOM     25  N   UNK A  0       26.524 -20.780   6.987  0.00  0.00    -0.295 N 
ATOM     26  H   UNK A  0       26.620 -21.153   7.916  0.00  0.00    +0.172 HD
ATOM     27  C   UNK A  0       25.274 -20.893   6.425  0.00  0.00    +0.262 C 
ATOM     28  O   UNK A  0       24.319 -21.360   7.053  0.00  0.00    -0.267 OA
ATOM     29  C   UNK A  0       25.215 -20.393   5.071  0.00  0.00    +0.086 C 
ATOM     30  C   UNK A  0       26.385 -19.916   4.523  0.00  0.00    +0.147 C 
ATOM     31  N   UNK A  0       26.125 -19.524   3.244  0.00  0.00    -0.345 NA
ATOM     32  H   UNK A  0       26.817 -19.137   2.616  0.00  0.00    +0.167 HD
ATOM     33  C   UNK A  0       24.794 -19.726   2.967  0.00  0.00    +0.088 C 
ATOM     34  C   UNK A  0       24.189 -20.265   4.093  0.00  0.00    -0.015 C 
ATOM     35  N   UNK A  0       27.600 -19.823   5.107  0.00  0.00    -0.198 NA
BRANCH  24  36
ATOM     36  N   UNK A  0       28.766 -20.188   7.061  0.00  0.00    -0.329 NA
ATOM     37  H   UNK A  0       29.628 -20.328   6.551  0.00  0.00    +0.145 HD
ATOM     38  H   UNK A  0       28.711 -20.763   7.897  0.00  0.00    +0.145 HD
ENDBRANCH  24  36
ENDBRANCH  23  34
ENDBRANCH  22  23
ENDBRANCH   1  22
TORSDOF 12
ENDMDL
