MODEL 1
REMARK VINA RESULT:      10.9      0.000      0.000
REMARK  Name = *****
REMARK                            x       y       z     vdW  Elec       q    Type
REMARK                         _______ _______ _______ _____ _____    ______ ____
ROOT
ATOM      1  P   LIG    1       24.406 -18.391   3.034  0.00  0.00    +0.216 P 
ATOM      2  O   LIG    1       23.660 -19.612   2.451  0.00  0.00    -0.290 OA
ENDROOT
BRANCH   1   3
ATOM      3  O   LIG    1       23.379 -18.271   4.393  0.00  0.00    -0.286 OA
BRANCH   3   4
ATOM      4  C   LIG    1       22.265 -19.189   4.469  0.00  0.00    +0.320 C 
BRANCH   4   5
ATOM      5  C   LIG    1       22.253 -19.938   5.843  0.00  0.00    +0.052 C 
ATOM      6  C   LIG    1       23.435 -19.538   6.744  0.00  0.00    +0.013 C 
ATOM      7  C   LIG    1       22.275 -21.466   5.700  0.00  0.00    +0.013 C 
ENDBRANCH   4   5
BRANCH   4   8
ATOM      8  O   LIG    1       21.077 -18.407   4.357  0.00  0.00    -0.434 OA
BRANCH   8   9
ATOM      9  C   LIG    1       20.075 -18.944   3.596  0.00  0.00    +0.309 C 
ATOM     10  O   LIG    1       19.630 -20.059   3.659  0.00  0.00    -0.251 OA
BRANCH   9  12
ATOM     11  C   LIG    1       20.870 -16.978   2.282  0.00  0.00    +0.015 C 
ATOM     12  C   LIG    1       19.692 -17.890   2.572  0.00  0.00    +0.117 C 
ENDBRANCH   9  12
ENDBRANCH   8   9
ENDBRANCH   4   8
ENDBRANCH   3   4
ENDBRANCH   1   3
BRANCH   1  13
ATOM     13  C   LIG    1       25.290 -16.945   3.725  0.00  0.00    +0.193 C 
BRANCH  13  14
ATOM     14  C   LIG    1       24.453 -15.688   3.732  0.00  0.00    +0.226 C 
ATOM     15  N   LIG    1       25.070 -14.516   3.366  0.00  0.00    -0.287 N 
ATOM     16  C   LIG    1       24.496 -13.197   3.610  0.00  0.00    +0.185 C 
ATOM     17  C   LIG    1       25.746 -12.366   3.924  0.00  0.00    +0.039 C 
ATOM     18  C   LIG    1       26.851 -12.947   3.021  0.00  0.00    +0.012 C 
ATOM     19  C   LIG    1       26.426 -14.401   2.873  0.00  0.00    +0.112 C 
ATOM     20  O   LIG    1       23.302 -15.697   4.169  0.00  0.00    -0.275 OA
BRANCH  18  21
ATOM     21  C   LIG    1       28.281 -12.844   3.604  0.00  0.00    -0.006 C 
ATOM     22  C   LIG    1       28.411 -11.768   4.709  0.00  0.00    +0.004 C 
ATOM     23  C   LIG    1       27.866 -12.214   6.060  0.00  0.00    +0.000 C 
ATOM     24  C   LIG    1       28.529 -13.508   6.506  0.00  0.00    +0.000 C 
ATOM     25  C   LIG    1       28.320 -14.610   5.475  0.00  0.00    +0.000 C 
ATOM     26  C   LIG    1       28.821 -14.199   4.091  0.00  0.00    +0.004 C 
ENDBRANCH  18  21
BRANCH  16  27
ATOM     27  C   LIG    1       23.703 -12.674   2.398  0.00  0.00    +0.326 C 
ATOM     28  O   LIG    1       23.935 -11.619   1.816  0.00  0.00    -0.249 OA
BRANCH  27  29
ATOM     29  O   LIG    1       22.707 -13.497   1.989  0.00  0.00    -0.479 OA
ATOM     30  H   LIG    1       22.073 -13.102   1.357  0.00  0.00    +0.295 HD
ENDBRANCH  27  29
ENDBRANCH  16  27
ENDBRANCH  13  14
ENDBRANCH   1  13
BRANCH   1  31
ATOM     31  C   LIG    1       25.771 -19.606   3.952  0.00  0.00    +0.098 C 
BRANCH  31  32
ATOM     32  C   LIG    1       25.432 -21.081   4.052  0.00  0.00    +0.010 C 
BRANCH  32  33
ATOM     33  C   LIG    1       24.867 -21.571   5.377  0.00  0.00    +0.005 C 
BRANCH  33  34
ATOM     34  C   LIG    1       25.735 -21.351   6.629  0.00  0.00    +0.035 C 
BRANCH  34  35
ATOM     35  C   LIG    1       27.075 -20.666   6.487  0.00  0.00    -0.047 A 
ATOM     36  C   LIG    1       28.074 -21.230   5.673  0.00  0.00    +0.003 A 
ATOM     37  C   LIG    1       29.257 -20.535   5.402  0.00  0.00    +0.000 A 
ATOM     38  C   LIG    1       29.468 -19.272   5.948  0.00  0.00    +0.000 A 
ATOM     39  C   LIG    1       28.508 -18.721   6.792  0.00  0.00    +0.000 A 
ATOM     40  C   LIG    1       27.319 -19.409   7.058  0.00  0.00    +0.003 A 
ENDBRANCH  34  35
ENDBRANCH  33  34
ENDBRANCH  32  33
ENDBRANCH  31  32
ENDBRANCH   1  31
TORSDOF 16
ENDMDL
MODEL 2
REMARK VINA RESULT:      13.2      1.965      3.096
REMARK  Name = *****
REMARK                            x       y       z     vdW  Elec       q    Type
REMARK                         _______ _______ _______ _____ _____    ______ ____
ROOT
ATOM      1  P   LIG    1       24.335 -17.636   3.332  0.00  0.00    +0.216 P 
ATOM      2  O   LIG    1       23.139 -18.032   2.438  0.00  0.00    -0.290 OA
ENDROOT
BRANCH   1   3
ATOM      3  O   LIG    1       23.922 -18.741   4.566  0.00  0.00    -0.286 OA
BRANCH   3   4
ATOM      4  C   LIG    1       22.584 -19.288   4.551  0.00  0.00    +0.320 C 
BRANCH   4   5
ATOM      5  C   LIG    1       22.298 -20.098   5.859  0.00  0.00    +0.052 C 
ATOM      6  C   LIG    1       23.478 -20.059   6.847  0.00  0.00    +0.013 C 
ATOM      7  C   LIG    1       21.961 -21.572   5.597  0.00  0.00    +0.013 C 
ENDBRANCH   4   5
BRANCH   4   8
ATOM      8  O   LIG    1       21.686 -18.182   4.484  0.00  0.00    -0.434 OA
BRANCH   8   9
ATOM      9  C   LIG    1       20.607 -18.334   3.659  0.00  0.00    +0.309 C 
ATOM     10  O   LIG    1       19.733 -19.156   3.746  0.00  0.00    -0.251 OA
BRANCH   9  12
ATOM     11  C   LIG    1       19.433 -17.050   1.871  0.00  0.00    +0.015 C 
ATOM     12  C   LIG    1       20.770 -17.325   2.536  0.00  0.00    +0.117 C 
ENDBRANCH   9  12
ENDBRANCH   8   9
ENDBRANCH   4   8
ENDBRANCH   3   4
ENDBRANCH   1   3
BRANCH   1  13
ATOM     13  C   LIG    1       25.751 -17.167   4.392  0.00  0.00    +0.193 C 
BRANCH  13  14
ATOM     14  C   LIG    1       26.814 -16.392   3.650  0.00  0.00    +0.226 C 
ATOM     15  N   LIG    1       26.698 -15.022   3.627  0.00  0.00    -0.287 N 
ATOM     16  C   LIG    1       27.454 -14.168   2.717  0.00  0.00    +0.185 C 
ATOM     17  C   LIG    1       26.432 -13.069   2.400  0.00  0.00    +0.039 C 
ATOM     18  C   LIG    1       25.636 -12.873   3.704  0.00  0.00    +0.012 C 
ATOM     19  C   LIG    1       25.702 -14.254   4.342  0.00  0.00    +0.112 C 
ATOM     20  O   LIG    1       27.676 -16.973   2.989  0.00  0.00    -0.275 OA
BRANCH  18  21
ATOM     21  C   LIG    1       24.168 -12.424   3.503  0.00  0.00    -0.006 C 
ATOM     22  C   LIG    1       23.202 -13.604   3.244  0.00  0.00    +0.004 C 
ATOM     23  C   LIG    1       22.822 -14.369   4.505  0.00  0.00    +0.000 C 
ATOM     24  C   LIG    1       22.235 -13.429   5.546  0.00  0.00    +0.000 C 
ATOM     25  C   LIG    1       23.218 -12.317   5.892  0.00  0.00    +0.000 C 
ATOM     26  C   LIG    1       23.658 -11.539   4.652  0.00  0.00    +0.004 C 
ENDBRANCH  18  21
BRANCH  16  27
ATOM     27  C   LIG    1       28.746 -13.634   3.360  0.00  0.00    +0.326 C 
ATOM     28  O   LIG    1       29.264 -12.554   3.090  0.00  0.00    -0.249 OA
BRANCH  27  29
ATOM     29  O   LIG    1       29.285 -14.457   4.292  0.00  0.00    -0.479 OA
ATOM     30  H   LIG    1       29.911 -14.031   4.911  0.00  0.00    +0.295 HD
ENDBRANCH  27  29
ENDBRANCH  16  27
ENDBRANCH  13  14
ENDBRANCH   1  13
BRANCH   1  31
ATOM     31  C   LIG    1       25.566 -18.931   2.339  0.00  0.00    +0.098 C 
BRANCH  31  32
ATOM     32  C   LIG    1       26.291 -19.974   3.168  0.00  0.00    +0.010 C 
BRANCH  32  33
ATOM     33  C   LIG    1       25.430 -20.976   3.923  0.00  0.00    +0.005 C 
BRANCH  33  34
ATOM     34  C   LIG    1       25.579 -21.009   5.455  0.00  0.00    +0.035 C 
BRANCH  34  35
ATOM     35  C   LIG    1       26.891 -20.587   6.079  0.00  0.00    -0.047 A 
ATOM     36  C   LIG    1       27.755 -21.552   6.625  0.00  0.00    +0.003 A 
ATOM     37  C   LIG    1       29.038 -21.202   7.061  0.00  0.00    +0.000 A 
ATOM     38  C   LIG    1       29.474 -19.883   6.968  0.00  0.00    +0.000 A 
ATOM     39  C   LIG    1       28.612 -18.909   6.470  0.00  0.00    +0.000 A 
ATOM     40  C   LIG    1       27.332 -19.256   6.025  0.00  0.00    +0.003 A 
ENDBRANCH  34  35
ENDBRANCH  33  34
ENDBRANCH  32  33
ENDBRANCH  31  32
ENDBRANCH   1  31
TORSDOF 16
ENDMDL
