MODEL 1
REMARK VINA RESULT:      -6.2      0.000      0.000
REMARK  Name = *****
REMARK                            x       y       z     vdW  Elec       q    Type
REMARK                         _______ _______ _______ _____ _____    ______ ____
ROOT
ATOM      1  C   LIG    1       25.213 -29.641  10.841  0.00  0.00    +0.081 C 
ATOM      2  C   LIG    1       25.686 -29.571  12.326  0.00  0.00    -0.018 C 
ATOM      3  C   LIG    1       25.824 -30.988  12.941  0.00  0.00    +0.012 C 
ATOM      4  C   LIG    1       24.518 -28.817  13.028  0.00  0.00    -0.001 C 
ATOM      5  C   LIG    1       24.557 -27.273  12.887  0.00  0.00    -0.003 C 
ATOM      6  C   LIG    1       25.938 -26.634  13.183  0.00  0.00    +0.004 C 
ATOM      7  C   LIG    1       27.023 -27.351  12.358  0.00  0.00    +0.005 C 
ATOM      8  C   LIG    1       26.277 -26.358  14.702  0.00  0.00    +0.008 C 
ATOM      9  C   LIG    1       26.724 -27.599  15.500  0.00  0.00    +0.018 C 
ATOM     10  C   LIG    1       25.054 -25.726  15.448  0.00  0.00    +0.083 C 
ATOM     11  N   LIG    1       24.897 -24.307  15.155  0.00  0.00    -0.308 N 
ATOM     12  H   LIG    1       24.022 -23.850  15.381  0.00  0.00    +0.149 HD
ATOM     13  C   LIG    1       25.955 -23.444  15.160  0.00  0.00    +0.237 C 
ATOM     14  O   LIG    1       25.815 -22.236  15.267  0.00  0.00    -0.271 OA
ATOM     15  C   LIG    1       27.292 -24.057  15.005  0.00  0.00    +0.063 C 
ATOM     16  C   LIG    1       23.749 -26.474  15.179  0.00  0.00    +0.023 C 
ATOM     17  C   LIG    1       27.445 -25.369  14.772  0.00  0.00    -0.013 C 
ATOM     18  C   LIG    1       23.448 -26.567  13.690  0.00  0.00    +0.006 C 
ATOM     19  C   LIG    1       23.276 -29.423  12.349  0.00  0.00    +0.005 C 
ATOM     20  C   LIG    1       27.045 -28.869  12.493  0.00  0.00    +0.008 C 
ATOM     21  C   LIG    1       23.677 -29.709  10.905  0.00  0.00    +0.014 C 
ENDROOT
BRANCH   1  24
ATOM     22  N   LIG    1       24.837 -31.614   9.442  0.00  0.00    -0.310 N 
ATOM     23  H   LIG    1       23.884 -31.505   9.764  0.00  0.00    +0.149 HD
ATOM     24  C   LIG    1       25.792 -30.811  10.034  0.00  0.00    +0.217 C 
ATOM     25  O   LIG    1       26.999 -30.986   9.898  0.00  0.00    -0.276 OA
BRANCH  22  27
ATOM     26  C   LIG    1       23.809 -33.491   8.267  0.00  0.00    +0.031 C 
ATOM     27  C   LIG    1       25.142 -32.824   8.654  0.00  0.00    +0.026 C 
ATOM     28  C   LIG    1       25.890 -32.475   7.357  0.00  0.00    +0.031 C 
ATOM     29  C   LIG    1       25.963 -33.825   9.482  0.00  0.00    +0.031 C 
ENDBRANCH  22  27
ENDBRANCH   1  24
TORSDOF 2
ENDMDL
MODEL 2
REMARK VINA RESULT:      -6.0      2.875      7.907
REMARK  Name = *****
REMARK                            x       y       z     vdW  Elec       q    Type
REMARK                         _______ _______ _______ _____ _____    ______ ____
ROOT
ATOM      1  C   LIG    1       23.486 -28.219  12.733  0.00  0.00    +0.081 C 
ATOM      2  C   LIG    1       23.786 -29.728  12.474  0.00  0.00    -0.018 C 
ATOM      3  C   LIG    1       23.832 -30.528  13.801  0.00  0.00    +0.012 C 
ATOM      4  C   LIG    1       25.211 -29.697  11.844  0.00  0.00    -0.001 C 
ATOM      5  C   LIG    1       25.249 -29.375  10.327  0.00  0.00    -0.003 C 
ATOM      6  C   LIG    1       24.239 -30.183   9.472  0.00  0.00    +0.004 C 
ATOM      7  C   LIG    1       22.833 -30.063  10.088  0.00  0.00    +0.005 C 
ATOM      8  C   LIG    1       24.691 -31.631   9.027  0.00  0.00    +0.008 C 
ATOM      9  C   LIG    1       24.569 -32.710  10.122  0.00  0.00    +0.018 C 
ATOM     10  C   LIG    1       26.173 -31.630   8.523  0.00  0.00    +0.083 C 
ATOM     11  N   LIG    1       26.299 -31.102   7.169  0.00  0.00    -0.308 N 
ATOM     12  H   LIG    1       27.213 -30.831   6.828  0.00  0.00    +0.149 HD
ATOM     13  C   LIG    1       25.454 -31.475   6.164  0.00  0.00    +0.237 C 
ATOM     14  O   LIG    1       25.736 -31.335   4.985  0.00  0.00    -0.271 OA
ATOM     15  C   LIG    1       24.156 -32.044   6.586  0.00  0.00    +0.063 C 
ATOM     16  C   LIG    1       27.119 -30.896   9.472  0.00  0.00    +0.023 C 
ATOM     17  C   LIG    1       23.793 -32.094   7.877  0.00  0.00    -0.013 C 
ATOM     18  C   LIG    1       26.665 -29.466   9.727  0.00  0.00    +0.006 C 
ATOM     19  C   LIG    1       25.918 -28.613  12.677  0.00  0.00    +0.005 C 
ATOM     20  C   LIG    1       22.741 -30.404  11.571  0.00  0.00    +0.008 C 
ATOM     21  C   LIG    1       24.854 -27.574  13.018  0.00  0.00    +0.014 C 
ENDROOT
BRANCH   1  24
ATOM     22  N   LIG    1       21.237 -27.559  13.433  0.00  0.00    -0.310 N 
ATOM     23  H   LIG    1       21.152 -27.282  12.464  0.00  0.00    +0.149 HD
ATOM     24  C   LIG    1       22.490 -27.944  13.867  0.00  0.00    +0.217 C 
ATOM     25  O   LIG    1       22.777 -28.095  15.049  0.00  0.00    -0.276 OA
BRANCH  22  27
ATOM     26  C   LIG    1       19.101 -26.379  13.519  0.00  0.00    +0.031 C 
ATOM     27  C   LIG    1       20.122 -27.199  14.330  0.00  0.00    +0.026 C 
ATOM     28  C   LIG    1       19.405 -28.449  14.866  0.00  0.00    +0.031 C 
ATOM     29  C   LIG    1       20.618 -26.334  15.500  0.00  0.00    +0.031 C 
ENDBRANCH  22  27
ENDBRANCH   1  24
TORSDOF 2
ENDMDL
MODEL 3
REMARK VINA RESULT:      -6.0      1.259      1.634
REMARK  Name = *****
REMARK                            x       y       z     vdW  Elec       q    Type
REMARK                         _______ _______ _______ _____ _____    ______ ____
ROOT
ATOM      1  C   LIG    1       23.615 -30.044  11.136  0.00  0.00    +0.081 C 
ATOM      2  C   LIG    1       24.244 -29.954  12.560  0.00  0.00    -0.018 C 
ATOM      3  C   LIG    1       24.210 -31.328  13.279  0.00  0.00    +0.012 C 
ATOM      4  C   LIG    1       23.295 -28.965  13.299  0.00  0.00    -0.001 C 
ATOM      5  C   LIG    1       23.571 -27.463  13.024  0.00  0.00    -0.003 C 
ATOM      6  C   LIG    1       25.062 -27.052  13.139  0.00  0.00    +0.004 C 
ATOM      7  C   LIG    1       25.923 -28.000  12.282  0.00  0.00    +0.005 C 
ATOM      8  C   LIG    1       25.597 -26.734  14.592  0.00  0.00    +0.008 C 
ATOM      9  C   LIG    1       25.914 -27.977  15.449  0.00  0.00    +0.018 C 
ATOM     10  C   LIG    1       24.578 -25.853  15.389  0.00  0.00    +0.083 C 
ATOM     11  N   LIG    1       24.626 -24.451  14.991  0.00  0.00    -0.308 N 
ATOM     12  H   LIG    1       23.866 -23.836  15.256  0.00  0.00    +0.149 HD
ATOM     13  C   LIG    1       25.807 -23.784  14.827  0.00  0.00    +0.237 C 
ATOM     14  O   LIG    1       25.879 -22.566  14.844  0.00  0.00    -0.271 OA
ATOM     15  C   LIG    1       27.001 -24.626  14.605  0.00  0.00    +0.063 C 
ATOM     16  C   LIG    1       23.148 -26.383  15.304  0.00  0.00    +0.023 C 
ATOM     17  C   LIG    1       26.912 -25.958  14.471  0.00  0.00    -0.013 C 
ATOM     18  C   LIG    1       22.682 -26.524  13.861  0.00  0.00    +0.006 C 
ATOM     19  C   LIG    1       21.907 -29.394  12.789  0.00  0.00    +0.005 C 
ATOM     20  C   LIG    1       25.710 -29.486  12.544  0.00  0.00    +0.008 C 
ATOM     21  C   LIG    1       22.103 -29.842  11.344  0.00  0.00    +0.014 C 
ENDROOT
BRANCH   1  24
ATOM     22  N   LIG    1       25.150 -31.382   9.780  0.00  0.00    -0.310 N 
ATOM     23  H   LIG    1       25.643 -30.503   9.696  0.00  0.00    +0.149 HD
ATOM     24  C   LIG    1       23.908 -31.348  10.382  0.00  0.00    +0.217 C 
ATOM     25  O   LIG    1       23.120 -32.287  10.356  0.00  0.00    -0.276 OA
BRANCH  22  27
ATOM     26  C   LIG    1       27.057 -32.147   8.460  0.00  0.00    +0.031 C 
ATOM     27  C   LIG    1       25.646 -32.507   8.963  0.00  0.00    +0.026 C 
ATOM     28  C   LIG    1       25.754 -33.798   9.790  0.00  0.00    +0.031 C 
ATOM     29  C   LIG    1       24.741 -32.738   7.742  0.00  0.00    +0.031 C 
ENDBRANCH  22  27
ENDBRANCH   1  24
TORSDOF 2
ENDMDL
MODEL 4
REMARK VINA RESULT:      -5.9      9.374     12.435
REMARK  Name = *****
REMARK                            x       y       z     vdW  Elec       q    Type
REMARK                         _______ _______ _______ _____ _____    ______ ____
ROOT
ATOM      1  C   LIG    1       28.896 -18.891   7.784  0.00  0.00    +0.081 C 
ATOM      2  C   LIG    1       28.530 -20.374   7.468  0.00  0.00    -0.018 C 
ATOM      3  C   LIG    1       29.785 -21.284   7.505  0.00  0.00    +0.012 C 
ATOM      4  C   LIG    1       27.994 -20.297   6.007  0.00  0.00    -0.001 C 
ATOM      5  C   LIG    1       26.515 -19.848   5.876  0.00  0.00    -0.003 C 
ATOM      6  C   LIG    1       25.534 -20.577   6.829  0.00  0.00    +0.004 C 
ATOM      7  C   LIG    1       26.070 -20.502   8.272  0.00  0.00    +0.005 C 
ATOM      8  C   LIG    1       24.998 -21.985   6.350  0.00  0.00    +0.008 C 
ATOM      9  C   LIG    1       25.988 -23.152   6.539  0.00  0.00    +0.018 C 
ATOM     10  C   LIG    1       24.587 -21.948   4.840  0.00  0.00    +0.083 C 
ATOM     11  N   LIG    1       23.294 -21.308   4.630  0.00  0.00    -0.308 N 
ATOM     12  H   LIG    1       23.034 -21.014   3.697  0.00  0.00    +0.149 HD
ATOM     13  C   LIG    1       22.210 -21.591   5.412  0.00  0.00    +0.237 C 
ATOM     14  O   LIG    1       21.067 -21.354   5.057  0.00  0.00    -0.271 OA
ATOM     15  C   LIG    1       22.502 -22.187   6.733  0.00  0.00    +0.063 C 
ATOM     16  C   LIG    1       25.652 -21.301   3.955  0.00  0.00    +0.023 C 
ATOM     17  C   LIG    1       23.758 -22.345   7.175  0.00  0.00    -0.013 C 
ATOM     18  C   LIG    1       25.999 -19.895   4.425  0.00  0.00    +0.006 C 
ATOM     19  C   LIG    1       28.958 -19.290   5.353  0.00  0.00    +0.005 C 
ATOM     20  C   LIG    1       27.510 -20.967   8.455  0.00  0.00    +0.008 C 
ATOM     21  C   LIG    1       29.318 -18.278   6.437  0.00  0.00    +0.014 C 
ENDROOT
BRANCH   1  24
ATOM     22  N   LIG    1       30.379 -17.397   9.032  0.00  0.00    -0.310 N 
ATOM     23  H   LIG    1       30.097 -16.731   8.325  0.00  0.00    +0.149 HD
ATOM     24  C   LIG    1       29.985 -18.708   8.849  0.00  0.00    +0.217 C 
ATOM     25  O   LIG    1       30.432 -19.644   9.504  0.00  0.00    -0.276 OA
BRANCH  22  27
ATOM     26  C   LIG    1       31.913 -15.568   9.544  0.00  0.00    +0.031 C 
ATOM     27  C   LIG    1       31.439 -16.971   9.966  0.00  0.00    +0.026 C 
ATOM     28  C   LIG    1       30.914 -16.878  11.408  0.00  0.00    +0.031 C 
ATOM     29  C   LIG    1       32.640 -17.927   9.904  0.00  0.00    +0.031 C 
ENDBRANCH  22  27
ENDBRANCH   1  24
TORSDOF 2
ENDMDL
MODEL 5
REMARK VINA RESULT:      -5.5      4.183      5.749
REMARK  Name = *****
REMARK                            x       y       z     vdW  Elec       q    Type
REMARK                         _______ _______ _______ _____ _____    ______ ____
ROOT
ATOM      1  C   LIG    1       23.018 -30.919  11.172  0.00  0.00    +0.081 C 
ATOM      2  C   LIG    1       22.816 -30.529  12.669  0.00  0.00    -0.018 C 
ATOM      3  C   LIG    1       23.872 -31.212  13.577  0.00  0.00    +0.012 C 
ATOM      4  C   LIG    1       21.407 -31.108  12.995  0.00  0.00    -0.001 C 
ATOM      5  C   LIG    1       20.216 -30.221  12.547  0.00  0.00    -0.003 C 
ATOM      6  C   LIG    1       20.345 -28.726  12.935  0.00  0.00    +0.004 C 
ATOM      7  C   LIG    1       21.714 -28.192  12.470  0.00  0.00    +0.005 C 
ATOM      8  C   LIG    1       19.898 -28.335  14.400  0.00  0.00    +0.008 C 
ATOM      9  C   LIG    1       20.926 -28.669  15.499  0.00  0.00    +0.018 C 
ATOM     10  C   LIG    1       18.548 -29.028  14.782  0.00  0.00    +0.083 C 
ATOM     11  N   LIG    1       17.395 -28.369  14.181  0.00  0.00    -0.308 N 
ATOM     12  H   LIG    1       16.506 -28.854  14.157  0.00  0.00    +0.149 HD
ATOM     13  C   LIG    1       17.251 -27.011  14.188  0.00  0.00    +0.237 C 
ATOM     14  O   LIG    1       16.172 -26.466  14.019  0.00  0.00    -0.271 OA
ATOM     15  C   LIG    1       18.489 -26.229  14.390  0.00  0.00    +0.063 C 
ATOM     16  C   LIG    1       18.539 -30.521  14.456  0.00  0.00    +0.023 C 
ATOM     17  C   LIG    1       19.692 -26.818  14.461  0.00  0.00    -0.013 C 
ATOM     18  C   LIG    1       18.850 -30.781  12.988  0.00  0.00    +0.006 C 
ATOM     19  C   LIG    1       21.425 -32.458  12.254  0.00  0.00    +0.005 C 
ATOM     20  C   LIG    1       22.918 -29.013  12.916  0.00  0.00    +0.008 C 
ATOM     21  C   LIG    1       22.249 -32.240  10.988  0.00  0.00    +0.014 C 
ENDROOT
BRANCH   1  24
ATOM     22  N   LIG    1       25.046 -29.880  10.283  0.00  0.00    -0.310 N 
ATOM     23  H   LIG    1       24.413 -29.119  10.074  0.00  0.00    +0.149 HD
ATOM     24  C   LIG    1       24.481 -31.057  10.733  0.00  0.00    +0.217 C 
ATOM     25  O   LIG    1       25.099 -32.113  10.816  0.00  0.00    -0.276 OA
BRANCH  22  27
ATOM     26  C   LIG    1       26.531 -28.442   8.983  0.00  0.00    +0.031 C 
ATOM     27  C   LIG    1       26.423 -29.764   9.766  0.00  0.00    +0.026 C 
ATOM     28  C   LIG    1       27.450 -29.722  10.909  0.00  0.00    +0.031 C 
ATOM     29  C   LIG    1       26.749 -30.922   8.809  0.00  0.00    +0.031 C 
ENDBRANCH  22  27
ENDBRANCH   1  24
TORSDOF 2
ENDMDL
MODEL 6
REMARK VINA RESULT:      -5.5      3.582      5.534
REMARK  Name = *****
REMARK                            x       y       z     vdW  Elec       q    Type
REMARK                         _______ _______ _______ _____ _____    ______ ____
ROOT
ATOM      1  C   LIG    1       22.478 -31.588  11.411  0.00  0.00    +0.081 C 
ATOM      2  C   LIG    1       22.998 -30.240  11.998  0.00  0.00    -0.018 C 
ATOM      3  C   LIG    1       21.869 -29.178  12.056  0.00  0.00    +0.012 C 
ATOM      4  C   LIG    1       24.068 -29.795  10.958  0.00  0.00    -0.001 C 
ATOM      5  C   LIG    1       25.459 -30.464  11.122  0.00  0.00    -0.003 C 
ATOM      6  C   LIG    1       26.006 -30.463  12.573  0.00  0.00    +0.004 C 
ATOM      7  C   LIG    1       24.936 -31.031  13.525  0.00  0.00    +0.005 C 
ATOM      8  C   LIG    1       26.744 -29.148  13.048  0.00  0.00    +0.008 C 
ATOM      9  C   LIG    1       25.807 -27.988  13.442  0.00  0.00    +0.018 C 
ATOM     10  C   LIG    1       27.720 -28.619  11.945  0.00  0.00    +0.083 C 
ATOM     11  N   LIG    1       28.964 -29.379  11.893  0.00  0.00    -0.308 N 
ATOM     12  H   LIG    1       29.563 -29.290  11.081  0.00  0.00    +0.149 HD
ATOM     13  C   LIG    1       29.656 -29.715  13.021  0.00  0.00    +0.237 C 
ATOM     14  O   LIG    1       30.836 -30.027  12.997  0.00  0.00    -0.271 OA
ATOM     15  C   LIG    1       28.885 -29.701  14.283  0.00  0.00    +0.063 C 
ATOM     16  C   LIG    1       27.072 -28.560  10.563  0.00  0.00    +0.023 C 
ATOM     17  C   LIG    1       27.564 -29.471  14.301  0.00  0.00    -0.013 C 
ATOM     18  C   LIG    1       26.512 -29.912  10.143  0.00  0.00    +0.006 C 
ATOM     19  C   LIG    1       23.407 -30.173   9.620  0.00  0.00    +0.005 C 
ATOM     20  C   LIG    1       23.562 -30.380  13.423  0.00  0.00    +0.008 C 
ATOM     21  C   LIG    1       22.605 -31.444   9.884  0.00  0.00    +0.014 C 
ENDROOT
BRANCH   1  24
ATOM     22  N   LIG    1       20.104 -31.738  10.841  0.00  0.00    -0.310 N 
ATOM     23  H   LIG    1       20.384 -31.161  10.058  0.00  0.00    +0.149 HD
ATOM     24  C   LIG    1       21.048 -31.963  11.823  0.00  0.00    +0.217 C 
ATOM     25  O   LIG    1       20.783 -32.455  12.914  0.00  0.00    -0.276 OA
BRANCH  22  27
ATOM     26  C   LIG    1       17.928 -31.374   9.795  0.00  0.00    +0.031 C 
ATOM     27  C   LIG    1       18.657 -31.976  11.010  0.00  0.00    +0.026 C 
ATOM     28  C   LIG    1       18.337 -33.479  11.056  0.00  0.00    +0.031 C 
ATOM     29  C   LIG    1       18.134 -31.288  12.280  0.00  0.00    +0.031 C 
ENDBRANCH  22  27
ENDBRANCH   1  24
TORSDOF 2
ENDMDL
MODEL 7
REMARK VINA RESULT:      -5.5      3.744      6.187
REMARK  Name = *****
REMARK                            x       y       z     vdW  Elec       q    Type
REMARK                         _______ _______ _______ _____ _____    ______ ____
ROOT
ATOM      1  C   LIG    1       27.799 -28.624  14.714  0.00  0.00    +0.081 C 
ATOM      2  C   LIG    1       26.822 -28.820  13.513  0.00  0.00    -0.018 C 
ATOM      3  C   LIG    1       27.590 -28.888  12.167  0.00  0.00    +0.012 C 
ATOM      4  C   LIG    1       25.961 -27.523  13.548  0.00  0.00    -0.001 C 
ATOM      5  C   LIG    1       24.794 -27.539  14.569  0.00  0.00    -0.003 C 
ATOM      6  C   LIG    1       23.927 -28.824  14.536  0.00  0.00    +0.004 C 
ATOM      7  C   LIG    1       24.841 -30.061  14.631  0.00  0.00    +0.005 C 
ATOM      8  C   LIG    1       22.783 -28.876  13.447  0.00  0.00    +0.008 C 
ATOM      9  C   LIG    1       23.264 -29.210  12.020  0.00  0.00    +0.018 C 
ATOM     10  C   LIG    1       22.003 -27.520  13.382  0.00  0.00    +0.083 C 
ATOM     11  N   LIG    1       21.049 -27.375  14.475  0.00  0.00    -0.308 N 
ATOM     12  H   LIG    1       20.665 -26.460  14.677  0.00  0.00    +0.149 HD
ATOM     13  C   LIG    1       20.213 -28.388  14.847  0.00  0.00    +0.237 C 
ATOM     14  O   LIG    1       19.196 -28.194  15.494  0.00  0.00    -0.271 OA
ATOM     15  C   LIG    1       20.621 -29.749  14.438  0.00  0.00    +0.063 C 
ATOM     16  C   LIG    1       22.931 -26.309  13.319  0.00  0.00    +0.023 C 
ATOM     17  C   LIG    1       21.793 -29.981  13.828  0.00  0.00    -0.013 C 
ATOM     18  C   LIG    1       23.906 -26.282  14.489  0.00  0.00    +0.006 C 
ATOM     19  C   LIG    1       27.004 -26.442  13.888  0.00  0.00    +0.005 C 
ATOM     20  C   LIG    1       25.982 -30.105  13.622  0.00  0.00    +0.008 C 
ATOM     21  C   LIG    1       28.017 -27.104  14.818  0.00  0.00    +0.014 C 
ENDROOT
BRANCH   1  24
ATOM     22  N   LIG    1       30.235 -28.550  14.498  0.00  0.00    -0.310 N 
ATOM     23  H   LIG    1       30.061 -27.573  14.297  0.00  0.00    +0.149 HD
ATOM     24  C   LIG    1       29.131 -29.375  14.590  0.00  0.00    +0.217 C 
ATOM     25  O   LIG    1       29.204 -30.598  14.613  0.00  0.00    -0.276 OA
BRANCH  22  27
ATOM     26  C   LIG    1       32.568 -27.830  14.501  0.00  0.00    +0.031 C 
ATOM     27  C   LIG    1       31.619 -29.031  14.327  0.00  0.00    +0.026 C 
ATOM     28  C   LIG    1       31.984 -30.080  15.390  0.00  0.00    +0.031 C 
ATOM     29  C   LIG    1       31.828 -29.613  12.920  0.00  0.00    +0.031 C 
ENDBRANCH  22  27
ENDBRANCH   1  24
TORSDOF 2
ENDMDL
MODEL 8
REMARK VINA RESULT:      -5.4      2.657      8.557
REMARK  Name = *****
REMARK                            x       y       z     vdW  Elec       q    Type
REMARK                         _______ _______ _______ _____ _____    ______ ____
ROOT
ATOM      1  C   LIG    1       25.420 -28.951  11.248  0.00  0.00    +0.081 C 
ATOM      2  C   LIG    1       25.148 -30.487  11.280  0.00  0.00    -0.018 C 
ATOM      3  C   LIG    1       25.408 -31.076  12.690  0.00  0.00    +0.012 C 
ATOM      4  C   LIG    1       26.207 -31.050  10.285  0.00  0.00    -0.001 C 
ATOM      5  C   LIG    1       25.812 -30.957   8.787  0.00  0.00    -0.003 C 
ATOM      6  C   LIG    1       24.378 -31.451   8.468  0.00  0.00    +0.004 C 
ATOM      7  C   LIG    1       23.375 -30.757   9.410  0.00  0.00    +0.005 C 
ATOM      8  C   LIG    1       24.195 -33.008   8.270  0.00  0.00    +0.008 C 
ATOM      9  C   LIG    1       24.143 -33.824   9.578  0.00  0.00    +0.018 C 
ATOM     10  C   LIG    1       25.339 -33.603   7.383  0.00  0.00    +0.083 C 
ATOM     11  N   LIG    1       25.141 -33.331   5.964  0.00  0.00    -0.308 N 
ATOM     12  H   LIG    1       25.917 -33.451   5.325  0.00  0.00    +0.149 HD
ATOM     13  C   LIG    1       23.930 -33.500   5.356  0.00  0.00    +0.237 C 
ATOM     14  O   LIG    1       23.815 -33.621   4.146  0.00  0.00    -0.271 OA
ATOM     15  C   LIG    1       22.751 -33.506   6.249  0.00  0.00    +0.063 C 
ATOM     16  C   LIG    1       26.727 -33.143   7.825  0.00  0.00    +0.023 C 
ATOM     17  C   LIG    1       22.859 -33.260   7.563  0.00  0.00    -0.013 C 
ATOM     18  C   LIG    1       26.838 -31.625   7.852  0.00  0.00    +0.006 C 
ATOM     19  C   LIG    1       27.447 -30.195  10.603  0.00  0.00    +0.005 C 
ATOM     20  C   LIG    1       23.704 -30.852  10.895  0.00  0.00    +0.008 C 
ATOM     21  C   LIG    1       26.928 -28.810  10.974  0.00  0.00    +0.014 C 
ENDROOT
BRANCH   1  24
ATOM     22  N   LIG    1       23.651 -27.949  12.609  0.00  0.00    -0.310 N 
ATOM     23  H   LIG    1       23.105 -28.074  11.767  0.00  0.00    +0.149 HD
ATOM     24  C   LIG    1       25.007 -28.197  12.518  0.00  0.00    +0.217 C 
ATOM     25  O   LIG    1       25.810 -27.881  13.389  0.00  0.00    -0.276 OA
BRANCH  22  27
ATOM     26  C   LIG    1       21.576 -26.857  13.289  0.00  0.00    +0.031 C 
ATOM     27  C   LIG    1       23.016 -27.202  13.712  0.00  0.00    +0.026 C 
ATOM     28  C   LIG    1       22.942 -28.048  14.994  0.00  0.00    +0.031 C 
ATOM     29  C   LIG    1       23.767 -25.891  13.990  0.00  0.00    +0.031 C 
ENDBRANCH  22  27
ENDBRANCH   1  24
TORSDOF 2
ENDMDL
MODEL 9
REMARK VINA RESULT:      -5.0      1.795      2.504
REMARK  Name = *****
REMARK                            x       y       z     vdW  Elec       q    Type
REMARK                         _______ _______ _______ _____ _____    ______ ____
ROOT
ATOM      1  C   LIG    1       24.237 -31.123   9.413  0.00  0.00    +0.081 C 
ATOM      2  C   LIG    1       25.110 -31.094  10.706  0.00  0.00    -0.018 C 
ATOM      3  C   LIG    1       25.525 -32.524  11.139  0.00  0.00    +0.012 C 
ATOM      4  C   LIG    1       24.140 -30.497  11.768  0.00  0.00    -0.001 C 
ATOM      5  C   LIG    1       24.019 -28.950  11.749  0.00  0.00    -0.003 C 
ATOM      6  C   LIG    1       25.375 -28.200  11.697  0.00  0.00    +0.004 C 
ATOM      7  C   LIG    1       26.228 -28.762  10.543  0.00  0.00    +0.005 C 
ATOM      8  C   LIG    1       26.115 -27.980  13.077  0.00  0.00    +0.008 C 
ATOM      9  C   LIG    1       26.864 -29.217  13.612  0.00  0.00    +0.018 C 
ATOM     10  C   LIG    1       25.114 -27.513  14.185  0.00  0.00    +0.083 C 
ATOM     11  N   LIG    1       24.772 -26.100  14.067  0.00  0.00    -0.308 N 
ATOM     12  H   LIG    1       23.967 -25.743  14.566  0.00  0.00    +0.149 HD
ATOM     13  C   LIG    1       25.719 -25.142  13.845  0.00  0.00    +0.237 C 
ATOM     14  O   LIG    1       25.525 -23.961  14.087  0.00  0.00    -0.271 OA
ATOM     15  C   LIG    1       26.997 -25.614  13.271  0.00  0.00    +0.063 C 
ATOM     16  C   LIG    1       23.847 -28.366  14.234  0.00  0.00    +0.023 C 
ATOM     17  C   LIG    1       27.175 -26.890  12.897  0.00  0.00    -0.013 C 
ATOM     18  C   LIG    1       23.138 -28.401  12.887  0.00  0.00    +0.006 C 
ATOM     19  C   LIG    1       22.805 -31.178  11.418  0.00  0.00    +0.005 C 
ATOM     20  C   LIG    1       26.403 -30.275  10.541  0.00  0.00    +0.008 C 
ATOM     21  C   LIG    1       22.794 -31.341   9.901  0.00  0.00    +0.014 C 
ENDROOT
BRANCH   1  24
ATOM     22  N   LIG    1       25.338 -31.678   7.300  0.00  0.00    -0.310 N 
ATOM     23  H   LIG    1       25.316 -30.674   7.170  0.00  0.00    +0.149 HD
ATOM     24  C   LIG    1       24.647 -32.184   8.383  0.00  0.00    +0.217 C 
ATOM     25  O   LIG    1       24.412 -33.378   8.534  0.00  0.00    -0.276 OA
BRANCH  22  27
ATOM     26  C   LIG    1       25.900 -31.568   4.926  0.00  0.00    +0.031 C 
ATOM     27  C   LIG    1       25.801 -32.488   6.157  0.00  0.00    +0.026 C 
ATOM     28  C   LIG    1       27.195 -33.082   6.417  0.00  0.00    +0.031 C 
ATOM     29  C   LIG    1       24.801 -33.612   5.842  0.00  0.00    +0.031 C 
ENDBRANCH  22  27
ENDBRANCH   1  24
TORSDOF 2
ENDMDL
