MODEL 1
REMARK VINA RESULT:      -7.7      0.000      0.000
REMARK  Name = *****
REMARK                            x       y       z     vdW  Elec       q    Type
REMARK                         _______ _______ _______ _____ _____    ______ ____
ROOT
ATOM      1  C   LIG    1       25.797 -21.598   6.447  0.00  0.00    +0.234 C 
ENDROOT
BRANCH   1   2
ATOM      2  C   LIG    1       27.313 -21.417   6.742  0.00  0.00    +0.177 C 
ATOM      3  O   LIG    1       27.522 -21.319   8.170  0.00  0.00    -0.370 OA
ATOM      4  C   LIG    1       28.919 -21.185   8.460  0.00  0.00    +0.175 C 
ATOM      5  C   LIG    1       29.502 -19.923   7.809  0.00  0.00    +0.109 C 
ATOM      6  N   LIG    1       29.291 -19.912   6.353  0.00  0.00    -0.311 NA
ATOM      7  H   LIG    1       29.578 -19.010   5.975  0.00  0.00    +0.122 HD
ATOM      8  C   LIG    1       27.858 -20.129   6.064  0.00  0.00    +0.116 C 
ENDBRANCH   1   2
BRANCH   1   9
ATOM      9  C   LIG    1       25.336 -23.058   6.513  0.00  0.00    -0.005 A 
ATOM     10  C   LIG    1       23.961 -23.354   6.539  0.00  0.00    +0.007 A 
ATOM     11  C   LIG    1       23.511 -24.679   6.549  0.00  0.00    +0.000 A 
ATOM     12  C   LIG    1       24.420 -25.731   6.528  0.00  0.00    +0.000 A 
ATOM     13  C   LIG    1       25.786 -25.457   6.516  0.00  0.00    +0.000 A 
ATOM     14  C   LIG    1       26.236 -24.133   6.521  0.00  0.00    +0.007 A 
ENDBRANCH   1   9
BRANCH   1  15
ATOM     15  O   LIG    1       25.541 -21.071   5.132  0.00  0.00    -0.478 OA
BRANCH  15  17
ATOM     16  C   LIG    1       24.587 -19.181   4.052  0.00  0.00    +0.162 A 
ATOM     17  C   LIG    1       24.443 -20.289   4.904  0.00  0.00    +0.163 A 
ATOM     18  C   LIG    1       23.210 -20.484   5.545  0.00  0.00    +0.049 A 
ATOM     19  C   LIG    1       22.132 -19.629   5.282  0.00  0.00    +0.004 A 
ATOM     20  C   LIG    1       22.275 -18.562   4.406  0.00  0.00    +0.004 A 
ATOM     21  C   LIG    1       23.511 -18.321   3.808  0.00  0.00    +0.049 A 
BRANCH  16  22
ATOM     22  O   LIG    1       25.773 -18.780   3.487  0.00  0.00    -0.489 OA
BRANCH  22  24
ATOM     23  C   LIG    1       27.144 -16.828   3.715  0.00  0.00    +0.048 C 
ATOM     24  C   LIG    1       25.838 -17.388   3.178  0.00  0.00    +0.226 C 
ENDBRANCH  22  24
ENDBRANCH  16  22
ENDBRANCH  15  17
ENDBRANCH   1  15
TORSDOF 6
ENDMDL
MODEL 2
REMARK VINA RESULT:      -7.6      2.040      5.382
REMARK  Name = *****
REMARK                            x       y       z     vdW  Elec       q    Type
REMARK                         _______ _______ _______ _____ _____    ______ ____
ROOT
ATOM      1  C   LIG    1       25.623 -21.479   6.845  0.00  0.00    +0.234 C 
ENDROOT
BRANCH   1   2
ATOM      2  C   LIG    1       25.124 -22.931   7.090  0.00  0.00    +0.177 C 
ATOM      3  O   LIG    1       26.076 -23.871   6.543  0.00  0.00    -0.370 OA
ATOM      4  C   LIG    1       25.646 -25.216   6.791  0.00  0.00    +0.175 C 
ATOM      5  C   LIG    1       24.282 -25.490   6.142  0.00  0.00    +0.109 C 
ATOM      6  N   LIG    1       23.257 -24.544   6.605  0.00  0.00    -0.311 NA
ATOM      7  H   LIG    1       22.402 -24.677   6.064  0.00  0.00    +0.122 HD
ATOM      8  C   LIG    1       23.743 -23.162   6.416  0.00  0.00    +0.116 C 
ENDBRANCH   1   2
BRANCH   1   9
ATOM      9  C   LIG    1       24.685 -20.657   5.953  0.00  0.00    -0.005 A 
ATOM     10  C   LIG    1       25.097 -20.286   4.661  0.00  0.00    +0.007 A 
ATOM     11  C   LIG    1       24.243 -19.580   3.808  0.00  0.00    +0.000 A 
ATOM     12  C   LIG    1       22.961 -19.234   4.224  0.00  0.00    +0.000 A 
ATOM     13  C   LIG    1       22.540 -19.580   5.506  0.00  0.00    +0.000 A 
ATOM     14  C   LIG    1       23.399 -20.274   6.364  0.00  0.00    +0.007 A 
ENDBRANCH   1   9
BRANCH   1  15
ATOM     15  O   LIG    1       26.923 -21.560   6.230  0.00  0.00    -0.478 OA
BRANCH  15  17
ATOM     16  C   LIG    1       28.555 -19.837   6.342  0.00  0.00    +0.162 A 
ATOM     17  C   LIG    1       28.016 -21.028   6.855  0.00  0.00    +0.163 A 
ATOM     18  C   LIG    1       28.676 -21.656   7.921  0.00  0.00    +0.049 A 
ATOM     19  C   LIG    1       29.807 -21.066   8.501  0.00  0.00    +0.004 A 
ATOM     20  C   LIG    1       30.305 -19.867   8.012  0.00  0.00    +0.004 A 
ATOM     21  C   LIG    1       29.694 -19.262   6.914  0.00  0.00    +0.049 A 
BRANCH  16  22
ATOM     22  O   LIG    1       28.109 -19.203   5.207  0.00  0.00    -0.489 OA
BRANCH  22  24
ATOM     23  C   LIG    1       27.740 -17.057   4.208  0.00  0.00    +0.048 C 
ATOM     24  C   LIG    1       28.724 -17.940   4.956  0.00  0.00    +0.226 C 
ENDBRANCH  22  24
ENDBRANCH  16  22
ENDBRANCH  15  17
ENDBRANCH   1  15
TORSDOF 6
ENDMDL
MODEL 3
REMARK VINA RESULT:      -7.4      1.594      2.116
REMARK  Name = *****
REMARK                            x       y       z     vdW  Elec       q    Type
REMARK                         _______ _______ _______ _____ _____    ______ ____
ROOT
ATOM      1  C   LIG    1       24.742 -23.157   6.389  0.00  0.00    +0.234 C 
ENDROOT
BRANCH   1   2
ATOM      2  C   LIG    1       25.555 -22.495   7.537  0.00  0.00    +0.177 C 
ATOM      3  O   LIG    1       24.929 -21.249   7.919  0.00  0.00    -0.370 OA
ATOM      4  C   LIG    1       25.648 -20.642   9.000  0.00  0.00    +0.175 C 
ATOM      5  C   LIG    1       27.099 -20.340   8.600  0.00  0.00    +0.109 C 
ATOM      6  N   LIG    1       27.803 -21.548   8.147  0.00  0.00    -0.311 NA
ATOM      7  H   LIG    1       28.718 -21.290   7.776  0.00  0.00    +0.122 HD
ATOM      8  C   LIG    1       27.014 -22.209   7.087  0.00  0.00    +0.116 C 
ENDBRANCH   1   2
BRANCH   1   9
ATOM      9  C   LIG    1       25.128 -24.619   6.137  0.00  0.00    -0.005 A 
ATOM     10  C   LIG    1       25.055 -25.146   4.834  0.00  0.00    +0.007 A 
ATOM     11  C   LIG    1       25.449 -26.461   4.567  0.00  0.00    +0.000 A 
ATOM     12  C   LIG    1       25.927 -27.274   5.589  0.00  0.00    +0.000 A 
ATOM     13  C   LIG    1       25.994 -26.775   6.888  0.00  0.00    +0.000 A 
ATOM     14  C   LIG    1       25.587 -25.464   7.158  0.00  0.00    +0.007 A 
ENDBRANCH   1   9
BRANCH   1  15
ATOM     15  O   LIG    1       24.966 -22.387   5.192  0.00  0.00    -0.478 OA
BRANCH  15  17
ATOM     16  C   LIG    1       24.742 -20.211   4.266  0.00  0.00    +0.162 A 
ATOM     17  C   LIG    1       24.160 -21.323   4.897  0.00  0.00    +0.163 A 
ATOM     18  C   LIG    1       22.810 -21.250   5.271  0.00  0.00    +0.049 A 
ATOM     19  C   LIG    1       22.048 -20.117   4.956  0.00  0.00    +0.004 A 
ATOM     20  C   LIG    1       22.624 -19.041   4.295  0.00  0.00    +0.004 A 
ATOM     21  C   LIG    1       23.980 -19.076   3.970  0.00  0.00    +0.049 A 
BRANCH  16  22
ATOM     22  O   LIG    1       26.081 -20.082   3.990  0.00  0.00    -0.489 OA
BRANCH  22  24
ATOM     23  C   LIG    1       28.065 -19.519   5.210  0.00  0.00    +0.048 C 
ATOM     24  C   LIG    1       26.729 -19.020   4.690  0.00  0.00    +0.226 C 
ENDBRANCH  22  24
ENDBRANCH  16  22
ENDBRANCH  15  17
ENDBRANCH   1  15
TORSDOF 6
ENDMDL
MODEL 4
REMARK VINA RESULT:      -7.3      2.176      5.717
REMARK  Name = *****
REMARK                            x       y       z     vdW  Elec       q    Type
REMARK                         _______ _______ _______ _____ _____    ______ ____
ROOT
ATOM      1  C   LIG    1       25.707 -21.555   6.757  0.00  0.00    +0.234 C 
ENDROOT
BRANCH   1   2
ATOM      2  C   LIG    1       25.202 -22.993   7.063  0.00  0.00    +0.177 C 
ATOM      3  O   LIG    1       26.150 -23.959   6.556  0.00  0.00    -0.370 OA
ATOM      4  C   LIG    1       25.715 -25.291   6.860  0.00  0.00    +0.175 C 
ATOM      5  C   LIG    1       24.351 -25.587   6.222  0.00  0.00    +0.109 C 
ATOM      6  N   LIG    1       23.328 -24.618   6.644  0.00  0.00    -0.311 NA
ATOM      7  H   LIG    1       22.473 -24.770   6.109  0.00  0.00    +0.122 HD
ATOM      8  C   LIG    1       23.820 -23.246   6.398  0.00  0.00    +0.116 C 
ENDBRANCH   1   2
BRANCH   1   9
ATOM      9  C   LIG    1       24.783 -20.774   5.815  0.00  0.00    -0.005 A 
ATOM     10  C   LIG    1       23.563 -20.267   6.297  0.00  0.00    +0.007 A 
ATOM     11  C   LIG    1       22.723 -19.508   5.474  0.00  0.00    +0.000 A 
ATOM     12  C   LIG    1       23.086 -19.237   4.159  0.00  0.00    +0.000 A 
ATOM     13  C   LIG    1       24.284 -19.743   3.659  0.00  0.00    +0.000 A 
ATOM     14  C   LIG    1       25.116 -20.514   4.477  0.00  0.00    +0.007 A 
ENDBRANCH   1   9
BRANCH   1  15
ATOM     15  O   LIG    1       27.015 -21.666   6.165  0.00  0.00    -0.478 OA
BRANCH  15  17
ATOM     16  C   LIG    1       28.856 -20.554   7.176  0.00  0.00    +0.162 A 
ATOM     17  C   LIG    1       27.869 -20.599   6.176  0.00  0.00    +0.163 A 
ATOM     18  C   LIG    1       27.755 -19.510   5.299  0.00  0.00    +0.049 A 
ATOM     19  C   LIG    1       28.652 -18.436   5.382  0.00  0.00    +0.004 A 
ATOM     20  C   LIG    1       29.649 -18.423   6.348  0.00  0.00    +0.004 A 
ATOM     21  C   LIG    1       29.737 -19.471   7.263  0.00  0.00    +0.049 A 
BRANCH  16  22
ATOM     22  O   LIG    1       28.978 -21.468   8.193  0.00  0.00    -0.489 OA
BRANCH  22  24
ATOM     23  C   LIG    1       31.076 -22.279   9.019  0.00  0.00    +0.048 C 
ATOM     24  C   LIG    1       30.027 -21.185   9.119  0.00  0.00    +0.226 C 
ENDBRANCH  22  24
ENDBRANCH  16  22
ENDBRANCH  15  17
ENDBRANCH   1  15
TORSDOF 6
ENDMDL
MODEL 5
REMARK VINA RESULT:      -7.2      1.605      5.199
REMARK  Name = *****
REMARK                            x       y       z     vdW  Elec       q    Type
REMARK                         _______ _______ _______ _____ _____    ______ ____
ROOT
ATOM      1  C   LIG    1       26.295 -21.324   6.033  0.00  0.00    +0.234 C 
ENDROOT
BRANCH   1   2
ATOM      2  C   LIG    1       27.402 -20.433   6.665  0.00  0.00    +0.177 C 
ATOM      3  O   LIG    1       28.252 -19.903   5.623  0.00  0.00    -0.370 OA
ATOM      4  C   LIG    1       29.258 -19.051   6.187  0.00  0.00    +0.175 C 
ATOM      5  C   LIG    1       30.145 -19.822   7.175  0.00  0.00    +0.109 C 
ATOM      6  N   LIG    1       29.355 -20.442   8.249  0.00  0.00    -0.311 NA
ATOM      7  H   LIG    1       29.958 -21.044   8.811  0.00  0.00    +0.122 HD
ATOM      8  C   LIG    1       28.272 -21.254   7.657  0.00  0.00    +0.116 C 
ENDBRANCH   1   2
BRANCH   1   9
ATOM      9  C   LIG    1       25.115 -20.521   5.474  0.00  0.00    -0.005 A 
ATOM     10  C   LIG    1       25.129 -20.102   4.132  0.00  0.00    +0.007 A 
ATOM     11  C   LIG    1       24.044 -19.412   3.581  0.00  0.00    +0.000 A 
ATOM     12  C   LIG    1       22.923 -19.131   4.356  0.00  0.00    +0.000 A 
ATOM     13  C   LIG    1       22.896 -19.526   5.692  0.00  0.00    +0.000 A 
ATOM     14  C   LIG    1       23.987 -20.203   6.246  0.00  0.00    +0.007 A 
ENDBRANCH   1   9
BRANCH   1  15
ATOM     15  O   LIG    1       25.824 -22.227   7.052  0.00  0.00    -0.478 OA
BRANCH  15  17
ATOM     16  C   LIG    1       24.106 -23.837   6.731  0.00  0.00    +0.162 A 
ATOM     17  C   LIG    1       25.472 -23.508   6.729  0.00  0.00    +0.163 A 
ATOM     18  C   LIG    1       26.406 -24.526   6.485  0.00  0.00    +0.049 A 
ATOM     19  C   LIG    1       25.975 -25.824   6.182  0.00  0.00    +0.004 A 
ATOM     20  C   LIG    1       24.621 -26.128   6.146  0.00  0.00    +0.004 A 
ATOM     21  C   LIG    1       23.684 -25.139   6.445  0.00  0.00    +0.049 A 
BRANCH  16  22
ATOM     22  O   LIG    1       23.098 -22.984   7.108  0.00  0.00    -0.489 OA
BRANCH  22  24
ATOM     23  C   LIG    1       21.502 -22.323   5.448  0.00  0.00    +0.048 C 
ATOM     24  C   LIG    1       21.819 -23.304   6.563  0.00  0.00    +0.226 C 
ENDBRANCH  22  24
ENDBRANCH  16  22
ENDBRANCH  15  17
ENDBRANCH   1  15
TORSDOF 6
ENDMDL
MODEL 6
REMARK VINA RESULT:      -7.0      1.490      4.926
REMARK  Name = *****
REMARK                            x       y       z     vdW  Elec       q    Type
REMARK                         _______ _______ _______ _____ _____    ______ ____
ROOT
ATOM      1  C   LIG    1       27.322 -20.674   6.138  0.00  0.00    +0.234 C 
ENDROOT
BRANCH   1   2
ATOM      2  C   LIG    1       28.477 -20.205   7.067  0.00  0.00    +0.177 C 
ATOM      3  O   LIG    1       29.602 -19.778   6.266  0.00  0.00    -0.370 OA
ATOM      4  C   LIG    1       30.664 -19.310   7.108  0.00  0.00    +0.175 C 
ATOM      5  C   LIG    1       31.149 -20.417   8.053  0.00  0.00    +0.109 C 
ATOM      6  N   LIG    1       30.055 -20.950   8.878  0.00  0.00    -0.311 NA
ATOM      7  H   LIG    1       30.386 -21.761   9.401  0.00  0.00    +0.122 HD
ATOM      8  C   LIG    1       28.934 -21.356   8.005  0.00  0.00    +0.116 C 
ENDBRANCH   1   2
BRANCH   1   9
ATOM      9  C   LIG    1       26.920 -19.628   5.093  0.00  0.00    -0.005 A 
ATOM     10  C   LIG    1       25.732 -19.796   4.359  0.00  0.00    +0.007 A 
ATOM     11  C   LIG    1       25.314 -18.832   3.434  0.00  0.00    +0.000 A 
ATOM     12  C   LIG    1       26.069 -17.681   3.229  0.00  0.00    +0.000 A 
ATOM     13  C   LIG    1       27.255 -17.504   3.937  0.00  0.00    +0.000 A 
ATOM     14  C   LIG    1       27.680 -18.474   4.850  0.00  0.00    +0.007 A 
ENDBRANCH   1   9
BRANCH   1  15
ATOM     15  O   LIG    1       26.188 -20.984   6.970  0.00  0.00    -0.478 OA
BRANCH  15  17
ATOM     16  C   LIG    1       24.147 -22.160   6.656  0.00  0.00    +0.162 A 
ATOM     17  C   LIG    1       25.541 -22.181   6.835  0.00  0.00    +0.163 A 
ATOM     18  C   LIG    1       26.181 -23.423   6.956  0.00  0.00    +0.049 A 
ATOM     19  C   LIG    1       25.451 -24.612   6.830  0.00  0.00    +0.004 A 
ATOM     20  C   LIG    1       24.081 -24.578   6.612  0.00  0.00    +0.004 A 
ATOM     21  C   LIG    1       23.422 -23.351   6.549  0.00  0.00    +0.049 A 
BRANCH  16  22
ATOM     22  O   LIG    1       23.374 -21.025   6.682  0.00  0.00    -0.489 OA
BRANCH  22  24
ATOM     23  C   LIG    1       22.373 -19.381   5.255  0.00  0.00    +0.048 C 
ATOM     24  C   LIG    1       22.523 -20.864   5.547  0.00  0.00    +0.226 C 
ENDBRANCH  22  24
ENDBRANCH  16  22
ENDBRANCH  15  17
ENDBRANCH   1  15
TORSDOF 6
ENDMDL
MODEL 7
REMARK VINA RESULT:      -6.7      2.049      5.625
REMARK  Name = *****
REMARK                            x       y       z     vdW  Elec       q    Type
REMARK                         _______ _______ _______ _____ _____    ______ ____
ROOT
ATOM      1  C   LIG    1       25.586 -21.198   6.190  0.00  0.00    +0.234 C 
ENDROOT
BRANCH   1   2
ATOM      2  C   LIG    1       25.172 -22.695   6.269  0.00  0.00    +0.177 C 
ATOM      3  O   LIG    1       26.277 -23.478   6.775  0.00  0.00    -0.370 OA
ATOM      4  C   LIG    1       25.900 -24.857   6.886  0.00  0.00    +0.175 C 
ATOM      5  C   LIG    1       25.499 -25.432   5.521  0.00  0.00    +0.109 C 
ATOM      6  N   LIG    1       24.408 -24.664   4.903  0.00  0.00    -0.311 NA
ATOM      7  H   LIG    1       24.253 -24.997   3.951  0.00  0.00    +0.122 HD
ATOM      8  C   LIG    1       24.774 -23.233   4.866  0.00  0.00    +0.116 C 
ENDBRANCH   1   2
BRANCH   1   9
ATOM      9  C   LIG    1       24.623 -20.346   5.355  0.00  0.00    -0.005 A 
ATOM     10  C   LIG    1       23.280 -20.216   5.754  0.00  0.00    +0.007 A 
ATOM     11  C   LIG    1       22.392 -19.405   5.040  0.00  0.00    +0.000 A 
ATOM     12  C   LIG    1       22.826 -18.704   3.919  0.00  0.00    +0.000 A 
ATOM     13  C   LIG    1       24.149 -18.830   3.501  0.00  0.00    +0.000 A 
ATOM     14  C   LIG    1       25.033 -19.653   4.206  0.00  0.00    +0.007 A 
ENDBRANCH   1   9
BRANCH   1  15
ATOM     15  O   LIG    1       26.905 -21.137   5.615  0.00  0.00    -0.478 OA
BRANCH  15  17
ATOM     16  C   LIG    1       28.080 -20.336   7.518  0.00  0.00    +0.162 A 
ATOM     17  C   LIG    1       27.844 -20.291   6.134  0.00  0.00    +0.163 A 
ATOM     18  C   LIG    1       28.516 -19.323   5.372  0.00  0.00    +0.049 A 
ATOM     19  C   LIG    1       29.451 -18.471   5.974  0.00  0.00    +0.004 A 
ATOM     20  C   LIG    1       29.706 -18.553   7.336  0.00  0.00    +0.004 A 
ATOM     21  C   LIG    1       29.002 -19.470   8.116  0.00  0.00    +0.049 A 
BRANCH  16  22
ATOM     22  O   LIG    1       27.381 -21.118   8.404  0.00  0.00    -0.489 OA
BRANCH  22  24
ATOM     23  C   LIG    1       25.284 -21.512   9.496  0.00  0.00    +0.048 C 
ATOM     24  C   LIG    1       26.277 -20.462   9.027  0.00  0.00    +0.226 C 
ENDBRANCH  22  24
ENDBRANCH  16  22
ENDBRANCH  15  17
ENDBRANCH   1  15
TORSDOF 6
ENDMDL
MODEL 8
REMARK VINA RESULT:      -6.7      1.569      3.178
REMARK  Name = *****
REMARK                            x       y       z     vdW  Elec       q    Type
REMARK                         _______ _______ _______ _____ _____    ______ ____
ROOT
ATOM      1  C   LIG    1       27.761 -20.224   6.672  0.00  0.00    +0.234 C 
ENDROOT
BRANCH   1   2
ATOM      2  C   LIG    1       29.142 -20.751   7.155  0.00  0.00    +0.177 C 
ATOM      3  O   LIG    1       29.064 -21.104   8.555  0.00  0.00    -0.370 OA
ATOM      4  C   LIG    1       30.322 -21.623   9.007  0.00  0.00    +0.175 C 
ATOM      5  C   LIG    1       31.441 -20.585   8.842  0.00  0.00    +0.109 C 
ATOM      6  N   LIG    1       31.561 -20.128   7.450  0.00  0.00    -0.311 NA
ATOM      7  H   LIG    1       32.225 -19.355   7.402  0.00  0.00    +0.122 HD
ATOM      8  C   LIG    1       30.242 -19.668   6.969  0.00  0.00    +0.116 C 
ENDBRANCH   1   2
BRANCH   1   9
ATOM      9  C   LIG    1       26.594 -21.142   7.052  0.00  0.00    -0.005 A 
ATOM     10  C   LIG    1       25.390 -20.584   7.519  0.00  0.00    +0.007 A 
ATOM     11  C   LIG    1       24.292 -21.394   7.826  0.00  0.00    +0.000 A 
ATOM     12  C   LIG    1       24.371 -22.774   7.669  0.00  0.00    +0.000 A 
ATOM     13  C   LIG    1       25.559 -23.347   7.220  0.00  0.00    +0.000 A 
ATOM     14  C   LIG    1       26.662 -22.538   6.928  0.00  0.00    +0.007 A 
ENDBRANCH   1   9
BRANCH   1  15
ATOM     15  O   LIG    1       27.820 -20.089   5.239  0.00  0.00    -0.478 OA
BRANCH  15  17
ATOM     16  C   LIG    1       25.968 -19.215   4.034  0.00  0.00    +0.162 A 
ATOM     17  C   LIG    1       27.229 -19.021   4.623  0.00  0.00    +0.163 A 
ATOM     18  C   LIG    1       27.854 -17.775   4.471  0.00  0.00    +0.049 A 
ATOM     19  C   LIG    1       27.200 -16.729   3.807  0.00  0.00    +0.004 A 
ATOM     20  C   LIG    1       25.936 -16.920   3.265  0.00  0.00    +0.004 A 
ATOM     21  C   LIG    1       25.328 -18.172   3.356  0.00  0.00    +0.049 A 
BRANCH  16  22
ATOM     22  O   LIG    1       25.315 -20.421   3.965  0.00  0.00    -0.489 OA
BRANCH  22  24
ATOM     23  C   LIG    1       23.035 -20.547   4.690  0.00  0.00    +0.048 C 
ATOM     24  C   LIG    1       23.966 -20.337   3.508  0.00  0.00    +0.226 C 
ENDBRANCH  22  24
ENDBRANCH  16  22
ENDBRANCH  15  17
ENDBRANCH   1  15
TORSDOF 6
ENDMDL
MODEL 9
REMARK VINA RESULT:      -6.7      1.288      2.843
REMARK  Name = *****
REMARK                            x       y       z     vdW  Elec       q    Type
REMARK                         _______ _______ _______ _____ _____    ______ ____
ROOT
ATOM      1  C   LIG    1       25.738 -21.933   6.144  0.00  0.00    +0.234 C 
ENDROOT
BRANCH   1   2
ATOM      2  C   LIG    1       27.177 -21.489   6.532  0.00  0.00    +0.177 C 
ATOM      3  O   LIG    1       27.276 -21.364   7.969  0.00  0.00    -0.370 OA
ATOM      4  C   LIG    1       28.608 -20.988   8.344  0.00  0.00    +0.175 C 
ATOM      5  C   LIG    1       28.997 -19.639   7.724  0.00  0.00    +0.109 C 
ATOM      6  N   LIG    1       28.878 -19.657   6.259  0.00  0.00    -0.311 NA
ATOM      7  H   LIG    1       29.024 -18.715   5.894  0.00  0.00    +0.122 HD
ATOM      8  C   LIG    1       27.527 -20.121   5.882  0.00  0.00    +0.116 C 
ENDBRANCH   1   2
BRANCH   1   9
ATOM      9  C   LIG    1       25.561 -23.455   6.108  0.00  0.00    -0.005 A 
ATOM     10  C   LIG    1       25.063 -24.072   4.946  0.00  0.00    +0.007 A 
ATOM     11  C   LIG    1       24.939 -25.463   4.867  0.00  0.00    +0.000 A 
ATOM     12  C   LIG    1       25.312 -26.265   5.940  0.00  0.00    +0.000 A 
ATOM     13  C   LIG    1       25.794 -25.671   7.105  0.00  0.00    +0.000 A 
ATOM     14  C   LIG    1       25.905 -24.279   7.189  0.00  0.00    +0.007 A 
ENDBRANCH   1   9
BRANCH   1  15
ATOM     15  O   LIG    1       25.444 -21.383   4.846  0.00  0.00    -0.478 OA
BRANCH  15  17
ATOM     16  C   LIG    1       23.401 -20.406   5.567  0.00  0.00    +0.162 A 
ATOM     17  C   LIG    1       24.517 -20.387   4.713  0.00  0.00    +0.163 A 
ATOM     18  C   LIG    1       24.578 -19.405   3.713  0.00  0.00    +0.049 A 
ATOM     19  C   LIG    1       23.579 -18.426   3.620  0.00  0.00    +0.004 A 
ATOM     20  C   LIG    1       22.503 -18.431   4.496  0.00  0.00    +0.004 A 
ATOM     21  C   LIG    1       22.399 -19.437   5.456  0.00  0.00    +0.049 A 
BRANCH  16  22
ATOM     22  O   LIG    1       23.133 -21.397   6.478  0.00  0.00    -0.489 OA
BRANCH  22  24
ATOM     23  C   LIG    1       22.277 -23.604   6.857  0.00  0.00    +0.048 C 
ATOM     24  C   LIG    1       22.115 -22.313   6.074  0.00  0.00    +0.226 C 
ENDBRANCH  22  24
ENDBRANCH  16  22
ENDBRANCH  15  17
ENDBRANCH   1  15
TORSDOF 6
ENDMDL
