MODEL 1
REMARK VINA RESULT:      -7.6      0.000      0.000
REMARK  Name = *****
REMARK                            x       y       z     vdW  Elec       q    Type
REMARK                         _______ _______ _______ _____ _____    ______ ____
ROOT
ATOM      1  O   LIG    1       27.262 -20.577   6.495  0.00  0.00    -0.340 OA
ENDROOT
BRANCH   1   4
ATOM      2  C   LIG    1       30.093 -20.273   7.945  0.00  0.00    +0.241 C 
ATOM      3  C   LIG    1       28.741 -19.538   8.271  0.00  0.00    +0.219 C 
ATOM      4  C   LIG    1       27.811 -19.346   7.018  0.00  0.00    +0.181 C 
ATOM      5  C   LIG    1       28.613 -18.612   5.939  0.00  0.00    +0.197 C 
ATOM      6  O   LIG    1       30.023 -18.621   6.117  0.00  0.00    -0.346 OA
ATOM      7  C   LIG    1       30.574 -19.857   6.546  0.00  0.00    +0.281 C 
BRANCH   7   8
ATOM      8  O   LIG    1       31.989 -19.731   6.584  0.00  0.00    -0.365 OA
ATOM      9  H   LIG    1       32.148 -18.832   6.236  0.00  0.00    +0.213 HD
ENDBRANCH   7   8
BRANCH   3  10
ATOM     10  O   LIG    1       28.953 -18.237   8.966  0.00  0.00    -0.207 OA
BRANCH  10  11
ATOM     11  S   LIG    1       30.291 -17.699   9.767  0.00  0.00    +0.208 S 
ATOM     12  O   LIG    1       30.874 -18.749  10.577  0.00  0.00    -0.118 OA
ATOM     13  O   LIG    1       30.025 -16.420  10.375  0.00  0.00    -0.118 OA
BRANCH  11  14
ATOM     14  O   LIG    1       31.337 -17.305   8.591  0.00  0.00    -0.231 OA
ATOM     15  H   LIG    1       32.122 -17.887   8.594  0.00  0.00    +0.247 HD
ENDBRANCH  11  14
ENDBRANCH  10  11
ENDBRANCH   3  10
BRANCH   2  16
ATOM     16  O   LIG    1       30.285 -21.687   8.201  0.00  0.00    -0.205 OA
BRANCH  16  18
ATOM     17  O   LIG    1       32.073 -23.438   8.678  0.00  0.00    -0.118 OA
ATOM     18  S   LIG    1       31.374 -22.314   9.229  0.00  0.00    +0.208 S 
ATOM     19  O   LIG    1       30.690 -22.409  10.499  0.00  0.00    -0.118 OA
BRANCH  18  20
ATOM     20  O   LIG    1       32.472 -21.154   9.476  0.00  0.00    -0.231 OA
ATOM     21  H   LIG    1       32.195 -20.358   8.970  0.00  0.00    +0.247 HD
ENDBRANCH  18  20
ENDBRANCH  16  18
ENDBRANCH   2  16
ENDBRANCH   1   4
BRANCH   1  22
ATOM     22  C   LIG    1       25.809 -20.697   6.542  0.00  0.00    +0.284 C 
ATOM     23  C   LIG    1       25.321 -21.584   5.358  0.00  0.00    +0.241 C 
ATOM     24  C   LIG    1       24.786 -22.977   5.813  0.00  0.00    +0.218 C 
ATOM     25  C   LIG    1       23.889 -22.944   7.062  0.00  0.00    +0.174 C 
ATOM     26  C   LIG    1       23.936 -21.579   7.734  0.00  0.00    +0.197 C 
ATOM     27  O   LIG    1       25.298 -21.121   7.807  0.00  0.00    -0.346 OA
BRANCH  25  28
ATOM     28  O   LIG    1       22.551 -23.351   6.767  0.00  0.00    -0.387 OA
ATOM     29  H   LIG    1       22.316 -23.072   5.862  0.00  0.00    +0.210 HD
ENDBRANCH  25  28
BRANCH  23  30
ATOM     30  O   LIG    1       24.192 -20.978   4.676  0.00  0.00    -0.205 OA
BRANCH  30  31
ATOM     31  S   LIG    1       24.396 -19.776   3.595  0.00  0.00    +0.208 S 
ATOM     32  O   LIG    1       23.567 -18.654   3.951  0.00  0.00    -0.118 OA
ATOM     33  O   LIG    1       24.402 -20.336   2.265  0.00  0.00    -0.118 OA
BRANCH  31  34
ATOM     34  O   LIG    1       25.923 -19.330   3.824  0.00  0.00    -0.231 OA
ATOM     35  H   LIG    1       26.376 -20.100   4.230  0.00  0.00    +0.247 HD
ENDBRANCH  31  34
ENDBRANCH  30  31
ENDBRANCH  23  30
BRANCH  24  36
ATOM     36  O   LIG    1       25.759 -23.950   6.156  0.00  0.00    -0.207 OA
BRANCH  36  37
ATOM     37  S   LIG    1       25.531 -25.465   5.695  0.00  0.00    +0.208 S 
ATOM     38  O   LIG    1       24.391 -25.943   6.472  0.00  0.00    -0.118 OA
ATOM     39  O   LIG    1       26.763 -26.167   5.636  0.00  0.00    -0.118 OA
BRANCH  37  40
ATOM     40  O   LIG    1       24.945 -25.345   4.214  0.00  0.00    -0.231 OA
ATOM     41  H   LIG    1       25.553 -24.739   3.742  0.00  0.00    +0.247 HD
ENDBRANCH  37  40
ENDBRANCH  36  37
ENDBRANCH  24  36
ENDBRANCH   1  22
TORSDOF 16
ENDMDL
MODEL 2
REMARK VINA RESULT:      -7.0      0.721      7.473
REMARK  Name = *****
REMARK                            x       y       z     vdW  Elec       q    Type
REMARK                         _______ _______ _______ _____ _____    ______ ____
ROOT
ATOM      1  O   LIG    1       26.863 -20.755   7.353  0.00  0.00    -0.340 OA
ENDROOT
BRANCH   1   4
ATOM      2  C   LIG    1       25.127 -23.037   5.943  0.00  0.00    +0.241 C 
ATOM      3  C   LIG    1       25.371 -21.558   5.467  0.00  0.00    +0.219 C 
ATOM      4  C   LIG    1       25.616 -20.550   6.650  0.00  0.00    +0.181 C 
ATOM      5  C   LIG    1       24.430 -20.650   7.614  0.00  0.00    +0.197 C 
ATOM      6  O   LIG    1       23.630 -21.817   7.475  0.00  0.00    -0.346 OA
ATOM      7  C   LIG    1       24.346 -23.025   7.267  0.00  0.00    +0.281 C 
BRANCH   7   8
ATOM      8  O   LIG    1       23.419 -24.101   7.244  0.00  0.00    -0.365 OA
ATOM      9  H   LIG    1       22.731 -23.797   6.619  0.00  0.00    +0.213 HD
ENDBRANCH   7   8
BRANCH   3  10
ATOM     10  O   LIG    1       24.286 -21.059   4.575  0.00  0.00    -0.207 OA
BRANCH  10  11
ATOM     11  S   LIG    1       24.302 -19.759   3.559  0.00  0.00    +0.208 S 
ATOM     12  O   LIG    1       23.336 -18.762   3.970  0.00  0.00    -0.118 OA
ATOM     13  O   LIG    1       24.303 -20.202   2.188  0.00  0.00    -0.118 OA
BRANCH  11  14
ATOM     14  O   LIG    1       25.792 -19.139   3.716  0.00  0.00    -0.231 OA
ATOM     15  H   LIG    1       26.393 -19.750   4.186  0.00  0.00    +0.247 HD
ENDBRANCH  11  14
ENDBRANCH  10  11
ENDBRANCH   3  10
BRANCH   2  16
ATOM     16  O   LIG    1       26.176 -24.037   5.926  0.00  0.00    -0.205 OA
BRANCH  16  18
ATOM     17  O   LIG    1       27.120 -26.340   5.380  0.00  0.00    -0.118 OA
ATOM     18  S   LIG    1       25.942 -25.639   5.801  0.00  0.00    +0.208 S 
ATOM     19  O   LIG    1       24.691 -25.788   5.091  0.00  0.00    -0.118 OA
BRANCH  18  20
ATOM     20  O   LIG    1       25.596 -26.157   7.292  0.00  0.00    -0.231 OA
ATOM     21  H   LIG    1       25.360 -27.110   7.238  0.00  0.00    +0.247 HD
ENDBRANCH  18  20
ENDBRANCH  16  18
ENDBRANCH   2  16
ENDBRANCH   1   4
BRANCH   1  22
ATOM     22  C   LIG    1       27.898 -19.753   7.120  0.00  0.00    +0.284 C 
ATOM     23  C   LIG    1       28.834 -19.674   8.361  0.00  0.00    +0.241 C 
ATOM     24  C   LIG    1       30.261 -20.246   8.094  0.00  0.00    +0.218 C 
ATOM     25  C   LIG    1       30.874 -19.837   6.744  0.00  0.00    +0.174 C 
ATOM     26  C   LIG    1       29.836 -19.172   5.850  0.00  0.00    +0.197 C 
ATOM     27  O   LIG    1       28.608 -19.922   5.891  0.00  0.00    -0.346 OA
BRANCH  25  28
ATOM     28  O   LIG    1       32.036 -19.022   6.912  0.00  0.00    -0.387 OA
ATOM     29  H   LIG    1       31.772 -18.133   7.215  0.00  0.00    +0.210 HD
ENDBRANCH  25  28
BRANCH  23  30
ATOM     30  O   LIG    1       29.073 -18.297   8.753  0.00  0.00    -0.205 OA
BRANCH  30  31
ATOM     31  S   LIG    1       30.375 -17.878   9.639  0.00  0.00    +0.208 S 
ATOM     32  O   LIG    1       31.304 -17.141   8.822  0.00  0.00    -0.118 OA
ATOM     33  O   LIG    1       30.784 -19.009  10.438  0.00  0.00    -0.118 OA
BRANCH  31  34
ATOM     34  O   LIG    1       29.772 -16.852  10.718  0.00  0.00    -0.231 OA
ATOM     35  H   LIG    1       30.105 -15.963  10.468  0.00  0.00    +0.247 HD
ENDBRANCH  31  34
ENDBRANCH  30  31
ENDBRANCH  23  30
BRANCH  24  36
ATOM     36  O   LIG    1       30.386 -21.658   8.075  0.00  0.00    -0.207 OA
BRANCH  36  37
ATOM     37  S   LIG    1       31.260 -22.370   9.211  0.00  0.00    +0.208 S 
ATOM     38  O   LIG    1       31.907 -23.502   8.553  0.00  0.00    -0.118 OA
ATOM     39  O   LIG    1       30.515 -22.509  10.410  0.00  0.00    -0.118 OA
BRANCH  37  40
ATOM     40  O   LIG    1       32.466 -21.357   9.477  0.00  0.00    -0.231 OA
ATOM     41  H   LIG    1       33.150 -21.884   9.940  0.00  0.00    +0.247 HD
ENDBRANCH  37  40
ENDBRANCH  36  37
ENDBRANCH  24  36
ENDBRANCH   1  22
TORSDOF 16
ENDMDL
MODEL 3
REMARK VINA RESULT:      -6.4      1.600      7.640
REMARK  Name = *****
REMARK                            x       y       z     vdW  Elec       q    Type
REMARK                         _______ _______ _______ _____ _____    ______ ____
ROOT
ATOM      1  O   LIG    1       26.970 -21.099   8.617  0.00  0.00    -0.340 OA
ENDROOT
BRANCH   1   4
ATOM      2  C   LIG    1       25.144 -22.536   6.424  0.00  0.00    +0.241 C 
ATOM      3  C   LIG    1       25.858 -21.137   6.339  0.00  0.00    +0.219 C 
ATOM      4  C   LIG    1       26.034 -20.436   7.736  0.00  0.00    +0.181 C 
ATOM      5  C   LIG    1       24.655 -20.333   8.394  0.00  0.00    +0.197 C 
ATOM      6  O   LIG    1       23.655 -21.182   7.846  0.00  0.00    -0.346 OA
ATOM      7  C   LIG    1       24.079 -22.499   7.532  0.00  0.00    +0.281 C 
BRANCH   7   8
ATOM      8  O   LIG    1       22.953 -23.243   7.088  0.00  0.00    -0.365 OA
ATOM      9  H   LIG    1       23.248 -23.616   6.234  0.00  0.00    +0.213 HD
ENDBRANCH   7   8
BRANCH   3  10
ATOM     10  O   LIG    1       25.195 -20.215   5.375  0.00  0.00    -0.207 OA
BRANCH  10  11
ATOM     11  S   LIG    1       23.984 -20.540   4.302  0.00  0.00    +0.208 S 
ATOM     12  O   LIG    1       24.189 -21.818   3.652  0.00  0.00    -0.118 OA
ATOM     13  O   LIG    1       23.719 -19.381   3.488  0.00  0.00    -0.118 OA
BRANCH  11  14
ATOM     14  O   LIG    1       22.645 -20.626   5.214  0.00  0.00    -0.231 OA
ATOM     15  H   LIG    1       22.739 -20.119   6.045  0.00  0.00    +0.247 HD
ENDBRANCH  11  14
ENDBRANCH  10  11
ENDBRANCH   3  10
BRANCH   2  16
ATOM     16  O   LIG    1       25.883 -23.783   6.405  0.00  0.00    -0.205 OA
BRANCH  16  18
ATOM     17  O   LIG    1       24.258 -25.744   6.456  0.00  0.00    -0.118 OA
ATOM     18  S   LIG    1       25.362 -25.171   5.743  0.00  0.00    +0.208 S 
ATOM     19  O   LIG    1       26.558 -25.939   5.476  0.00  0.00    -0.118 OA
BRANCH  18  20
ATOM     20  O   LIG    1       24.821 -24.787   4.270  0.00  0.00    -0.231 OA
ATOM     21  H   LIG    1       25.586 -24.480   3.734  0.00  0.00    +0.247 HD
ENDBRANCH  18  20
ENDBRANCH  16  18
ENDBRANCH   2  16
ENDBRANCH   1   4
BRANCH   1  22
ATOM     22  C   LIG    1       28.327 -21.255   8.103  0.00  0.00    +0.284 C 
ATOM     23  C   LIG    1       28.889 -19.863   7.690  0.00  0.00    +0.241 C 
ATOM     24  C   LIG    1       30.019 -19.349   8.636  0.00  0.00    +0.218 C 
ATOM     25  C   LIG    1       31.050 -20.415   9.042  0.00  0.00    +0.174 C 
ATOM     26  C   LIG    1       30.589 -21.807   8.634  0.00  0.00    +0.197 C 
ATOM     27  O   LIG    1       29.201 -21.977   8.972  0.00  0.00    -0.346 OA
BRANCH  25  28
ATOM     28  O   LIG    1       32.353 -20.113   8.537  0.00  0.00    -0.387 OA
ATOM     29  H   LIG    1       32.903 -20.920   8.544  0.00  0.00    +0.210 HD
ENDBRANCH  25  28
BRANCH  23  30
ATOM     30  O   LIG    1       29.521 -19.917   6.384  0.00  0.00    -0.205 OA
BRANCH  30  31
ATOM     31  S   LIG    1       29.800 -18.566   5.516  0.00  0.00    +0.208 S 
ATOM     32  O   LIG    1       30.926 -18.771   4.643  0.00  0.00    -0.118 OA
ATOM     33  O   LIG    1       29.702 -17.419   6.388  0.00  0.00    -0.118 OA
BRANCH  31  34
ATOM     34  O   LIG    1       28.494 -18.448   4.588  0.00  0.00    -0.231 OA
ATOM     35  H   LIG    1       28.173 -17.525   4.681  0.00  0.00    +0.247 HD
ENDBRANCH  31  34
ENDBRANCH  30  31
ENDBRANCH  23  30
BRANCH  24  36
ATOM     36  O   LIG    1       29.608 -18.824   9.888  0.00  0.00    -0.207 OA
BRANCH  36  37
ATOM     37  S   LIG    1       30.527 -17.726  10.602  0.00  0.00    +0.208 S 
ATOM     38  O   LIG    1       30.947 -18.330  11.864  0.00  0.00    -0.118 OA
ATOM     39  O   LIG    1       29.927 -16.442  10.534  0.00  0.00    -0.118 OA
BRANCH  37  40
ATOM     40  O   LIG    1       31.868 -17.706   9.736  0.00  0.00    -0.231 OA
ATOM     41  H   LIG    1       32.197 -18.629   9.744  0.00  0.00    +0.247 HD
ENDBRANCH  37  40
ENDBRANCH  36  37
ENDBRANCH  24  36
ENDBRANCH   1  22
TORSDOF 16
ENDMDL
MODEL 4
REMARK VINA RESULT:      -6.1      9.172     12.214
REMARK  Name = *****
REMARK                            x       y       z     vdW  Elec       q    Type
REMARK                         _______ _______ _______ _____ _____    ______ ____
ROOT
ATOM      1  O   LIG    1       22.378 -31.517  10.546  0.00  0.00    -0.340 OA
ENDROOT
BRANCH   1   4
ATOM      2  C   LIG    1       21.936 -29.812  13.211  0.00  0.00    +0.241 C 
ATOM      3  C   LIG    1       23.225 -30.582  12.744  0.00  0.00    +0.219 C 
ATOM      4  C   LIG    1       22.917 -31.838  11.849  0.00  0.00    +0.181 C 
ATOM      5  C   LIG    1       21.958 -32.748  12.621  0.00  0.00    +0.197 C 
ATOM      6  O   LIG    1       21.280 -32.135  13.709  0.00  0.00    -0.346 OA
ATOM      7  C   LIG    1       20.805 -30.820  13.467  0.00  0.00    +0.281 C 
BRANCH   7   8
ATOM      8  O   LIG    1       20.074 -30.387  14.606  0.00  0.00    -0.365 OA
ATOM      9  H   LIG    1       19.337 -31.026  14.662  0.00  0.00    +0.213 HD
ENDBRANCH   7   8
BRANCH   3  10
ATOM     10  O   LIG    1       24.109 -30.960  13.883  0.00  0.00    -0.207 OA
BRANCH  10  11
ATOM     11  S   LIG    1       25.739 -30.757  14.037  0.00  0.00    +0.208 S 
ATOM     12  O   LIG    1       26.256 -31.505  15.164  0.00  0.00    -0.118 OA
ATOM     13  O   LIG    1       26.079 -29.362  13.914  0.00  0.00    -0.118 OA
BRANCH  11  14
ATOM     14  O   LIG    1       26.356 -31.378  12.671  0.00  0.00    -0.231 OA
ATOM     15  H   LIG    1       25.878 -32.183  12.390  0.00  0.00    +0.247 HD
ENDBRANCH  11  14
ENDBRANCH  10  11
ENDBRANCH   3  10
BRANCH   2  16
ATOM     16  O   LIG    1       21.471 -28.610  12.547  0.00  0.00    -0.205 OA
BRANCH  16  18
ATOM     17  O   LIG    1       22.315 -26.267  13.081  0.00  0.00    -0.118 OA
ATOM     18  S   LIG    1       21.223 -27.176  13.268  0.00  0.00    +0.208 S 
ATOM     19  O   LIG    1       20.735 -27.494  14.591  0.00  0.00    -0.118 OA
BRANCH  18  20
ATOM     20  O   LIG    1       19.938 -26.525  12.536  0.00  0.00    -0.231 OA
ATOM     21  H   LIG    1       19.182 -26.554  13.164  0.00  0.00    +0.247 HD
ENDBRANCH  18  20
ENDBRANCH  16  18
ENDBRANCH   2  16
ENDBRANCH   1   4
BRANCH   1  22
ATOM     22  C   LIG    1       23.190 -31.924   9.403  0.00  0.00    +0.284 C 
ATOM     23  C   LIG    1       23.809 -30.664   8.730  0.00  0.00    +0.241 C 
ATOM     24  C   LIG    1       25.351 -30.549   8.939  0.00  0.00    +0.218 C 
ATOM     25  C   LIG    1       26.122 -31.869   8.768  0.00  0.00    +0.174 C 
ATOM     26  C   LIG    1       25.169 -33.053   8.688  0.00  0.00    +0.197 C 
ATOM     27  O   LIG    1       24.157 -32.932   9.704  0.00  0.00    -0.346 OA
BRANCH  25  28
ATOM     28  O   LIG    1       27.014 -31.823   7.652  0.00  0.00    -0.387 OA
ATOM     29  H   LIG    1       26.588 -31.355   6.910  0.00  0.00    +0.210 HD
ENDBRANCH  25  28
BRANCH  23  30
ATOM     30  O   LIG    1       23.650 -30.707   7.288  0.00  0.00    -0.205 OA
BRANCH  30  31
ATOM     31  S   LIG    1       24.355 -29.601   6.320  0.00  0.00    +0.208 S 
ATOM     32  O   LIG    1       25.444 -30.207   5.599  0.00  0.00    -0.118 OA
ATOM     33  O   LIG    1       24.512 -28.367   7.054  0.00  0.00    -0.118 OA
BRANCH  31  34
ATOM     34  O   LIG    1       23.206 -29.262   5.250  0.00  0.00    -0.231 OA
ATOM     35  H   LIG    1       23.325 -29.894   4.509  0.00  0.00    +0.247 HD
ENDBRANCH  31  34
ENDBRANCH  30  31
ENDBRANCH  23  30
BRANCH  24  36
ATOM     36  O   LIG    1       25.787 -30.098  10.210  0.00  0.00    -0.207 OA
BRANCH  36  37
ATOM     37  S   LIG    1       26.902 -28.953  10.281  0.00  0.00    +0.208 S 
ATOM     38  O   LIG    1       28.151 -29.642  10.594  0.00  0.00    -0.118 OA
ATOM     39  O   LIG    1       26.438 -27.839  11.028  0.00  0.00    -0.118 OA
BRANCH  37  40
ATOM     40  O   LIG    1       27.101 -28.497   8.763  0.00  0.00    -0.231 OA
ATOM     41  H   LIG    1       27.986 -28.830   8.506  0.00  0.00    +0.247 HD
ENDBRANCH  37  40
ENDBRANCH  36  37
ENDBRANCH  24  36
ENDBRANCH   1  22
TORSDOF 16
ENDMDL
MODEL 5
REMARK VINA RESULT:      -6.0      8.220     11.189
REMARK  Name = *****
REMARK                            x       y       z     vdW  Elec       q    Type
REMARK                         _______ _______ _______ _____ _____    ______ ____
ROOT
ATOM      1  O   LIG    1       26.460 -30.626  10.039  0.00  0.00    -0.340 OA
ENDROOT
BRANCH   1   4
ATOM      2  C   LIG    1       26.456 -29.592  13.062  0.00  0.00    +0.241 C 
ATOM      3  C   LIG    1       25.275 -29.586  12.024  0.00  0.00    +0.219 C 
ATOM      4  C   LIG    1       25.752 -29.464  10.530  0.00  0.00    +0.181 C 
ATOM      5  C   LIG    1       26.622 -28.210  10.410  0.00  0.00    +0.197 C 
ATOM      6  O   LIG    1       27.115 -27.692  11.638  0.00  0.00    -0.346 OA
ATOM      7  C   LIG    1       27.574 -28.661  12.568  0.00  0.00    +0.281 C 
BRANCH   7   8
ATOM      8  O   LIG    1       28.118 -27.986  13.693  0.00  0.00    -0.365 OA
ATOM      9  H   LIG    1       28.960 -28.455  13.857  0.00  0.00    +0.213 HD
ENDBRANCH   7   8
BRANCH   3  10
ATOM     10  O   LIG    1       24.251 -28.547  12.329  0.00  0.00    -0.207 OA
BRANCH  10  11
ATOM     11  S   LIG    1       22.857 -28.695  13.198  0.00  0.00    +0.208 S 
ATOM     12  O   LIG    1       21.734 -28.118  12.490  0.00  0.00    -0.118 OA
ATOM     13  O   LIG    1       23.084 -28.313  14.569  0.00  0.00    -0.118 OA
BRANCH  11  14
ATOM     14  O   LIG    1       22.626 -30.296  13.327  0.00  0.00    -0.231 OA
ATOM     15  H   LIG    1       23.016 -30.780  12.573  0.00  0.00    +0.247 HD
ENDBRANCH  11  14
ENDBRANCH  10  11
ENDBRANCH   3  10
BRANCH   2  16
ATOM     16  O   LIG    1       26.969 -30.818  13.643  0.00  0.00    -0.205 OA
BRANCH  16  18
ATOM     17  O   LIG    1       24.844 -31.946  14.482  0.00  0.00    -0.118 OA
ATOM     18  S   LIG    1       26.114 -32.182  13.860  0.00  0.00    +0.208 S 
ATOM     19  O   LIG    1       27.051 -33.135  14.411  0.00  0.00    -0.118 OA
BRANCH  18  20
ATOM     20  O   LIG    1       25.813 -32.759  12.381  0.00  0.00    -0.231 OA
ATOM     21  H   LIG    1       25.322 -32.070  11.878  0.00  0.00    +0.247 HD
ENDBRANCH  18  20
ENDBRANCH  16  18
ENDBRANCH   2  16
ENDBRANCH   1   4
BRANCH   1  22
ATOM     22  C   LIG    1       25.740 -31.450   9.074  0.00  0.00    +0.284 C 
ATOM     23  C   LIG    1       24.422 -30.733   8.659  0.00  0.00    +0.241 C 
ATOM     24  C   LIG    1       24.443 -30.204   7.191  0.00  0.00    +0.218 C 
ATOM     25  C   LIG    1       25.047 -31.178   6.166  0.00  0.00    +0.174 C 
ATOM     26  C   LIG    1       25.732 -32.347   6.860  0.00  0.00    +0.197 C 
ATOM     27  O   LIG    1       26.529 -31.862   7.956  0.00  0.00    -0.346 OA
BRANCH  25  28
ATOM     28  O   LIG    1       24.077 -31.615   5.212  0.00  0.00    -0.387 OA
ATOM     29  H   LIG    1       23.270 -31.908   5.676  0.00  0.00    +0.210 HD
ENDBRANCH  25  28
BRANCH  23  30
ATOM     30  O   LIG    1       23.294 -31.647   8.688  0.00  0.00    -0.205 OA
BRANCH  30  31
ATOM     31  S   LIG    1       22.362 -31.807  10.015  0.00  0.00    +0.208 S 
ATOM     32  O   LIG    1       23.179 -32.156  11.147  0.00  0.00    -0.118 OA
ATOM     33  O   LIG    1       21.173 -32.549   9.666  0.00  0.00    -0.118 OA
BRANCH  31  34
ATOM     34  O   LIG    1       21.816 -30.316  10.263  0.00  0.00    -0.231 OA
ATOM     35  H   LIG    1       21.051 -30.401  10.871  0.00  0.00    +0.247 HD
ENDBRANCH  31  34
ENDBRANCH  30  31
ENDBRANCH  23  30
BRANCH  24  36
ATOM     36  O   LIG    1       25.177 -29.013   6.957  0.00  0.00    -0.207 OA
BRANCH  36  37
ATOM     37  S   LIG    1       24.633 -27.973   5.869  0.00  0.00    +0.208 S 
ATOM     38  O   LIG    1       25.701 -27.845   4.882  0.00  0.00    -0.118 OA
ATOM     39  O   LIG    1       24.036 -26.850   6.497  0.00  0.00    -0.118 OA
BRANCH  37  40
ATOM     40  O   LIG    1       23.498 -28.777   5.084  0.00  0.00    -0.231 OA
ATOM     41  H   LIG    1       23.004 -29.270   5.773  0.00  0.00    +0.247 HD
ENDBRANCH  37  40
ENDBRANCH  36  37
ENDBRANCH  24  36
ENDBRANCH   1  22
TORSDOF 16
ENDMDL
MODEL 6
REMARK VINA RESULT:      -6.0      7.689     10.513
REMARK  Name = *****
REMARK                            x       y       z     vdW  Elec       q    Type
REMARK                         _______ _______ _______ _____ _____    ______ ____
ROOT
ATOM      1  O   LIG    1       26.002 -29.720  10.519  0.00  0.00    -0.340 OA
ENDROOT
BRANCH   1   4
ATOM      2  C   LIG    1       26.621 -28.254  13.290  0.00  0.00    +0.241 C 
ATOM      3  C   LIG    1       27.489 -29.325  12.534  0.00  0.00    +0.219 C 
ATOM      4  C   LIG    1       26.639 -30.326  11.668  0.00  0.00    +0.181 C 
ATOM      5  C   LIG    1       25.598 -30.978  12.581  0.00  0.00    +0.197 C 
ATOM      6  O   LIG    1       25.361 -30.307  13.811  0.00  0.00    -0.346 OA
ATOM      7  C   LIG    1       25.294 -28.891  13.730  0.00  0.00    +0.281 C 
BRANCH   7   8
ATOM      8  O   LIG    1       24.961 -28.380  15.013  0.00  0.00    -0.365 OA
ATOM      9  H   LIG    1       24.760 -29.183  15.534  0.00  0.00    +0.213 HD
ENDBRANCH   7   8
BRANCH   3  10
ATOM     10  O   LIG    1       28.398 -30.071  13.448  0.00  0.00    -0.207 OA
BRANCH  10  11
ATOM     11  S   LIG    1       29.936 -29.693  13.911  0.00  0.00    +0.208 S 
ATOM     12  O   LIG    1       30.831 -29.652  12.772  0.00  0.00    -0.118 OA
ATOM     13  O   LIG    1       30.313 -30.471  15.063  0.00  0.00    -0.118 OA
BRANCH  11  14
ATOM     14  O   LIG    1       29.816 -28.200  14.535  0.00  0.00    -0.231 OA
ATOM     15  H   LIG    1       29.070 -27.703  14.145  0.00  0.00    +0.247 HD
ENDBRANCH  11  14
ENDBRANCH  10  11
ENDBRANCH   3  10
BRANCH   2  16
ATOM     16  O   LIG    1       26.450 -26.904  12.789  0.00  0.00    -0.205 OA
BRANCH  16  18
ATOM     17  O   LIG    1       26.625 -25.820  15.087  0.00  0.00    -0.118 OA
ATOM     18  S   LIG    1       26.563 -25.551  13.681  0.00  0.00    +0.208 S 
ATOM     19  O   LIG    1       25.573 -24.651  13.134  0.00  0.00    -0.118 OA
BRANCH  18  20
ATOM     20  O   LIG    1       27.968 -24.865  13.272  0.00  0.00    -0.231 OA
ATOM     21  H   LIG    1       28.266 -24.307  14.025  0.00  0.00    +0.247 HD
ENDBRANCH  18  20
ENDBRANCH  16  18
ENDBRANCH   2  16
ENDBRANCH   1   4
BRANCH   1  22
ATOM     22  C   LIG    1       25.317 -30.636   9.614  0.00  0.00    +0.284 C 
ATOM     23  C   LIG    1       24.080 -29.924   8.991  0.00  0.00    +0.241 C 
ATOM     24  C   LIG    1       24.251 -29.607   7.473  0.00  0.00    +0.218 C 
ATOM     25  C   LIG    1       24.880 -30.742   6.647  0.00  0.00    +0.174 C 
ATOM     26  C   LIG    1       25.437 -31.833   7.550  0.00  0.00    +0.197 C 
ATOM     27  O   LIG    1       26.169 -31.237   8.637  0.00  0.00    -0.346 OA
BRANCH  25  28
ATOM     28  O   LIG    1       23.967 -31.263   5.678  0.00  0.00    -0.387 OA
ATOM     29  H   LIG    1       24.051 -32.234   5.638  0.00  0.00    +0.210 HD
ENDBRANCH  25  28
BRANCH  23  30
ATOM     30  O   LIG    1       22.903 -30.773   9.044  0.00  0.00    -0.205 OA
BRANCH  30  31
ATOM     31  S   LIG    1       22.064 -30.981  10.425  0.00  0.00    +0.208 S 
ATOM     32  O   LIG    1       22.529 -32.163  11.104  0.00  0.00    -0.118 OA
ATOM     33  O   LIG    1       20.664 -30.745  10.164  0.00  0.00    -0.118 OA
BRANCH  31  34
ATOM     34  O   LIG    1       22.502 -29.718  11.315  0.00  0.00    -0.231 OA
ATOM     35  H   LIG    1       23.024 -29.133  10.725  0.00  0.00    +0.247 HD
ENDBRANCH  31  34
ENDBRANCH  30  31
ENDBRANCH  23  30
BRANCH  24  36
ATOM     36  O   LIG    1       25.069 -28.496   7.145  0.00  0.00    -0.207 OA
BRANCH  36  37
ATOM     37  S   LIG    1       24.669 -27.587   5.892  0.00  0.00    +0.208 S 
ATOM     38  O   LIG    1       25.853 -27.556   5.037  0.00  0.00    -0.118 OA
ATOM     39  O   LIG    1       24.002 -26.407   6.314  0.00  0.00    -0.118 OA
BRANCH  37  40
ATOM     40  O   LIG    1       23.638 -28.483   5.064  0.00  0.00    -0.231 OA
ATOM     41  H   LIG    1       23.034 -27.848   4.627  0.00  0.00    +0.247 HD
ENDBRANCH  37  40
ENDBRANCH  36  37
ENDBRANCH  24  36
ENDBRANCH   1  22
TORSDOF 16
ENDMDL
MODEL 7
REMARK VINA RESULT:      -5.7      8.139     12.301
REMARK  Name = *****
REMARK                            x       y       z     vdW  Elec       q    Type
REMARK                         _______ _______ _______ _____ _____    ______ ____
ROOT
ATOM      1  O   LIG    1       22.993 -30.799   9.619  0.00  0.00    -0.340 OA
ENDROOT
BRANCH   1   4
ATOM      2  C   LIG    1       25.222 -29.537   7.710  0.00  0.00    +0.241 C 
ATOM      3  C   LIG    1       24.643 -31.000   7.706  0.00  0.00    +0.219 C 
ATOM      4  C   LIG    1       24.162 -31.489   9.121  0.00  0.00    +0.181 C 
ATOM      5  C   LIG    1       25.332 -31.342  10.098  0.00  0.00    +0.197 C 
ATOM      6  O   LIG    1       26.383 -30.488   9.664  0.00  0.00    -0.346 OA
ATOM      7  C   LIG    1       25.970 -29.288   9.029  0.00  0.00    +0.281 C 
BRANCH   7   8
ATOM      8  O   LIG    1       27.122 -28.508   8.744  0.00  0.00    -0.365 OA
ATOM      9  H   LIG    1       27.372 -28.142   9.616  0.00  0.00    +0.213 HD
ENDBRANCH   7   8
BRANCH   3  10
ATOM     10  O   LIG    1       25.587 -31.986   7.108  0.00  0.00    -0.207 OA
BRANCH  10  11
ATOM     11  S   LIG    1       25.648 -32.548   5.558  0.00  0.00    +0.208 S 
ATOM     12  O   LIG    1       24.668 -33.593   5.342  0.00  0.00    -0.118 OA
ATOM     13  O   LIG    1       27.015 -32.787   5.170  0.00  0.00    -0.118 OA
BRANCH  11  14
ATOM     14  O   LIG    1       25.255 -31.267   4.645  0.00  0.00    -0.231 OA
ATOM     15  H   LIG    1       25.872 -30.521   4.781  0.00  0.00    +0.247 HD
ENDBRANCH  11  14
ENDBRANCH  10  11
ENDBRANCH   3  10
BRANCH   2  16
ATOM     16  O   LIG    1       24.434 -28.393   7.292  0.00  0.00    -0.205 OA
BRANCH  16  18
ATOM     17  O   LIG    1       24.009 -26.221   6.032  0.00  0.00    -0.118 OA
ATOM     18  S   LIG    1       24.772 -27.435   6.026  0.00  0.00    +0.208 S 
ATOM     19  O   LIG    1       24.774 -28.310   4.875  0.00  0.00    -0.118 OA
BRANCH  18  20
ATOM     20  O   LIG    1       26.324 -27.015   6.186  0.00  0.00    -0.231 OA
ATOM     21  H   LIG    1       26.361 -26.057   6.405  0.00  0.00    +0.247 HD
ENDBRANCH  18  20
ENDBRANCH  16  18
ENDBRANCH   2  16
ENDBRANCH   1   4
BRANCH   1  22
ATOM     22  C   LIG    1       22.433 -31.313  10.865  0.00  0.00    +0.284 C 
ATOM     23  C   LIG    1       21.274 -30.386  11.335  0.00  0.00    +0.241 C 
ATOM     24  C   LIG    1       19.866 -31.047  11.205  0.00  0.00    +0.218 C 
ATOM     25  C   LIG    1       19.800 -32.514  11.660  0.00  0.00    +0.174 C 
ATOM     26  C   LIG    1       21.195 -33.077  11.895  0.00  0.00    +0.197 C 
ATOM     27  O   LIG    1       22.062 -32.692  10.813  0.00  0.00    -0.346 OA
BRANCH  25  28
ATOM     28  O   LIG    1       18.957 -32.680  12.803  0.00  0.00    -0.387 OA
ATOM     29  H   LIG    1       18.052 -32.383  12.588  0.00  0.00    +0.210 HD
ENDBRANCH  25  28
BRANCH  23  30
ATOM     30  O   LIG    1       21.389 -30.076  12.748  0.00  0.00    -0.205 OA
BRANCH  30  31
ATOM     31  S   LIG    1       21.602 -28.546  13.270  0.00  0.00    +0.208 S 
ATOM     32  O   LIG    1       22.840 -28.023  12.755  0.00  0.00    -0.118 OA
ATOM     33  O   LIG    1       21.261 -28.476  14.671  0.00  0.00    -0.118 OA
BRANCH  31  34
ATOM     34  O   LIG    1       20.410 -27.744  12.551  0.00  0.00    -0.231 OA
ATOM     35  H   LIG    1       20.738 -26.829  12.413  0.00  0.00    +0.247 HD
ENDBRANCH  31  34
ENDBRANCH  30  31
ENDBRANCH  23  30
BRANCH  24  36
ATOM     36  O   LIG    1       19.308 -31.101   9.903  0.00  0.00    -0.207 OA
BRANCH  36  37
ATOM     37  S   LIG    1       17.737 -31.361   9.747  0.00  0.00    +0.208 S 
ATOM     38  O   LIG    1       17.172 -31.149  11.077  0.00  0.00    -0.118 OA
ATOM     39  O   LIG    1       17.490 -32.537   8.992  0.00  0.00    -0.118 OA
BRANCH  37  40
ATOM     40  O   LIG    1       17.208 -30.104   8.915  0.00  0.00    -0.231 OA
ATOM     41  H   LIG    1       16.285 -29.964   9.214  0.00  0.00    +0.247 HD
ENDBRANCH  37  40
ENDBRANCH  36  37
ENDBRANCH  24  36
ENDBRANCH   1  22
TORSDOF 16
ENDMDL
MODEL 8
REMARK VINA RESULT:      -5.6      8.336     12.019
REMARK  Name = *****
REMARK                            x       y       z     vdW  Elec       q    Type
REMARK                         _______ _______ _______ _____ _____    ______ ____
ROOT
ATOM      1  O   LIG    1       27.333 -29.513  10.030  0.00  0.00    -0.340 OA
ENDROOT
BRANCH   1   4
ATOM      2  C   LIG    1       24.829 -29.976   8.101  0.00  0.00    +0.241 C 
ATOM      3  C   LIG    1       24.898 -30.114   9.666  0.00  0.00    +0.219 C 
ATOM      4  C   LIG    1       26.318 -30.529  10.199  0.00  0.00    +0.181 C 
ATOM      5  C   LIG    1       26.730 -31.825   9.494  0.00  0.00    +0.197 C 
ATOM      6  O   LIG    1       26.000 -32.134   8.314  0.00  0.00    -0.346 OA
ATOM      7  C   LIG    1       25.737 -31.035   7.456  0.00  0.00    +0.281 C 
BRANCH   7   8
ATOM      8  O   LIG    1       25.091 -31.519   6.287  0.00  0.00    -0.365 OA
ATOM      9  H   LIG    1       25.699 -31.262   5.566  0.00  0.00    +0.213 HD
ENDBRANCH   7   8
BRANCH   3  10
ATOM     10  O   LIG    1       23.852 -31.028  10.205  0.00  0.00    -0.207 OA
BRANCH  10  11
ATOM     11  S   LIG    1       22.399 -30.647  10.886  0.00  0.00    +0.208 S 
ATOM     12  O   LIG    1       21.322 -30.770   9.924  0.00  0.00    -0.118 OA
ATOM     13  O   LIG    1       22.512 -29.431  11.650  0.00  0.00    -0.118 OA
BRANCH  11  14
ATOM     14  O   LIG    1       22.190 -31.759  12.048  0.00  0.00    -0.231 OA
ATOM     15  H   LIG    1       22.813 -31.630  12.790  0.00  0.00    +0.247 HD
ENDBRANCH  11  14
ENDBRANCH  10  11
ENDBRANCH   3  10
BRANCH   2  16
ATOM     16  O   LIG    1       24.912 -28.691   7.434  0.00  0.00    -0.205 OA
BRANCH  16  18
ATOM     17  O   LIG    1       25.548 -28.782   4.969  0.00  0.00    -0.118 OA
ATOM     18  S   LIG    1       24.510 -28.411   5.886  0.00  0.00    +0.208 S 
ATOM     19  O   LIG    1       23.942 -27.082   5.874  0.00  0.00    -0.118 OA
BRANCH  18  20
ATOM     20  O   LIG    1       23.245 -29.367   5.574  0.00  0.00    -0.231 OA
ATOM     21  H   LIG    1       23.251 -30.104   6.226  0.00  0.00    +0.247 HD
ENDBRANCH  18  20
ENDBRANCH  16  18
ENDBRANCH   2  16
ENDBRANCH   1   4
BRANCH   1  22
ATOM     22  C   LIG    1       27.936 -29.005  11.259  0.00  0.00    +0.284 C 
ATOM     23  C   LIG    1       26.841 -28.870  12.357  0.00  0.00    +0.241 C 
ATOM     24  C   LIG    1       26.988 -29.917  13.505  0.00  0.00    +0.218 C 
ATOM     25  C   LIG    1       28.429 -30.136  13.994  0.00  0.00    +0.174 C 
ATOM     26  C   LIG    1       29.431 -29.467  13.064  0.00  0.00    +0.197 C 
ATOM     27  O   LIG    1       29.080 -29.741  11.695  0.00  0.00    -0.346 OA
BRANCH  25  28
ATOM     28  O   LIG    1       28.599 -29.722  15.351  0.00  0.00    -0.387 OA
ATOM     29  H   LIG    1       28.606 -30.504  15.935  0.00  0.00    +0.210 HD
ENDBRANCH  25  28
BRANCH  23  30
ATOM     30  O   LIG    1       26.930 -27.589  13.035  0.00  0.00    -0.205 OA
BRANCH  30  31
ATOM     31  S   LIG    1       25.615 -26.869  13.672  0.00  0.00    +0.208 S 
ATOM     32  O   LIG    1       25.560 -25.493  13.252  0.00  0.00    -0.118 OA
ATOM     33  O   LIG    1       25.492 -27.256  15.058  0.00  0.00    -0.118 OA
BRANCH  31  34
ATOM     34  O   LIG    1       24.395 -27.633  12.958  0.00  0.00    -0.231 OA
ATOM     35  H   LIG    1       23.990 -26.988  12.339  0.00  0.00    +0.247 HD
ENDBRANCH  31  34
ENDBRANCH  30  31
ENDBRANCH  23  30
BRANCH  24  36
ATOM     36  O   LIG    1       26.554 -31.237  13.220  0.00  0.00    -0.207 OA
BRANCH  36  37
ATOM     37  S   LIG    1       25.214 -31.775  13.909  0.00  0.00    +0.208 S 
ATOM     38  O   LIG    1       25.542 -31.942  15.322  0.00  0.00    -0.118 OA
ATOM     39  O   LIG    1       24.626 -32.808  13.135  0.00  0.00    -0.118 OA
BRANCH  37  40
ATOM     40  O   LIG    1       24.232 -30.515  13.903  0.00  0.00    -0.231 OA
ATOM     41  H   LIG    1       24.730 -29.799  13.457  0.00  0.00    +0.247 HD
ENDBRANCH  37  40
ENDBRANCH  36  37
ENDBRANCH  24  36
ENDBRANCH   1  22
TORSDOF 16
ENDMDL
MODEL 9
REMARK VINA RESULT:      -5.6      8.573     12.169
REMARK  Name = *****
REMARK                            x       y       z     vdW  Elec       q    Type
REMARK                         _______ _______ _______ _____ _____    ______ ____
ROOT
ATOM      1  O   LIG    1       22.900 -30.486   9.217  0.00  0.00    -0.340 OA
ENDROOT
BRANCH   1   4
ATOM      2  C   LIG    1       21.859 -29.947  12.189  0.00  0.00    +0.241 C 
ATOM      3  C   LIG    1       22.986 -30.934  11.710  0.00  0.00    +0.219 C 
ATOM      4  C   LIG    1       22.762 -31.485  10.254  0.00  0.00    +0.181 C 
ATOM      5  C   LIG    1       21.377 -32.133  10.199  0.00  0.00    +0.197 C 
ATOM      6  O   LIG    1       20.494 -31.773  11.254  0.00  0.00    -0.346 OA
ATOM      7  C   LIG    1       20.507 -30.401  11.617  0.00  0.00    +0.281 C 
BRANCH   7   8
ATOM      8  O   LIG    1       19.512 -30.187  12.608  0.00  0.00    -0.365 OA
ATOM      9  H   LIG    1       19.069 -31.055  12.679  0.00  0.00    +0.213 HD
ENDBRANCH   7   8
BRANCH   3  10
ATOM     10  O   LIG    1       23.204 -32.058  12.664  0.00  0.00    -0.207 OA
BRANCH  10  11
ATOM     11  S   LIG    1       24.577 -32.930  12.935  0.00  0.00    +0.208 S 
ATOM     12  O   LIG    1       24.856 -33.825  11.831  0.00  0.00    -0.118 OA
ATOM     13  O   LIG    1       24.571 -33.461  14.275  0.00  0.00    -0.118 OA
BRANCH  11  14
ATOM     14  O   LIG    1       25.755 -31.818  13.017  0.00  0.00    -0.231 OA
ATOM     15  H   LIG    1       26.070 -31.558  12.129  0.00  0.00    +0.247 HD
ENDBRANCH  11  14
ENDBRANCH  10  11
ENDBRANCH   3  10
BRANCH   2  16
ATOM     16  O   LIG    1       22.024 -28.507  12.149  0.00  0.00    -0.205 OA
BRANCH  16  18
ATOM     17  O   LIG    1       22.292 -26.296  13.386  0.00  0.00    -0.118 OA
ATOM     18  S   LIG    1       21.474 -27.469  13.270  0.00  0.00    +0.208 S 
ATOM     19  O   LIG    1       21.166 -28.282  14.424  0.00  0.00    -0.118 OA
BRANCH  18  20
ATOM     20  O   LIG    1       20.024 -26.980  12.751  0.00  0.00    -0.231 OA
ATOM     21  H   LIG    1       19.415 -27.752  12.777  0.00  0.00    +0.247 HD
ENDBRANCH  18  20
ENDBRANCH  16  18
ENDBRANCH   2  16
ENDBRANCH   1   4
BRANCH   1  22
ATOM     22  C   LIG    1       23.668 -30.889   8.044  0.00  0.00    +0.284 C 
ATOM     23  C   LIG    1       24.932 -29.987   7.915  0.00  0.00    +0.241 C 
ATOM     24  C   LIG    1       26.261 -30.744   8.223  0.00  0.00    +0.218 C 
ATOM     25  C   LIG    1       26.356 -32.151   7.610  0.00  0.00    +0.174 C 
ATOM     26  C   LIG    1       25.012 -32.597   7.053  0.00  0.00    +0.197 C 
ATOM     27  O   LIG    1       23.969 -32.285   7.993  0.00  0.00    -0.346 OA
BRANCH  25  28
ATOM     28  O   LIG    1       27.396 -32.238   6.634  0.00  0.00    -0.387 OA
ATOM     29  H   LIG    1       27.170 -32.918   5.973  0.00  0.00    +0.210 HD
ENDBRANCH  25  28
BRANCH  23  30
ATOM     30  O   LIG    1       25.103 -29.512   6.554  0.00  0.00    -0.205 OA
BRANCH  30  31
ATOM     31  S   LIG    1       25.310 -27.929   6.225  0.00  0.00    +0.208 S 
ATOM     32  O   LIG    1       25.957 -27.281   7.335  0.00  0.00    -0.118 OA
ATOM     33  O   LIG    1       24.100 -27.412   5.630  0.00  0.00    -0.118 OA
BRANCH  31  34
ATOM     34  O   LIG    1       26.355 -27.941   5.005  0.00  0.00    -0.231 OA
ATOM     35  H   LIG    1       26.022 -27.290   4.351  0.00  0.00    +0.247 HD
ENDBRANCH  31  34
ENDBRANCH  30  31
ENDBRANCH  23  30
BRANCH  24  36
ATOM     36  O   LIG    1       26.556 -30.980   9.589  0.00  0.00    -0.207 OA
BRANCH  36  37
ATOM     37  S   LIG    1       27.021 -29.752  10.502  0.00  0.00    +0.208 S 
ATOM     38  O   LIG    1       28.311 -30.147  11.061  0.00  0.00    -0.118 OA
ATOM     39  O   LIG    1       25.951 -29.287  11.309  0.00  0.00    -0.118 OA
BRANCH  37  40
ATOM     40  O   LIG    1       27.405 -28.605   9.459  0.00  0.00    -0.231 OA
ATOM     41  H   LIG    1       26.796 -28.727   8.702  0.00  0.00    +0.247 HD
ENDBRANCH  37  40
ENDBRANCH  36  37
ENDBRANCH  24  36
ENDBRANCH   1  22
TORSDOF 16
ENDMDL
