MODEL 1
REMARK VINA RESULT:      -8.6      0.000      0.000
REMARK  Name = *****
REMARK                            x       y       z     vdW  Elec       q    Type
REMARK                         _______ _______ _______ _____ _____    ______ ____
ROOT
ATOM      1  C   LIG    1       29.318 -19.831   5.853  0.00  0.00    +0.138 C 
ATOM      2  N   LIG    1       28.037 -20.118   6.486  0.00  0.00    -0.272 N 
ATOM      3  C   LIG    1       28.045 -20.265   7.879  0.00  0.00    +0.241 C 
ATOM      4  O   LIG    1       29.086 -20.218   8.542  0.00  0.00    -0.273 OA
ATOM      5  C   LIG    1       26.695 -20.384   8.573  0.00  0.00    +0.238 C 
ATOM      6  N   LIG    1       26.105 -21.682   8.263  0.00  0.00    -0.273 NA
ATOM      7  C   LIG    1       25.686 -21.883   7.059  0.00  0.00    +0.078 C 
ATOM      8  C   LIG    1       25.698 -20.843   5.989  0.00  0.00    +0.023 A 
ATOM      9  C   LIG    1       24.522 -20.694   5.229  0.00  0.00    +0.032 A 
ATOM     10  C   LIG    1       24.501 -19.829   4.141  0.00  0.00    +0.042 A 
ATOM     11 CL   LIG    1       23.067 -19.662   3.208  0.00  0.00    -0.084 Cl
ATOM     12  C   LIG    1       25.637 -19.108   3.801  0.00  0.00    +0.022 A 
ATOM     13  C   LIG    1       26.798 -19.233   4.571  0.00  0.00    +0.025 A 
ATOM     14  C   LIG    1       26.846 -20.078   5.696  0.00  0.00    +0.045 A 
ENDROOT
BRANCH   7  15
ATOM     15  C   LIG    1       25.143 -23.241   6.746  0.00  0.00    +0.036 A 
ATOM     16  C   LIG    1       23.780 -23.529   6.838  0.00  0.00    +0.133 A 
ATOM     17  F   LIG    1       22.896 -22.590   7.203  0.00  0.00    -0.205 F 
ATOM     18  C   LIG    1       23.299 -24.801   6.536  0.00  0.00    +0.039 A 
ATOM     19  C   LIG    1       24.182 -25.798   6.123  0.00  0.00    +0.003 A 
ATOM     20  C   LIG    1       25.545 -25.516   6.007  0.00  0.00    +0.001 A 
ATOM     21  C   LIG    1       26.025 -24.240   6.311  0.00  0.00    +0.013 A 
ENDBRANCH   7  15
TORSDOF 1
ENDMDL
MODEL 2
REMARK VINA RESULT:      -8.3      1.171      1.443
REMARK  Name = *****
REMARK                            x       y       z     vdW  Elec       q    Type
REMARK                         _______ _______ _______ _____ _____    ______ ____
ROOT
ATOM      1  C   LIG    1       27.880 -19.619   5.498  0.00  0.00    +0.138 C 
ATOM      2  N   LIG    1       26.951 -20.370   6.332  0.00  0.00    -0.272 N 
ATOM      3  C   LIG    1       27.377 -20.673   7.630  0.00  0.00    +0.241 C 
ATOM      4  O   LIG    1       28.505 -20.380   8.040  0.00  0.00    -0.273 OA
ATOM      5  C   LIG    1       26.354 -21.296   8.571  0.00  0.00    +0.238 C 
ATOM      6  N   LIG    1       26.083 -22.667   8.151  0.00  0.00    -0.273 NA
ATOM      7  C   LIG    1       25.424 -22.843   7.055  0.00  0.00    +0.078 C 
ATOM      8  C   LIG    1       24.858 -21.732   6.236  0.00  0.00    +0.023 A 
ATOM      9  C   LIG    1       23.526 -21.872   5.802  0.00  0.00    +0.032 A 
ATOM     10  C   LIG    1       22.973 -20.934   4.938  0.00  0.00    +0.042 A 
ATOM     11 CL   LIG    1       21.351 -21.118   4.399  0.00  0.00    -0.084 Cl
ATOM     12  C   LIG    1       23.729 -19.856   4.502  0.00  0.00    +0.022 A 
ATOM     13  C   LIG    1       25.043 -19.699   4.953  0.00  0.00    +0.025 A 
ATOM     14  C   LIG    1       25.626 -20.614   5.851  0.00  0.00    +0.045 A 
ENDROOT
BRANCH   7  15
ATOM     15  C   LIG    1       25.212 -24.255   6.610  0.00  0.00    +0.036 A 
ATOM     16  C   LIG    1       23.945 -24.841   6.597  0.00  0.00    +0.133 A 
ATOM     17  F   LIG    1       22.858 -24.153   6.976  0.00  0.00    -0.205 F 
ATOM     18  C   LIG    1       23.773 -26.158   6.172  0.00  0.00    +0.039 A 
ATOM     19  C   LIG    1       24.874 -26.897   5.741  0.00  0.00    +0.003 A 
ATOM     20  C   LIG    1       26.142 -26.315   5.729  0.00  0.00    +0.001 A 
ATOM     21  C   LIG    1       26.312 -24.996   6.156  0.00  0.00    +0.013 A 
ENDBRANCH   7  15
TORSDOF 1
ENDMDL
MODEL 3
REMARK VINA RESULT:      -7.4      3.169      5.369
REMARK  Name = *****
REMARK                            x       y       z     vdW  Elec       q    Type
REMARK                         _______ _______ _______ _____ _____    ______ ____
ROOT
ATOM      1  C   LIG    1       23.453 -21.314   3.539  0.00  0.00    +0.138 C 
ATOM      2  N   LIG    1       23.903 -21.421   4.921  0.00  0.00    -0.272 N 
ATOM      3  C   LIG    1       23.445 -20.440   5.808  0.00  0.00    +0.241 C 
ATOM      4  O   LIG    1       22.746 -19.491   5.439  0.00  0.00    -0.273 OA
ATOM      5  C   LIG    1       23.755 -20.639   7.286  0.00  0.00    +0.238 C 
ATOM      6  N   LIG    1       25.181 -20.427   7.512  0.00  0.00    -0.273 NA
ATOM      7  C   LIG    1       26.003 -21.310   7.054  0.00  0.00    +0.078 C 
ATOM      8  C   LIG    1       25.578 -22.570   6.377  0.00  0.00    +0.023 A 
ATOM      9  C   LIG    1       26.205 -23.761   6.790  0.00  0.00    +0.032 A 
ATOM     10  C   LIG    1       25.946 -24.952   6.123  0.00  0.00    +0.042 A 
ATOM     11 CL   LIG    1       26.725 -26.401   6.622  0.00  0.00    -0.084 Cl
ATOM     12  C   LIG    1       25.068 -24.974   5.049  0.00  0.00    +0.022 A 
ATOM     13  C   LIG    1       24.422 -23.798   4.654  0.00  0.00    +0.025 A 
ATOM     14  C   LIG    1       24.639 -22.579   5.325  0.00  0.00    +0.045 A 
ENDROOT
BRANCH   7  15
ATOM     15  C   LIG    1       27.462 -21.042   7.241  0.00  0.00    +0.036 A 
ATOM     16  C   LIG    1       28.177 -20.215   6.372  0.00  0.00    +0.133 A 
ATOM     17  F   LIG    1       27.577 -19.616   5.334  0.00  0.00    -0.205 F 
ATOM     18  C   LIG    1       29.536 -19.977   6.572  0.00  0.00    +0.039 A 
ATOM     19  C   LIG    1       30.190 -20.557   7.658  0.00  0.00    +0.003 A 
ATOM     20  C   LIG    1       29.481 -21.368   8.545  0.00  0.00    +0.001 A 
ATOM     21  C   LIG    1       28.120 -21.607   8.342  0.00  0.00    +0.013 A 
ENDBRANCH   7  15
TORSDOF 1
ENDMDL
MODEL 4
REMARK VINA RESULT:      -7.3      3.114      5.411
REMARK  Name = *****
REMARK                            x       y       z     vdW  Elec       q    Type
REMARK                         _______ _______ _______ _____ _____    ______ ____
ROOT
ATOM      1  C   LIG    1       25.919 -25.201   5.705  0.00  0.00    +0.138 C 
ATOM      2  N   LIG    1       25.155 -24.109   6.294  0.00  0.00    -0.272 N 
ATOM      3  C   LIG    1       23.801 -24.358   6.553  0.00  0.00    +0.241 C 
ATOM      4  O   LIG    1       23.255 -25.422   6.246  0.00  0.00    -0.273 OA
ATOM      5  C   LIG    1       23.036 -23.296   7.331  0.00  0.00    +0.238 C 
ATOM      6  N   LIG    1       22.839 -22.124   6.484  0.00  0.00    -0.273 NA
ATOM      7  C   LIG    1       23.872 -21.404   6.201  0.00  0.00    +0.078 C 
ATOM      8  C   LIG    1       25.236 -21.653   6.750  0.00  0.00    +0.023 A 
ATOM      9  C   LIG    1       25.934 -20.541   7.258  0.00  0.00    +0.032 A 
ATOM     10  C   LIG    1       27.253 -20.677   7.675  0.00  0.00    +0.042 A 
ATOM     11 CL   LIG    1       28.105 -19.313   8.281  0.00  0.00    -0.084 Cl
ATOM     12  C   LIG    1       27.886 -21.909   7.595  0.00  0.00    +0.022 A 
ATOM     13  C   LIG    1       27.187 -23.022   7.117  0.00  0.00    +0.025 A 
ATOM     14  C   LIG    1       25.841 -22.926   6.712  0.00  0.00    +0.045 A 
ENDROOT
BRANCH   7  15
ATOM     15  C   LIG    1       23.659 -20.245   5.280  0.00  0.00    +0.036 A 
ATOM     16  C   LIG    1       24.556 -19.947   4.252  0.00  0.00    +0.133 A 
ATOM     17  F   LIG    1       25.645 -20.699   4.041  0.00  0.00    -0.205 F 
ATOM     18  C   LIG    1       24.332 -18.863   3.404  0.00  0.00    +0.039 A 
ATOM     19  C   LIG    1       23.194 -18.074   3.570  0.00  0.00    +0.003 A 
ATOM     20  C   LIG    1       22.280 -18.376   4.581  0.00  0.00    +0.001 A 
ATOM     21  C   LIG    1       22.507 -19.461   5.431  0.00  0.00    +0.013 A 
ENDBRANCH   7  15
TORSDOF 1
ENDMDL
MODEL 5
REMARK VINA RESULT:      -6.8      2.426      4.759
REMARK  Name = *****
REMARK                            x       y       z     vdW  Elec       q    Type
REMARK                         _______ _______ _______ _____ _____    ______ ____
ROOT
ATOM      1  C   LIG    1       21.962 -22.589   6.866  0.00  0.00    +0.138 C 
ATOM      2  N   LIG    1       23.303 -22.659   6.298  0.00  0.00    -0.272 N 
ATOM      3  C   LIG    1       23.943 -23.902   6.351  0.00  0.00    +0.241 C 
ATOM      4  O   LIG    1       23.435 -24.883   6.903  0.00  0.00    -0.273 OA
ATOM      5  C   LIG    1       25.263 -24.037   5.605  0.00  0.00    +0.238 C 
ATOM      6  N   LIG    1       26.294 -23.280   6.307  0.00  0.00    -0.273 NA
ATOM      7  C   LIG    1       26.222 -21.991   6.277  0.00  0.00    +0.078 C 
ATOM      8  C   LIG    1       25.195 -21.233   5.505  0.00  0.00    +0.023 A 
ATOM      9  C   LIG    1       25.651 -20.156   4.721  0.00  0.00    +0.032 A 
ATOM     10  C   LIG    1       24.740 -19.333   4.071  0.00  0.00    +0.042 A 
ATOM     11 CL   LIG    1       25.301 -18.011   3.127  0.00  0.00    -0.084 Cl
ATOM     12  C   LIG    1       23.378 -19.570   4.190  0.00  0.00    +0.022 A 
ATOM     13  C   LIG    1       22.923 -20.655   4.945  0.00  0.00    +0.025 A 
ATOM     14  C   LIG    1       23.819 -21.526   5.594  0.00  0.00    +0.045 A 
ENDROOT
BRANCH   7  15
ATOM     15  C   LIG    1       27.252 -21.236   7.055  0.00  0.00    +0.036 A 
ATOM     16  C   LIG    1       26.910 -20.441   8.151  0.00  0.00    +0.133 A 
ATOM     17  F   LIG    1       25.638 -20.330   8.558  0.00  0.00    -0.205 F 
ATOM     18  C   LIG    1       27.890 -19.750   8.863  0.00  0.00    +0.039 A 
ATOM     19  C   LIG    1       29.229 -19.863   8.490  0.00  0.00    +0.003 A 
ATOM     20  C   LIG    1       29.584 -20.672   7.410  0.00  0.00    +0.001 A 
ATOM     21  C   LIG    1       28.601 -21.361   6.697  0.00  0.00    +0.013 A 
ENDBRANCH   7  15
TORSDOF 1
ENDMDL
MODEL 6
REMARK VINA RESULT:      -6.6      6.781      9.746
REMARK  Name = *****
REMARK                            x       y       z     vdW  Elec       q    Type
REMARK                         _______ _______ _______ _____ _____    ______ ____
ROOT
ATOM      1  C   LIG    1       27.192 -32.951   6.533  0.00  0.00    +0.138 C 
ATOM      2  N   LIG    1       26.068 -32.057   6.783  0.00  0.00    -0.272 N 
ATOM      3  C   LIG    1       24.881 -32.333   6.094  0.00  0.00    +0.241 C 
ATOM      4  O   LIG    1       24.795 -33.245   5.266  0.00  0.00    -0.273 OA
ATOM      5  C   LIG    1       23.650 -31.524   6.478  0.00  0.00    +0.238 C 
ATOM      6  N   LIG    1       23.809 -30.150   6.010  0.00  0.00    -0.273 NA
ATOM      7  C   LIG    1       24.682 -29.408   6.604  0.00  0.00    +0.078 C 
ATOM      8  C   LIG    1       25.480 -29.845   7.786  0.00  0.00    +0.023 A 
ATOM      9  C   LIG    1       25.560 -28.950   8.870  0.00  0.00    +0.032 A 
ATOM     10  C   LIG    1       26.382 -29.239   9.953  0.00  0.00    +0.042 A 
ATOM     11 CL   LIG    1       26.488 -28.136  11.267  0.00  0.00    -0.084 Cl
ATOM     12  C   LIG    1       27.124 -30.412   9.972  0.00  0.00    +0.022 A 
ATOM     13  C   LIG    1       27.025 -31.316   8.910  0.00  0.00    +0.025 A 
ATOM     14  C   LIG    1       26.181 -31.068   7.810  0.00  0.00    +0.045 A 
ENDROOT
BRANCH   7  15
ATOM     15  C   LIG    1       24.874 -28.025   6.069  0.00  0.00    +0.036 A 
ATOM     16  C   LIG    1       25.849 -27.734   5.112  0.00  0.00    +0.133 A 
ATOM     17  F   LIG    1       26.650 -28.692   4.625  0.00  0.00    -0.205 F 
ATOM     18  C   LIG    1       26.004 -26.437   4.625  0.00  0.00    +0.039 A 
ATOM     19  C   LIG    1       25.170 -25.418   5.084  0.00  0.00    +0.003 A 
ATOM     20  C   LIG    1       24.178 -25.702   6.024  0.00  0.00    +0.001 A 
ATOM     21  C   LIG    1       24.025 -27.002   6.512  0.00  0.00    +0.013 A 
ENDBRANCH   7  15
TORSDOF 1
ENDMDL
MODEL 7
REMARK VINA RESULT:      -6.6      7.568      9.617
REMARK  Name = *****
REMARK                            x       y       z     vdW  Elec       q    Type
REMARK                         _______ _______ _______ _____ _____    ______ ____
ROOT
ATOM      1  C   LIG    1       23.492 -32.234   6.030  0.00  0.00    +0.138 C 
ATOM      2  N   LIG    1       24.598 -31.655   6.783  0.00  0.00    -0.272 N 
ATOM      3  C   LIG    1       25.524 -32.552   7.329  0.00  0.00    +0.241 C 
ATOM      4  O   LIG    1       25.389 -33.777   7.239  0.00  0.00    -0.273 OA
ATOM      5  C   LIG    1       26.777 -31.961   7.960  0.00  0.00    +0.238 C 
ATOM      6  N   LIG    1       26.421 -31.295   9.209  0.00  0.00    -0.273 NA
ATOM      7  C   LIG    1       25.743 -30.199   9.137  0.00  0.00    +0.078 C 
ATOM      8  C   LIG    1       25.370 -29.534   7.854  0.00  0.00    +0.023 A 
ATOM      9  C   LIG    1       25.591 -28.146   7.766  0.00  0.00    +0.032 A 
ATOM     10  C   LIG    1       25.159 -27.442   6.649  0.00  0.00    +0.042 A 
ATOM     11 CL   LIG    1       25.417 -25.745   6.553  0.00  0.00    -0.084 Cl
ATOM     12  C   LIG    1       24.511 -28.103   5.615  0.00  0.00    +0.022 A 
ATOM     13  C   LIG    1       24.315 -29.486   5.687  0.00  0.00    +0.025 A 
ATOM     14  C   LIG    1       24.765 -30.235   6.791  0.00  0.00    +0.045 A 
ENDROOT
BRANCH   7  15
ATOM     15  C   LIG    1       25.334 -29.567  10.429  0.00  0.00    +0.036 A 
ATOM     16  C   LIG    1       26.175 -28.692  11.120  0.00  0.00    +0.133 A 
ATOM     17  F   LIG    1       27.387 -28.374  10.644  0.00  0.00    -0.205 F 
ATOM     18  C   LIG    1       25.768 -28.112  12.320  0.00  0.00    +0.039 A 
ATOM     19  C   LIG    1       24.503 -28.394  12.834  0.00  0.00    +0.003 A 
ATOM     20  C   LIG    1       23.645 -29.250  12.141  0.00  0.00    +0.001 A 
ATOM     21  C   LIG    1       24.056 -29.831  10.939  0.00  0.00    +0.013 A 
ENDBRANCH   7  15
TORSDOF 1
ENDMDL
MODEL 8
REMARK VINA RESULT:      -6.4      7.719      9.669
REMARK  Name = *****
REMARK                            x       y       z     vdW  Elec       q    Type
REMARK                         _______ _______ _______ _____ _____    ______ ____
ROOT
ATOM      1  C   LIG    1       23.514 -32.450   7.598  0.00  0.00    +0.138 C 
ATOM      2  N   LIG    1       24.721 -31.758   8.033  0.00  0.00    -0.272 N 
ATOM      3  C   LIG    1       25.712 -32.542   8.635  0.00  0.00    +0.241 C 
ATOM      4  O   LIG    1       25.559 -33.749   8.849  0.00  0.00    -0.273 OA
ATOM      5  C   LIG    1       27.047 -31.872   8.929  0.00  0.00    +0.238 C 
ATOM      6  N   LIG    1       26.881 -30.926  10.028  0.00  0.00    -0.273 NA
ATOM      7  C   LIG    1       26.205 -29.850   9.801  0.00  0.00    +0.078 C 
ATOM      8  C   LIG    1       25.653 -29.480   8.466  0.00  0.00    +0.023 A 
ATOM      9  C   LIG    1       25.865 -28.158   8.030  0.00  0.00    +0.032 A 
ATOM     10  C   LIG    1       25.278 -27.710   6.853  0.00  0.00    +0.042 A 
ATOM     11 CL   LIG    1       25.528 -26.091   6.333  0.00  0.00    -0.084 Cl
ATOM     12  C   LIG    1       24.482 -28.563   6.101  0.00  0.00    +0.022 A 
ATOM     13  C   LIG    1       24.292 -29.885   6.517  0.00  0.00    +0.025 A 
ATOM     14  C   LIG    1       24.895 -30.380   7.689  0.00  0.00    +0.045 A 
ENDROOT
BRANCH   7  15
ATOM     15  C   LIG    1       25.993 -28.926  10.957  0.00  0.00    +0.036 A 
ATOM     16  C   LIG    1       24.818 -28.946  11.712  0.00  0.00    +0.133 A 
ATOM     17  F   LIG    1       23.830 -29.809  11.433  0.00  0.00    -0.205 F 
ATOM     18  C   LIG    1       24.647 -28.078  12.788  0.00  0.00    +0.039 A 
ATOM     19  C   LIG    1       25.663 -27.186  13.129  0.00  0.00    +0.003 A 
ATOM     20  C   LIG    1       26.851 -27.171  12.396  0.00  0.00    +0.001 A 
ATOM     21  C   LIG    1       27.019 -28.041  11.317  0.00  0.00    +0.013 A 
ENDBRANCH   7  15
TORSDOF 1
ENDMDL
MODEL 9
REMARK VINA RESULT:      -6.3      6.915     10.026
REMARK  Name = *****
REMARK                            x       y       z     vdW  Elec       q    Type
REMARK                         _______ _______ _______ _____ _____    ______ ____
ROOT
ATOM      1  C   LIG    1       27.730 -32.829   8.014  0.00  0.00    +0.138 C 
ATOM      2  N   LIG    1       26.548 -32.193   7.447  0.00  0.00    -0.272 N 
ATOM      3  C   LIG    1       26.321 -32.394   6.081  0.00  0.00    +0.241 C 
ATOM      4  O   LIG    1       27.107 -33.024   5.366  0.00  0.00    -0.273 OA
ATOM      5  C   LIG    1       25.000 -31.891   5.514  0.00  0.00    +0.238 C 
ATOM      6  N   LIG    1       25.015 -30.432   5.476  0.00  0.00    -0.273 NA
ATOM      7  C   LIG    1       24.960 -29.799   6.599  0.00  0.00    +0.078 C 
ATOM      8  C   LIG    1       24.805 -30.467   7.924  0.00  0.00    +0.023 A 
ATOM      9  C   LIG    1       23.844 -29.930   8.802  0.00  0.00    +0.032 A 
ATOM     10  C   LIG    1       23.728 -30.425  10.095  0.00  0.00    +0.042 A 
ATOM     11 CL   LIG    1       22.563 -29.757  11.168  0.00  0.00    -0.084 Cl
ATOM     12  C   LIG    1       24.558 -31.451  10.527  0.00  0.00    +0.022 A 
ATOM     13  C   LIG    1       25.494 -32.005   9.648  0.00  0.00    +0.025 A 
ATOM     14  C   LIG    1       25.619 -31.547   8.323  0.00  0.00    +0.045 A 
ENDROOT
BRANCH   7  15
ATOM     15  C   LIG    1       25.041 -28.307   6.542  0.00  0.00    +0.036 A 
ATOM     16  C   LIG    1       25.904 -27.583   7.368  0.00  0.00    +0.133 A 
ATOM     17  F   LIG    1       26.707 -28.203   8.244  0.00  0.00    -0.205 F 
ATOM     18  C   LIG    1       25.963 -26.193   7.291  0.00  0.00    +0.039 A 
ATOM     19  C   LIG    1       25.166 -25.513   6.371  0.00  0.00    +0.003 A 
ATOM     20  C   LIG    1       24.315 -26.227   5.526  0.00  0.00    +0.001 A 
ATOM     21  C   LIG    1       24.256 -27.620   5.605  0.00  0.00    +0.013 A 
ENDBRANCH   7  15
TORSDOF 1
ENDMDL
