MODEL 1
REMARK VINA RESULT:       4.8      0.000      0.000
REMARK  Name = *****
REMARK                            x       y       z     vdW  Elec       q    Type
REMARK                         _______ _______ _______ _____ _____    ______ ____
ROOT
ATOM      1  CA  LIG    1       27.310 -16.879   3.301  0.00  0.00    +0.191 C 
ATOM      2  C   LIG    1       26.485 -15.725   2.650  0.00  0.00    +0.169 C 
ATOM      3  N   LIG    1       27.253 -14.805   3.454  0.00  0.00    -0.249 N 
ATOM      4  CA  LIG    1       26.974 -13.480   3.643  0.00  0.00    +0.125 C 
ATOM      5  C   LIG    1       25.761 -12.978   3.301  0.00  0.00    +0.006 C 
ATOM      6  C   LIG    1       24.626 -13.820   2.747  0.00  0.00    +0.107 C 
ATOM      7  S   LIG    1       24.742 -15.596   3.113  0.00  0.00    -0.131 S 
ATOM      8  C   LIG    1       27.964 -15.730   4.139  0.00  0.00    +0.244 C 
ATOM      9  O   LIG    1       28.700 -15.649   5.105  0.00  0.00    -0.273 OA
ENDROOT
BRANCH   1  11
ATOM     10  C   LIG    1       27.308 -18.900   4.777  0.00  0.00    +0.268 C 
ATOM     11  N   LIG    1       26.591 -17.955   4.058  0.00  0.00    -0.296 N 
ATOM     12  H   LIG    1       25.594 -18.122   3.934  0.00  0.00    +0.150 HD
ATOM     13  O   LIG    1       28.529 -18.903   4.853  0.00  0.00    -0.268 OA
BRANCH  10  15
ATOM     14  N   LIG    1       27.005 -20.530   6.539  0.00  0.00    -0.078 NA
ATOM     15  C   LIG    1       26.489 -20.017   5.449  0.00  0.00    +0.190 C 
BRANCH  15  16
ATOM     16  C   LIG    1       25.185 -20.409   4.883  0.00  0.00    +0.107 A 
ATOM     17  N   LIG    1       24.000 -19.751   5.234  0.00  0.00    -0.223 NA
ATOM     18  C   LIG    1       22.974 -20.247   4.596  0.00  0.00    +0.156 A 
ATOM     19  S   LIG    1       23.333 -21.539   3.530  0.00  0.00    -0.060 S 
ATOM     20  C   LIG    1       24.995 -21.407   3.941  0.00  0.00    +0.078 A 
BRANCH  18  21
ATOM     21  N   LIG    1       21.723 -19.794   4.771  0.00  0.00    -0.338 N 
ATOM     22  H   LIG    1       21.021 -20.220   4.176  0.00  0.00    +0.144 HD
ATOM     23  H   LIG    1       21.587 -18.805   4.938  0.00  0.00    +0.144 HD
ENDBRANCH  18  21
ENDBRANCH  15  16
BRANCH  14  25
ATOM     24  C   LIG    1       24.841 -21.206   7.003  0.00  0.00    +0.313 C 
ATOM     25  O   LIG    1       26.212 -21.572   7.054  0.00  0.00    -0.396 OA
ENDBRANCH  14  25
ENDBRANCH  10  15
ENDBRANCH   1  11
BRANCH   4  26
ATOM     26  C   LIG    1       28.064 -12.610   4.204  0.00  0.00    +0.351 C 
ATOM     27  O   LIG    1       28.107 -12.097   5.309  0.00  0.00    -0.244 OA
BRANCH  26  28
ATOM     28  OXT LIG    1       29.039 -12.384   3.304  0.00  0.00    -0.476 OA
ATOM     29  HXT LIG    1       29.405 -11.514   3.568  0.00  0.00    +0.295 HD
ENDBRANCH  26  28
ENDBRANCH   4  26
BRANCH   5  30
ATOM     30  C   LIG    1       25.358 -11.517   3.416  0.00  0.00    +0.266 C 
BRANCH  30  31
ATOM     31  O   LIG    1       24.033 -11.447   3.965  0.00  0.00    -0.460 OA
BRANCH  31  32
ATOM     32  C   LIG    1       23.970 -11.615   5.314  0.00  0.00    +0.304 C 
ATOM     33  O   LIG    1       24.889 -11.447   6.102  0.00  0.00    -0.251 OA
ATOM     34  C   LIG    1       22.583 -12.005   5.709  0.00  0.00    +0.136 C 
ENDBRANCH  31  32
ENDBRANCH  30  31
ENDBRANCH   5  30
TORSDOF 10
ENDMDL
