MODEL 1
REMARK VINA RESULT:      -0.7      0.000      0.000
REMARK  Name = *****
REMARK                            x       y       z     vdW  Elec       q    Type
REMARK                         _______ _______ _______ _____ _____    ______ ____
ROOT
ATOM      1  N   UNK A  1       26.285 -18.355   4.371  0.00  0.00    -0.296 N 
ATOM      2  H   UNK A  1       25.361 -18.344   4.808  0.00  0.00    +0.150 HD
ATOM      3  C   UNK A  0       27.234 -19.114   5.026  0.00  0.00    +0.268 C 
ATOM      4  O   UNK A  0       28.430 -19.044   4.772  0.00  0.00    -0.268 OA
ENDROOT
BRANCH   1  12
ATOM      5  C   UNK A  1       24.949 -13.648   4.377  0.00  0.00    -0.010 C 
ATOM      6  C   UNK A  1       23.795 -14.440   3.776  0.00  0.00    +0.108 C 
ATOM      7  S   UNK A  1       24.040 -16.244   3.870  0.00  0.00    -0.131 S 
ATOM      8  C   UNK A  1       25.684 -16.137   3.135  0.00  0.00    +0.169 C 
ATOM      9  N   UNK A  1       26.538 -15.369   4.023  0.00  0.00    -0.249 N 
ATOM     10  C   UNK A  1       27.623 -16.171   3.892  0.00  0.00    +0.244 C 
ATOM     11  O   UNK A  1       28.801 -16.002   4.065  0.00  0.00    -0.273 OA
ATOM     12  C   UNK A  1       26.670 -17.315   3.366  0.00  0.00    +0.191 C 
ATOM     13  C   UNK A  1       26.213 -14.114   4.490  0.00  0.00    +0.126 C 
BRANCH   5  15
ATOM     14  C   UNK A  1       23.653 -11.551   4.259  0.00  0.00    +0.009 C 
ATOM     15  C   UNK A  1       24.525 -12.346   4.889  0.00  0.00    -0.001 C 
ENDBRANCH   5  15
BRANCH  13  16
ATOM     16  C   UNK A  1       27.265 -13.311   5.199  0.00  0.00    +0.352 C 
ATOM     17  O   UNK A  1       28.080 -12.555   4.693  0.00  0.00    -0.244 OA
BRANCH  16  18
ATOM     18  O   UNK A  1       27.212 -13.453   6.532  0.00  0.00    -0.476 OA
ATOM     19  H   UNK A  1       27.490 -14.376   6.705  0.00  0.00    +0.295 HD
ENDBRANCH  16  18
ENDBRANCH  13  16
ENDBRANCH   1  12
BRANCH   3  20
ATOM     20  C   UNK A  0       26.707 -20.130   6.060  0.00  0.00    +0.190 C 
ATOM     21  N   UNK A  0       27.432 -20.601   7.042  0.00  0.00    -0.080 NA
BRANCH  20  22
ATOM     22  C   UNK A  0       25.312 -20.607   5.998  0.00  0.00    +0.107 A 
ATOM     23  N   UNK A  0       24.595 -20.604   4.791  0.00  0.00    -0.223 NA
ATOM     24  C   UNK A  0       23.384 -21.072   4.962  0.00  0.00    +0.156 A 
ATOM     25  S   UNK A  0       23.010 -21.572   6.555  0.00  0.00    -0.060 S 
ATOM     26  C   UNK A  0       24.576 -21.102   7.062  0.00  0.00    +0.078 A 
BRANCH  24  27
ATOM     27  N   UNK A  0       22.484 -21.183   3.973  0.00  0.00    -0.338 N 
ATOM     28  H   UNK A  0       22.184 -22.122   3.739  0.00  0.00    +0.144 HD
ATOM     29  H   UNK A  0       21.763 -20.476   3.899  0.00  0.00    +0.144 HD
ENDBRANCH  24  27
ENDBRANCH  20  22
BRANCH  21  30
ATOM     30  O   UNK A  0       28.758 -20.159   7.054  0.00  0.00    -0.409 OA
ATOM     31  H   UNK A  0       29.156 -20.740   7.735  0.00  0.00    +0.328 HD
ENDBRANCH  21  30
ENDBRANCH   3  20
TORSDOF 8
ENDMDL
