MODEL 1
REMARK VINA RESULT:      -8.0      0.000      0.000
REMARK  Name = *****
REMARK                            x       y       z     vdW  Elec       q    Type
REMARK                         _______ _______ _______ _____ _____    ______ ____
ROOT
ATOM      1  C   LIG    1       25.493 -24.561   6.864  0.00  0.00    +0.240 C 
ENDROOT
BRANCH   1   2
ATOM      2  O   LIG    1       26.215 -25.851   6.412  0.00  0.00    -0.456 OA
BRANCH   2   3
ATOM      3  C   LIG    1       25.711 -26.973   5.714  0.00  0.00    +0.307 C 
ATOM      4  O   LIG    1       26.048 -27.253   4.701  0.00  0.00    -0.251 OA
BRANCH   3   5
ATOM      5  C   LIG    1       24.659 -27.718   6.524  0.00  0.00    +0.120 C 
BRANCH   5   6
ATOM      6  C   LIG    1       25.023 -29.048   7.227  0.00  0.00    +0.011 C 
BRANCH   6   7
ATOM      7  C   LIG    1       25.446 -29.118   8.716  0.00  0.00    +0.000 C 
BRANCH   7   8
ATOM      8  C   LIG    1       26.631 -28.343   9.179  0.00  0.00    +0.000 C 
BRANCH   8   9
ATOM      9  C   LIG    1       26.947 -28.685  10.569  0.00  0.00    -0.000 C 
BRANCH   9  10
ATOM     10  C   LIG    1       26.866 -27.520  11.981  0.00  0.00    -0.000 C 
BRANCH  10  11
ATOM     11  C   LIG    1       25.466 -27.433  13.225  0.00  0.00    -0.000 C 
BRANCH  11  12
ATOM     12  C   LIG    1       23.725 -27.694  12.858  0.00  0.00    -0.000 C 
BRANCH  12  13
ATOM     13  C   LIG    1       22.092 -26.837  13.295  0.00  0.00    -0.000 C 
BRANCH  13  14
ATOM     14  C   LIG    1       20.574 -26.726  12.966  0.00  0.00    -0.000 C 
BRANCH  14  15
ATOM     15  C   LIG    1       19.394 -27.081  13.923  0.00  0.00    -0.000 C 
BRANCH  15  16
ATOM     16  C   LIG    1       18.249 -26.118  14.058  0.00  0.00    -0.003 C 
ATOM     17  C   LIG    1       16.734 -26.382  14.408  0.00  0.00    +0.004 C 
ENDBRANCH  15  16
ENDBRANCH  14  15
ENDBRANCH  13  14
ENDBRANCH  12  13
ENDBRANCH  11  12
ENDBRANCH  10  11
ENDBRANCH   9  10
ENDBRANCH   8   9
ENDBRANCH   7   8
ENDBRANCH   6   7
ENDBRANCH   5   6
ENDBRANCH   3   5
ENDBRANCH   2   3
ENDBRANCH   1   2
BRANCH   1  18
ATOM     18  C   LIG    1       23.481 -24.414   6.629  0.00  0.00    +0.279 C 
BRANCH  18  19
ATOM     19  O   LIG    1       22.637 -22.822   6.789  0.00  0.00    -0.461 OA
BRANCH  19  20
ATOM     20  C   LIG    1       22.913 -21.384   6.822  0.00  0.00    +0.307 C 
ATOM     21  O   LIG    1       23.329 -20.672   7.965  0.00  0.00    -0.251 OA
BRANCH  20  22
ATOM     22  C   LIG    1       23.060 -20.706   5.631  0.00  0.00    +0.120 C 
BRANCH  22  23
ATOM     23  C   LIG    1       23.842 -21.577   4.639  0.00  0.00    +0.011 C 
BRANCH  23  24
ATOM     24  C   LIG    1       23.764 -21.157   3.238  0.00  0.00    +0.000 C 
BRANCH  24  25
ATOM     25  C   LIG    1       24.168 -19.641   3.036  0.00  0.00    +0.000 C 
BRANCH  25  26
ATOM     26  C   LIG    1       25.348 -18.987   3.833  0.00  0.00    -0.000 C 
BRANCH  26  27
ATOM     27  C   LIG    1       26.409 -18.156   3.183  0.00  0.00    -0.000 C 
BRANCH  27  28
ATOM     28  C   LIG    1       26.144 -16.646   3.469  0.00  0.00    -0.000 C 
BRANCH  28  29
ATOM     29  C   LIG    1       27.346 -15.649   3.519  0.00  0.00    -0.000 C 
BRANCH  29  30
ATOM     30  C   LIG    1       27.192 -14.123   3.851  0.00  0.00    -0.000 C 
BRANCH  30  31
ATOM     31  C   LIG    1       26.431 -13.575   5.117  0.00  0.00    -0.000 C 
BRANCH  31  32
ATOM     32  C   LIG    1       24.910 -13.591   5.196  0.00  0.00    -0.000 C 
BRANCH  32  34
ATOM     33  C   LIG    1       23.034 -15.063   4.588  0.00  0.00    +0.004 C 
ATOM     34  C   LIG    1       24.035 -14.105   4.076  0.00  0.00    -0.003 C 
ENDBRANCH  32  34
ENDBRANCH  31  32
ENDBRANCH  30  31
ENDBRANCH  29  30
ENDBRANCH  28  29
ENDBRANCH  27  28
ENDBRANCH  26  27
ENDBRANCH  25  26
ENDBRANCH  24  25
ENDBRANCH  23  24
ENDBRANCH  22  23
ENDBRANCH  20  22
ENDBRANCH  19  20
ENDBRANCH  18  19
ENDBRANCH   1  18
BRANCH   1  35
ATOM     35  C   LIG    1       26.380 -23.363   6.877  0.00  0.00    +0.220 C 
BRANCH  35  36
ATOM     36  O   LIG    1       26.284 -22.664   8.056  0.00  0.00    -0.283 OA
BRANCH  36  37
ATOM     37  P   LIG    1       26.790 -21.145   8.039  0.00  0.00    +0.475 P 
ATOM     38  O   LIG    1       26.553 -20.518   6.708  0.00  0.00    -0.227 OA
BRANCH  37  39
ATOM     39  O   LIG    1       26.167 -20.411   9.324  0.00  0.00    -0.302 OA
ATOM     40  H   LIG    1       26.623 -19.613   9.671  0.00  0.00    +0.222 HD
ENDBRANCH  37  39
BRANCH  37  41
ATOM     41  O   LIG    1       28.273 -21.433   8.522  0.00  0.00    -0.281 OA
BRANCH  41  42
ATOM     42  C   LIG    1       29.514 -21.239   7.855  0.00  0.00    +0.223 C 
BRANCH  42  43
ATOM     43  C   LIG    1       30.752 -20.443   8.388  0.00  0.00    +0.161 C 
BRANCH  43  44
ATOM     44  N   LIG    1       30.650 -18.841   8.245  0.00  0.00    +0.238 N 
ATOM     45  C   LIG    1       32.029 -18.210   8.308  0.00  0.00    +0.192 C 
ATOM     46  C   LIG    1       29.818 -18.118   9.323  0.00  0.00    +0.192 C 
ATOM     47  C   LIG    1       30.090 -18.525   6.838  0.00  0.00    +0.192 C 
ENDBRANCH  43  44
ENDBRANCH  42  43
ENDBRANCH  41  42
ENDBRANCH  37  41
ENDBRANCH  36  37
ENDBRANCH  35  36
ENDBRANCH   1  35
TORSDOF 37
ENDMDL
MODEL 2
REMARK VINA RESULT:      -7.8      1.547      2.520
REMARK  Name = *****
REMARK                            x       y       z     vdW  Elec       q    Type
REMARK                         _______ _______ _______ _____ _____    ______ ____
ROOT
ATOM      1  C   LIG    1       25.507 -24.430   6.635  0.00  0.00    +0.240 C 
ENDROOT
BRANCH   1   2
ATOM      2  O   LIG    1       26.223 -25.670   6.053  0.00  0.00    -0.456 OA
BRANCH   2   3
ATOM      3  C   LIG    1       25.785 -26.594   5.076  0.00  0.00    +0.307 C 
ATOM      4  O   LIG    1       26.201 -26.631   4.055  0.00  0.00    -0.251 OA
BRANCH   3   5
ATOM      5  C   LIG    1       24.684 -27.500   5.608  0.00  0.00    +0.120 C 
BRANCH   5   6
ATOM      6  C   LIG    1       24.895 -28.282   6.927  0.00  0.00    +0.011 C 
BRANCH   6   7
ATOM      7  C   LIG    1       24.176 -29.620   7.231  0.00  0.00    +0.000 C 
BRANCH   7   8
ATOM      8  C   LIG    1       24.693 -30.501   8.316  0.00  0.00    +0.000 C 
BRANCH   8   9
ATOM      9  C   LIG    1       23.922 -30.294   9.546  0.00  0.00    -0.000 C 
BRANCH   9  10
ATOM     10  C   LIG    1       22.579 -31.389  10.139  0.00  0.00    -0.000 C 
BRANCH  10  11
ATOM     11  C   LIG    1       20.838 -30.830  10.552  0.00  0.00    -0.000 C 
BRANCH  11  12
ATOM     12  C   LIG    1       20.273 -30.280  12.168  0.00  0.00    -0.000 C 
BRANCH  12  13
ATOM     13  C   LIG    1       20.844 -29.014  13.459  0.00  0.00    -0.000 C 
BRANCH  13  14
ATOM     14  C   LIG    1       22.052 -28.204  14.013  0.00  0.00    -0.000 C 
BRANCH  14  15
ATOM     15  C   LIG    1       22.227 -26.654  13.958  0.00  0.00    -0.000 C 
BRANCH  15  16
ATOM     16  C   LIG    1       23.561 -26.084  13.569  0.00  0.00    -0.003 C 
ATOM     17  C   LIG    1       24.620 -25.296  14.432  0.00  0.00    +0.004 C 
ENDBRANCH  15  16
ENDBRANCH  14  15
ENDBRANCH  13  14
ENDBRANCH  12  13
ENDBRANCH  11  12
ENDBRANCH  10  11
ENDBRANCH   9  10
ENDBRANCH   8   9
ENDBRANCH   7   8
ENDBRANCH   6   7
ENDBRANCH   5   6
ENDBRANCH   3   5
ENDBRANCH   2   3
ENDBRANCH   1   2
BRANCH   1  18
ATOM     18  C   LIG    1       23.486 -24.289   6.484  0.00  0.00    +0.279 C 
BRANCH  18  19
ATOM     19  O   LIG    1       22.644 -22.701   6.685  0.00  0.00    -0.461 OA
BRANCH  19  20
ATOM     20  C   LIG    1       22.926 -21.269   6.808  0.00  0.00    +0.307 C 
ATOM     21  O   LIG    1       23.524 -20.661   7.930  0.00  0.00    -0.251 OA
BRANCH  20  22
ATOM     22  C   LIG    1       22.880 -20.481   5.677  0.00  0.00    +0.120 C 
BRANCH  22  23
ATOM     23  C   LIG    1       24.156 -20.692   4.853  0.00  0.00    +0.011 C 
BRANCH  23  24
ATOM     24  C   LIG    1       24.160 -20.064   3.530  0.00  0.00    +0.000 C 
BRANCH  24  25
ATOM     25  C   LIG    1       25.481 -19.240   3.253  0.00  0.00    +0.000 C 
BRANCH  25  26
ATOM     26  C   LIG    1       25.559 -17.695   3.508  0.00  0.00    -0.000 C 
BRANCH  26  27
ATOM     27  C   LIG    1       26.852 -16.950   3.617  0.00  0.00    -0.000 C 
BRANCH  27  28
ATOM     28  C   LIG    1       26.651 -15.475   3.155  0.00  0.00    -0.000 C 
BRANCH  28  29
ATOM     29  C   LIG    1       26.745 -14.320   4.202  0.00  0.00    -0.000 C 
BRANCH  29  30
ATOM     30  C   LIG    1       25.493 -13.575   4.785  0.00  0.00    -0.000 C 
BRANCH  30  31
ATOM     31  C   LIG    1       24.066 -13.605   4.118  0.00  0.00    -0.000 C 
BRANCH  31  32
ATOM     32  C   LIG    1       23.303 -14.911   3.936  0.00  0.00    -0.000 C 
BRANCH  32  34
ATOM     33  C   LIG    1       22.162 -16.978   4.631  0.00  0.00    +0.004 C 
ATOM     34  C   LIG    1       22.735 -15.698   5.095  0.00  0.00    -0.003 C 
ENDBRANCH  32  34
ENDBRANCH  31  32
ENDBRANCH  30  31
ENDBRANCH  29  30
ENDBRANCH  28  29
ENDBRANCH  27  28
ENDBRANCH  26  27
ENDBRANCH  25  26
ENDBRANCH  24  25
ENDBRANCH  23  24
ENDBRANCH  22  23
ENDBRANCH  20  22
ENDBRANCH  19  20
ENDBRANCH  18  19
ENDBRANCH   1  18
BRANCH   1  35
ATOM     35  C   LIG    1       26.382 -23.226   6.715  0.00  0.00    +0.220 C 
BRANCH  35  36
ATOM     36  O   LIG    1       26.279 -22.593   7.929  0.00  0.00    -0.283 OA
BRANCH  36  37
ATOM     37  P   LIG    1       26.859 -21.104   8.021  0.00  0.00    +0.475 P 
ATOM     38  O   LIG    1       26.769 -20.414   6.703  0.00  0.00    -0.227 OA
BRANCH  37  39
ATOM     39  O   LIG    1       26.165 -20.389   9.280  0.00  0.00    -0.302 OA
ATOM     40  H   LIG    1       25.241 -20.068   9.181  0.00  0.00    +0.222 HD
ENDBRANCH  37  39
BRANCH  37  41
ATOM     41  O   LIG    1       28.280 -21.489   8.614  0.00  0.00    -0.281 OA
BRANCH  41  42
ATOM     42  C   LIG    1       29.586 -21.246   8.108  0.00  0.00    +0.223 C 
BRANCH  42  43
ATOM     43  C   LIG    1       30.681 -20.323   8.740  0.00  0.00    +0.161 C 
BRANCH  43  44
ATOM     44  N   LIG    1       30.603 -18.772   8.309  0.00  0.00    +0.238 N 
ATOM     45  C   LIG    1       30.015 -17.935   9.429  0.00  0.00    +0.192 C 
ATOM     46  C   LIG    1       29.743 -18.458   7.067  0.00  0.00    +0.192 C 
ATOM     47  C   LIG    1       32.049 -18.265   8.098  0.00  0.00    +0.192 C 
ENDBRANCH  43  44
ENDBRANCH  42  43
ENDBRANCH  41  42
ENDBRANCH  37  41
ENDBRANCH  36  37
ENDBRANCH  35  36
ENDBRANCH   1  35
TORSDOF 37
ENDMDL
MODEL 3
REMARK VINA RESULT:      -7.8      1.675      2.510
REMARK  Name = *****
REMARK                            x       y       z     vdW  Elec       q    Type
REMARK                         _______ _______ _______ _____ _____    ______ ____
ROOT
ATOM      1  C   LIG    1       25.428 -24.537   6.877  0.00  0.00    +0.240 C 
ENDROOT
BRANCH   1   2
ATOM      2  O   LIG    1       26.099 -25.924   6.761  0.00  0.00    -0.456 OA
BRANCH   2   3
ATOM      3  C   LIG    1       26.319 -26.731   5.620  0.00  0.00    +0.307 C 
ATOM      4  O   LIG    1       27.260 -26.715   5.044  0.00  0.00    -0.251 OA
BRANCH   3   5
ATOM      5  C   LIG    1       25.108 -27.595   5.297  0.00  0.00    +0.120 C 
BRANCH   5   6
ATOM      6  C   LIG    1       24.372 -28.350   6.431  0.00  0.00    +0.011 C 
BRANCH   6   7
ATOM      7  C   LIG    1       24.003 -29.851   6.334  0.00  0.00    +0.000 C 
BRANCH   7   8
ATOM      8  C   LIG    1       24.168 -30.726   7.529  0.00  0.00    +0.000 C 
BRANCH   8   9
ATOM      9  C   LIG    1       24.311 -29.908   8.738  0.00  0.00    -0.000 C 
BRANCH   9  10
ATOM     10  C   LIG    1       25.877 -29.153   9.316  0.00  0.00    -0.000 C 
BRANCH  10  11
ATOM     11  C   LIG    1       26.809 -29.658  10.862  0.00  0.00    -0.000 C 
BRANCH  11  12
ATOM     12  C   LIG    1       27.494 -28.529  12.083  0.00  0.00    -0.000 C 
BRANCH  12  13
ATOM     13  C   LIG    1       26.867 -27.037  13.070  0.00  0.00    -0.000 C 
BRANCH  13  14
ATOM     14  C   LIG    1       25.971 -25.764  13.040  0.00  0.00    -0.000 C 
BRANCH  14  15
ATOM     15  C   LIG    1       24.564 -25.610  13.697  0.00  0.00    -0.000 C 
BRANCH  15  16
ATOM     16  C   LIG    1       23.714 -26.832  13.896  0.00  0.00    -0.003 C 
ATOM     17  C   LIG    1       23.296 -27.958  12.873  0.00  0.00    +0.004 C 
ENDBRANCH  15  16
ENDBRANCH  14  15
ENDBRANCH  13  14
ENDBRANCH  12  13
ENDBRANCH  11  12
ENDBRANCH  10  11
ENDBRANCH   9  10
ENDBRANCH   8   9
ENDBRANCH   7   8
ENDBRANCH   6   7
ENDBRANCH   5   6
ENDBRANCH   3   5
ENDBRANCH   2   3
ENDBRANCH   1   2
BRANCH   1  18
ATOM     18  C   LIG    1       23.519 -24.300   6.224  0.00  0.00    +0.279 C 
BRANCH  18  19
ATOM     19  O   LIG    1       22.690 -22.696   6.329  0.00  0.00    -0.461 OA
BRANCH  19  20
ATOM     20  C   LIG    1       22.938 -21.308   6.724  0.00  0.00    +0.307 C 
ATOM     21  O   LIG    1       23.447 -20.908   7.977  0.00  0.00    -0.251 OA
BRANCH  20  22
ATOM     22  C   LIG    1       22.958 -20.331   5.752  0.00  0.00    +0.120 C 
BRANCH  22  23
ATOM     23  C   LIG    1       24.247 -20.453   4.929  0.00  0.00    +0.011 C 
BRANCH  23  24
ATOM     24  C   LIG    1       24.107 -20.171   3.498  0.00  0.00    +0.000 C 
BRANCH  24  25
ATOM     25  C   LIG    1       25.251 -19.228   2.951  0.00  0.00    +0.000 C 
BRANCH  25  26
ATOM     26  C   LIG    1       25.477 -17.786   3.523  0.00  0.00    -0.000 C 
BRANCH  26  27
ATOM     27  C   LIG    1       26.818 -17.121   3.552  0.00  0.00    -0.000 C 
BRANCH  27  28
ATOM     28  C   LIG    1       26.666 -15.615   3.177  0.00  0.00    -0.000 C 
BRANCH  28  29
ATOM     29  C   LIG    1       26.845 -14.525   4.281  0.00  0.00    -0.000 C 
BRANCH  29  30
ATOM     30  C   LIG    1       25.664 -13.660   4.845  0.00  0.00    -0.000 C 
BRANCH  30  31
ATOM     31  C   LIG    1       24.242 -13.575   4.172  0.00  0.00    -0.000 C 
BRANCH  31  32
ATOM     32  C   LIG    1       23.392 -14.820   3.953  0.00  0.00    -0.000 C 
BRANCH  32  34
ATOM     33  C   LIG    1       22.241 -16.890   4.624  0.00  0.00    +0.004 C 
ATOM     34  C   LIG    1       22.737 -15.577   5.086  0.00  0.00    -0.003 C 
ENDBRANCH  32  34
ENDBRANCH  31  32
ENDBRANCH  30  31
ENDBRANCH  29  30
ENDBRANCH  28  29
ENDBRANCH  27  28
ENDBRANCH  26  27
ENDBRANCH  25  26
ENDBRANCH  24  25
ENDBRANCH  23  24
ENDBRANCH  22  23
ENDBRANCH  20  22
ENDBRANCH  19  20
ENDBRANCH  18  19
ENDBRANCH   1  18
BRANCH   1  35
ATOM     35  C   LIG    1       26.403 -23.410   6.903  0.00  0.00    +0.220 C 
BRANCH  35  36
ATOM     36  O   LIG    1       26.267 -22.637   8.030  0.00  0.00    -0.283 OA
BRANCH  36  37
ATOM     37  P   LIG    1       26.902 -21.168   7.981  0.00  0.00    +0.475 P 
ATOM     38  O   LIG    1       26.810 -20.592   6.611  0.00  0.00    -0.227 OA
BRANCH  37  39
ATOM     39  O   LIG    1       26.260 -20.321   9.185  0.00  0.00    -0.302 OA
ATOM     40  H   LIG    1       25.375 -19.914   9.047  0.00  0.00    +0.222 HD
ENDBRANCH  37  39
BRANCH  37  41
ATOM     41  O   LIG    1       28.319 -21.553   8.582  0.00  0.00    -0.281 OA
BRANCH  41  42
ATOM     42  C   LIG    1       29.620 -21.441   8.019  0.00  0.00    +0.223 C 
BRANCH  42  43
ATOM     43  C   LIG    1       30.809 -20.584   8.568  0.00  0.00    +0.161 C 
BRANCH  43  44
ATOM     44  N   LIG    1       30.801 -19.035   8.124  0.00  0.00    +0.238 N 
ATOM     45  C   LIG    1       30.535 -18.907   6.636  0.00  0.00    +0.192 C 
ATOM     46  C   LIG    1       32.105 -18.251   8.378  0.00  0.00    +0.192 C 
ATOM     47  C   LIG    1       29.616 -18.343   8.839  0.00  0.00    +0.192 C 
ENDBRANCH  43  44
ENDBRANCH  42  43
ENDBRANCH  41  42
ENDBRANCH  37  41
ENDBRANCH  36  37
ENDBRANCH  35  36
ENDBRANCH   1  35
TORSDOF 37
ENDMDL
MODEL 4
REMARK VINA RESULT:      -7.8      4.323     12.056
REMARK  Name = *****
REMARK                            x       y       z     vdW  Elec       q    Type
REMARK                         _______ _______ _______ _____ _____    ______ ____
ROOT
ATOM      1  C   LIG    1       24.962 -28.416   6.778  0.00  0.00    +0.240 C 
ENDROOT
BRANCH   1   2
ATOM      2  O   LIG    1       24.867 -27.516   5.525  0.00  0.00    -0.456 OA
BRANCH   2   3
ATOM      3  C   LIG    1       25.809 -26.608   4.988  0.00  0.00    +0.307 C 
ATOM      4  O   LIG    1       26.875 -26.858   4.850  0.00  0.00    -0.251 OA
BRANCH   3   5
ATOM      5  C   LIG    1       25.171 -25.269   4.646  0.00  0.00    +0.120 C 
BRANCH   5   6
ATOM      6  C   LIG    1       24.803 -24.276   5.775  0.00  0.00    +0.011 C 
BRANCH   6   7
ATOM      7  C   LIG    1       23.585 -24.485   6.708  0.00  0.00    +0.000 C 
BRANCH   7   8
ATOM      8  C   LIG    1       22.549 -23.419   6.813  0.00  0.00    +0.000 C 
BRANCH   8   9
ATOM      9  C   LIG    1       23.160 -22.100   6.619  0.00  0.00    -0.000 C 
BRANCH   9  10
ATOM     10  C   LIG    1       22.680 -20.902   5.319  0.00  0.00    -0.000 C 
BRANCH  10  11
ATOM     11  C   LIG    1       23.820 -20.252   3.980  0.00  0.00    -0.000 C 
BRANCH  11  12
ATOM     12  C   LIG    1       25.526 -19.739   4.221  0.00  0.00    -0.000 C 
BRANCH  12  13
ATOM     13  C   LIG    1       26.891 -20.079   5.491  0.00  0.00    -0.000 C 
BRANCH  13  14
ATOM     14  C   LIG    1       27.202 -20.455   6.969  0.00  0.00    -0.000 C 
BRANCH  14  15
ATOM     15  C   LIG    1       28.519 -21.105   7.499  0.00  0.00    -0.000 C 
BRANCH  15  16
ATOM     16  C   LIG    1       29.783 -20.295   7.499  0.00  0.00    -0.003 C 
ATOM     17  C   LIG    1       29.993 -18.737   7.369  0.00  0.00    +0.004 C 
ENDBRANCH  15  16
ENDBRANCH  14  15
ENDBRANCH  13  14
ENDBRANCH  12  13
ENDBRANCH  11  12
ENDBRANCH  10  11
ENDBRANCH   9  10
ENDBRANCH   8   9
ENDBRANCH   7   8
ENDBRANCH   6   7
ENDBRANCH   5   6
ENDBRANCH   3   5
ENDBRANCH   2   3
ENDBRANCH   1   2
BRANCH   1  18
ATOM     18  C   LIG    1       26.259 -27.919   8.261  0.00  0.00    +0.279 C 
BRANCH  18  19
ATOM     19  O   LIG    1       26.916 -29.175   9.385  0.00  0.00    -0.461 OA
BRANCH  19  20
ATOM     20  C   LIG    1       27.294 -29.363  10.787  0.00  0.00    +0.307 C 
ATOM     21  O   LIG    1       28.513 -29.920  11.223  0.00  0.00    -0.251 OA
BRANCH  20  22
ATOM     22  C   LIG    1       26.569 -28.716  11.766  0.00  0.00    +0.120 C 
BRANCH  22  23
ATOM     23  C   LIG    1       27.023 -27.254  11.857  0.00  0.00    +0.011 C 
BRANCH  23  24
ATOM     24  C   LIG    1       26.547 -26.521  13.032  0.00  0.00    +0.000 C 
BRANCH  24  25
ATOM     25  C   LIG    1       25.734 -27.438  14.031  0.00  0.00    +0.000 C 
BRANCH  25  26
ATOM     26  C   LIG    1       24.661 -26.847  15.008  0.00  0.00    -0.000 C 
BRANCH  26  27
ATOM     27  C   LIG    1       23.261 -26.527  14.585  0.00  0.00    -0.000 C 
BRANCH  27  28
ATOM     28  C   LIG    1       22.980 -27.147  13.183  0.00  0.00    -0.000 C 
BRANCH  28  29
ATOM     29  C   LIG    1       21.541 -27.647  12.836  0.00  0.00    -0.000 C 
BRANCH  29  30
ATOM     30  C   LIG    1       20.262 -26.745  12.940  0.00  0.00    -0.000 C 
BRANCH  30  31
ATOM     31  C   LIG    1       19.213 -26.846  14.112  0.00  0.00    -0.000 C 
BRANCH  31  32
ATOM     32  C   LIG    1       17.923 -26.037  14.093  0.00  0.00    -0.000 C 
BRANCH  32  34
ATOM     33  C   LIG    1       16.620 -28.066  14.589  0.00  0.00    +0.004 C 
ATOM     34  C   LIG    1       16.553 -26.676  14.092  0.00  0.00    -0.003 C 
ENDBRANCH  32  34
ENDBRANCH  31  32
ENDBRANCH  30  31
ENDBRANCH  29  30
ENDBRANCH  28  29
ENDBRANCH  27  28
ENDBRANCH  26  27
ENDBRANCH  25  26
ENDBRANCH  24  25
ENDBRANCH  23  24
ENDBRANCH  22  23
ENDBRANCH  20  22
ENDBRANCH  19  20
ENDBRANCH  18  19
ENDBRANCH   1  18
BRANCH   1  35
ATOM     35  C   LIG    1       24.548 -29.825   6.526  0.00  0.00    +0.220 C 
BRANCH  35  36
ATOM     36  O   LIG    1       25.569 -30.575   5.993  0.00  0.00    -0.283 OA
BRANCH  36  37
ATOM     37  P   LIG    1       25.932 -31.940   6.745  0.00  0.00    +0.475 P 
ATOM     38  O   LIG    1       26.293 -33.007   5.771  0.00  0.00    -0.227 OA
BRANCH  37  39
ATOM     39  O   LIG    1       27.001 -31.593   7.892  0.00  0.00    -0.302 OA
ATOM     40  H   LIG    1       27.013 -30.681   8.257  0.00  0.00    +0.222 HD
ENDBRANCH  37  39
BRANCH  37  41
ATOM     41  O   LIG    1       24.590 -32.059   7.584  0.00  0.00    -0.281 OA
BRANCH  41  42
ATOM     42  C   LIG    1       24.310 -32.776   8.778  0.00  0.00    +0.223 C 
BRANCH  42  43
ATOM     43  C   LIG    1       22.992 -32.718   9.622  0.00  0.00    +0.161 C 
BRANCH  43  44
ATOM     44  N   LIG    1       22.957 -31.579  10.760  0.00  0.00    +0.238 N 
ATOM     45  C   LIG    1       21.546 -31.393  11.287  0.00  0.00    +0.192 C 
ATOM     46  C   LIG    1       23.421 -30.174  10.326  0.00  0.00    +0.192 C 
ATOM     47  C   LIG    1       23.806 -32.075  11.954  0.00  0.00    +0.192 C 
ENDBRANCH  43  44
ENDBRANCH  42  43
ENDBRANCH  41  42
ENDBRANCH  37  41
ENDBRANCH  36  37
ENDBRANCH  35  36
ENDBRANCH   1  35
TORSDOF 37
ENDMDL
MODEL 5
REMARK VINA RESULT:      -7.6      1.554      2.649
REMARK  Name = *****
REMARK                            x       y       z     vdW  Elec       q    Type
REMARK                         _______ _______ _______ _____ _____    ______ ____
ROOT
ATOM      1  C   LIG    1       25.498 -22.318   7.835  0.00  0.00    +0.240 C 
ENDROOT
BRANCH   1   2
ATOM      2  O   LIG    1       25.179 -23.496   6.886  0.00  0.00    -0.456 OA
BRANCH   2   3
ATOM      3  C   LIG    1       23.964 -24.190   6.680  0.00  0.00    +0.307 C 
ATOM      4  O   LIG    1       22.988 -23.812   7.031  0.00  0.00    -0.251 OA
BRANCH   3   5
ATOM      5  C   LIG    1       24.179 -25.500   5.935  0.00  0.00    +0.120 C 
BRANCH   5   6
ATOM      6  C   LIG    1       25.205 -26.531   6.465  0.00  0.00    +0.011 C 
BRANCH   6   7
ATOM      7  C   LIG    1       24.925 -28.055   6.486  0.00  0.00    +0.000 C 
BRANCH   7   8
ATOM      8  C   LIG    1       25.154 -28.825   7.741  0.00  0.00    +0.000 C 
BRANCH   8   9
ATOM      9  C   LIG    1       26.229 -28.208   8.524  0.00  0.00    -0.000 C 
BRANCH   9  10
ATOM     10  C   LIG    1       26.542 -28.516  10.302  0.00  0.00    -0.000 C 
BRANCH  10  11
ATOM     11  C   LIG    1       25.287 -29.204  11.513  0.00  0.00    -0.000 C 
BRANCH  11  12
ATOM     12  C   LIG    1       24.672 -28.356  12.975  0.00  0.00    -0.000 C 
BRANCH  12  13
ATOM     13  C   LIG    1       23.531 -26.883  13.323  0.00  0.00    -0.000 C 
BRANCH  13  14
ATOM     14  C   LIG    1       22.091 -26.443  13.720  0.00  0.00    -0.000 C 
BRANCH  14  15
ATOM     15  C   LIG    1       21.238 -27.024  14.891  0.00  0.00    -0.000 C 
BRANCH  15  16
ATOM     16  C   LIG    1       19.741 -27.010  14.779  0.00  0.00    -0.003 C 
ATOM     17  C   LIG    1       18.804 -26.250  13.762  0.00  0.00    +0.004 C 
ENDBRANCH  15  16
ENDBRANCH  14  15
ENDBRANCH  13  14
ENDBRANCH  12  13
ENDBRANCH  11  12
ENDBRANCH  10  11
ENDBRANCH   9  10
ENDBRANCH   8   9
ENDBRANCH   7   8
ENDBRANCH   6   7
ENDBRANCH   5   6
ENDBRANCH   3   5
ENDBRANCH   2   3
ENDBRANCH   1   2
BRANCH   1  18
ATOM     18  C   LIG    1       24.359 -20.638   7.749  0.00  0.00    +0.279 C 
BRANCH  18  19
ATOM     19  O   LIG    1       23.102 -20.429   6.465  0.00  0.00    -0.461 OA
BRANCH  19  20
ATOM     20  C   LIG    1       22.731 -20.931   5.141  0.00  0.00    +0.307 C 
ATOM     21  O   LIG    1       21.427 -21.308   4.761  0.00  0.00    -0.251 OA
BRANCH  20  22
ATOM     22  C   LIG    1       23.618 -20.777   4.096  0.00  0.00    +0.120 C 
BRANCH  22  23
ATOM     23  C   LIG    1       25.054 -20.896   4.621  0.00  0.00    +0.011 C 
BRANCH  23  24
ATOM     24  C   LIG    1       25.857 -19.673   4.535  0.00  0.00    +0.000 C 
BRANCH  24  25
ATOM     25  C   LIG    1       25.237 -18.609   3.544  0.00  0.00    +0.000 C 
BRANCH  25  26
ATOM     26  C   LIG    1       25.968 -17.262   3.215  0.00  0.00    -0.000 C 
BRANCH  26  27
ATOM     27  C   LIG    1       27.289 -16.884   3.810  0.00  0.00    -0.000 C 
BRANCH  27  28
ATOM     28  C   LIG    1       27.432 -15.332   3.830  0.00  0.00    -0.000 C 
BRANCH  28  29
ATOM     29  C   LIG    1       26.535 -14.463   2.892  0.00  0.00    -0.000 C 
BRANCH  29  30
ATOM     30  C   LIG    1       25.286 -13.656   3.390  0.00  0.00    -0.000 C 
BRANCH  30  31
ATOM     31  C   LIG    1       24.278 -14.187   4.478  0.00  0.00    -0.000 C 
BRANCH  31  32
ATOM     32  C   LIG    1       23.073 -15.037   4.096  0.00  0.00    -0.000 C 
BRANCH  32  34
ATOM     33  C   LIG    1       22.320 -17.295   4.723  0.00  0.00    +0.004 C 
ATOM     34  C   LIG    1       22.302 -15.866   5.098  0.00  0.00    -0.003 C 
ENDBRANCH  32  34
ENDBRANCH  31  32
ENDBRANCH  30  31
ENDBRANCH  29  30
ENDBRANCH  28  29
ENDBRANCH  27  28
ENDBRANCH  26  27
ENDBRANCH  25  26
ENDBRANCH  24  25
ENDBRANCH  23  24
ENDBRANCH  22  23
ENDBRANCH  20  22
ENDBRANCH  19  20
ENDBRANCH  18  19
ENDBRANCH   1  18
BRANCH   1  35
ATOM     35  C   LIG    1       26.918 -22.292   8.287  0.00  0.00    +0.220 C 
BRANCH  35  36
ATOM     36  O   LIG    1       27.467 -21.037   8.188  0.00  0.00    -0.283 OA
BRANCH  36  37
ATOM     37  P   LIG    1       29.035 -20.957   7.874  0.00  0.00    +0.475 P 
ATOM     38  O   LIG    1       29.800 -21.907   8.729  0.00  0.00    -0.227 OA
BRANCH  37  39
ATOM     39  O   LIG    1       29.219 -21.080   6.284  0.00  0.00    -0.302 OA
ATOM     40  H   LIG    1       28.809 -21.847   5.826  0.00  0.00    +0.222 HD
ENDBRANCH  37  39
BRANCH  37  41
ATOM     41  O   LIG    1       29.193 -19.393   8.095  0.00  0.00    -0.281 OA
BRANCH  41  42
ATOM     42  C   LIG    1       30.354 -18.573   8.080  0.00  0.00    +0.223 C 
BRANCH  42  43
ATOM     43  C   LIG    1       31.493 -18.539   9.153  0.00  0.00    +0.161 C 
BRANCH  43  44
ATOM     44  N   LIG    1       31.547 -17.203  10.053  0.00  0.00    +0.238 N 
ATOM     45  C   LIG    1       30.397 -16.277   9.705  0.00  0.00    +0.192 C 
ATOM     46  C   LIG    1       32.821 -16.345   9.915  0.00  0.00    +0.192 C 
ATOM     47  C   LIG    1       31.341 -17.618  11.530  0.00  0.00    +0.192 C 
ENDBRANCH  43  44
ENDBRANCH  42  43
ENDBRANCH  41  42
ENDBRANCH  37  41
ENDBRANCH  36  37
ENDBRANCH  35  36
ENDBRANCH   1  35
TORSDOF 37
ENDMDL
MODEL 6
REMARK VINA RESULT:      -7.5      3.200      6.566
REMARK  Name = *****
REMARK                            x       y       z     vdW  Elec       q    Type
REMARK                         _______ _______ _______ _____ _____    ______ ____
ROOT
ATOM      1  C   LIG    1       28.358 -18.800   5.389  0.00  0.00    +0.240 C 
ENDROOT
BRANCH   1   2
ATOM      2  O   LIG    1       27.743 -20.171   5.750  0.00  0.00    -0.456 OA
BRANCH   2   3
ATOM      3  C   LIG    1       27.166 -20.613   6.964  0.00  0.00    +0.307 C 
ATOM      4  O   LIG    1       26.668 -19.933   7.676  0.00  0.00    -0.251 OA
BRANCH   3   5
ATOM      5  C   LIG    1       27.329 -22.115   7.154  0.00  0.00    +0.120 C 
BRANCH   5   6
ATOM      6  C   LIG    1       26.083 -23.009   7.354  0.00  0.00    +0.011 C 
BRANCH   6   7
ATOM      7  C   LIG    1       25.986 -24.448   6.788  0.00  0.00    +0.000 C 
BRANCH   7   8
ATOM      8  C   LIG    1       24.666 -24.972   6.337  0.00  0.00    +0.000 C 
BRANCH   8   9
ATOM      9  C   LIG    1       24.831 -25.784   5.127  0.00  0.00    -0.000 C 
BRANCH   9  10
ATOM     10  C   LIG    1       25.083 -27.598   5.108  0.00  0.00    -0.000 C 
BRANCH  10  11
ATOM     11  C   LIG    1       24.059 -28.838   6.072  0.00  0.00    -0.000 C 
BRANCH  11  12
ATOM     12  C   LIG    1       24.528 -29.585   7.639  0.00  0.00    -0.000 C 
BRANCH  12  13
ATOM     13  C   LIG    1       25.919 -29.349   8.905  0.00  0.00    -0.000 C 
BRANCH  13  14
ATOM     14  C   LIG    1       26.633 -28.342   9.853  0.00  0.00    -0.000 C 
BRANCH  14  15
ATOM     15  C   LIG    1       27.388 -28.693  11.173  0.00  0.00    -0.000 C 
BRANCH  15  16
ATOM     16  C   LIG    1       27.162 -27.845  12.391  0.00  0.00    -0.003 C 
ATOM     17  C   LIG    1       25.870 -27.078  12.870  0.00  0.00    +0.004 C 
ENDBRANCH  15  16
ENDBRANCH  14  15
ENDBRANCH  13  14
ENDBRANCH  12  13
ENDBRANCH  11  12
ENDBRANCH  10  11
ENDBRANCH   9  10
ENDBRANCH   8   9
ENDBRANCH   7   8
ENDBRANCH   6   7
ENDBRANCH   5   6
ENDBRANCH   3   5
ENDBRANCH   2   3
ENDBRANCH   1   2
BRANCH   1  18
ATOM     18  C   LIG    1       27.435 -17.631   4.007  0.00  0.00    +0.279 C 
BRANCH  18  19
ATOM     19  O   LIG    1       27.637 -15.833   4.022  0.00  0.00    -0.461 OA
BRANCH  19  20
ATOM     20  C   LIG    1       27.131 -14.625   3.368  0.00  0.00    +0.307 C 
ATOM     21  O   LIG    1       26.777 -14.536   2.006  0.00  0.00    -0.251 OA
BRANCH  20  22
ATOM     22  C   LIG    1       26.696 -13.576   4.150  0.00  0.00    +0.120 C 
BRANCH  22  23
ATOM     23  C   LIG    1       25.427 -13.991   4.904  0.00  0.00    +0.011 C 
BRANCH  23  24
ATOM     24  C   LIG    1       24.180 -13.883   4.142  0.00  0.00    +0.000 C 
BRANCH  24  25
ATOM     25  C   LIG    1       23.523 -15.292   3.850  0.00  0.00    +0.000 C 
BRANCH  25  26
ATOM     26  C   LIG    1       22.621 -16.017   4.907  0.00  0.00    -0.000 C 
BRANCH  26  27
ATOM     27  C   LIG    1       22.103 -17.408   4.720  0.00  0.00    -0.000 C 
BRANCH  27  28
ATOM     28  C   LIG    1       22.976 -18.159   3.669  0.00  0.00    -0.000 C 
BRANCH  28  29
ATOM     29  C   LIG    1       24.337 -18.789   4.106  0.00  0.00    -0.000 C 
BRANCH  29  30
ATOM     30  C   LIG    1       24.810 -20.220   3.670  0.00  0.00    -0.000 C 
BRANCH  30  31
ATOM     31  C   LIG    1       24.328 -21.550   4.364  0.00  0.00    -0.000 C 
BRANCH  31  32
ATOM     32  C   LIG    1       23.210 -21.546   5.398  0.00  0.00    -0.000 C 
BRANCH  32  34
ATOM     33  C   LIG    1       23.427 -21.145   7.817  0.00  0.00    +0.004 C 
ATOM     34  C   LIG    1       23.124 -20.525   6.510  0.00  0.00    -0.003 C 
ENDBRANCH  32  34
ENDBRANCH  31  32
ENDBRANCH  30  31
ENDBRANCH  29  30
ENDBRANCH  28  29
ENDBRANCH  27  28
ENDBRANCH  26  27
ENDBRANCH  25  26
ENDBRANCH  24  25
ENDBRANCH  23  24
ENDBRANCH  22  23
ENDBRANCH  20  22
ENDBRANCH  19  20
ENDBRANCH  18  19
ENDBRANCH   1  18
BRANCH   1  35
ATOM     35  C   LIG    1       29.826 -18.728   5.635  0.00  0.00    +0.220 C 
BRANCH  35  36
ATOM     36  O   LIG    1       30.122 -18.055   6.795  0.00  0.00    -0.283 OA
BRANCH  36  37
ATOM     37  P   LIG    1       30.810 -18.901   7.967  0.00  0.00    +0.475 P 
ATOM     38  O   LIG    1       29.866 -19.108   9.101  0.00  0.00    -0.227 OA
BRANCH  37  39
ATOM     39  O   LIG    1       31.466 -20.207   7.302  0.00  0.00    -0.302 OA
ATOM     40  H   LIG    1       32.300 -20.101   6.793  0.00  0.00    +0.222 HD
ENDBRANCH  37  39
BRANCH  37  41
ATOM     41  O   LIG    1       32.078 -17.966   8.156  0.00  0.00    -0.281 OA
BRANCH  41  42
ATOM     42  C   LIG    1       32.262 -16.817   8.971  0.00  0.00    +0.223 C 
BRANCH  42  43
ATOM     43  C   LIG    1       32.815 -16.782  10.436  0.00  0.00    +0.161 C 
BRANCH  43  44
ATOM     44  N   LIG    1       31.694 -16.739  11.591  0.00  0.00    +0.238 N 
ATOM     45  C   LIG    1       30.381 -16.212  11.043  0.00  0.00    +0.192 C 
ATOM     46  C   LIG    1       32.014 -15.854  12.813  0.00  0.00    +0.192 C 
ATOM     47  C   LIG    1       31.424 -18.194  12.044  0.00  0.00    +0.192 C 
ENDBRANCH  43  44
ENDBRANCH  42  43
ENDBRANCH  41  42
ENDBRANCH  37  41
ENDBRANCH  36  37
ENDBRANCH  35  36
ENDBRANCH   1  35
TORSDOF 37
ENDMDL
MODEL 7
REMARK VINA RESULT:      -7.5      4.476     12.432
REMARK  Name = *****
REMARK                            x       y       z     vdW  Elec       q    Type
REMARK                         _______ _______ _______ _____ _____    ______ ____
ROOT
ATOM      1  C   LIG    1       24.551 -27.686   6.489  0.00  0.00    +0.240 C 
ENDROOT
BRANCH   1   2
ATOM      2  O   LIG    1       24.124 -26.360   5.820  0.00  0.00    -0.456 OA
BRANCH   2   3
ATOM      3  C   LIG    1       24.908 -25.384   5.160  0.00  0.00    +0.307 C 
ATOM      4  O   LIG    1       25.471 -25.591   4.234  0.00  0.00    -0.251 OA
BRANCH   3   5
ATOM      5  C   LIG    1       24.878 -24.048   5.888  0.00  0.00    +0.120 C 
BRANCH   5   6
ATOM      6  C   LIG    1       23.666 -23.679   6.778  0.00  0.00    +0.011 C 
BRANCH   6   7
ATOM      7  C   LIG    1       22.736 -22.479   6.470  0.00  0.00    +0.000 C 
BRANCH   7   8
ATOM      8  C   LIG    1       23.322 -21.116   6.321  0.00  0.00    +0.000 C 
BRANCH   8   9
ATOM      9  C   LIG    1       23.864 -20.657   7.604  0.00  0.00    -0.000 C 
BRANCH   9  10
ATOM     10  C   LIG    1       25.631 -20.730   8.083  0.00  0.00    -0.000 C 
BRANCH  10  11
ATOM     11  C   LIG    1       27.036 -21.216   6.942  0.00  0.00    -0.000 C 
BRANCH  11  12
ATOM     12  C   LIG    1       28.074 -20.074   6.019  0.00  0.00    -0.000 C 
BRANCH  12  13
ATOM     13  C   LIG    1       29.553 -18.952   6.404  0.00  0.00    -0.000 C 
BRANCH  13  14
ATOM     14  C   LIG    1       30.547 -18.473   7.502  0.00  0.00    -0.000 C 
BRANCH  14  15
ATOM     15  C   LIG    1       30.273 -18.428   9.038  0.00  0.00    -0.000 C 
BRANCH  15  16
ATOM     16  C   LIG    1       30.287 -17.103   9.744  0.00  0.00    -0.003 C 
ATOM     17  C   LIG    1       30.977 -16.678  11.097  0.00  0.00    +0.004 C 
ENDBRANCH  15  16
ENDBRANCH  14  15
ENDBRANCH  13  14
ENDBRANCH  12  13
ENDBRANCH  11  12
ENDBRANCH  10  11
ENDBRANCH   9  10
ENDBRANCH   8   9
ENDBRANCH   7   8
ENDBRANCH   6   7
ENDBRANCH   5   6
ENDBRANCH   3   5
ENDBRANCH   2   3
ENDBRANCH   1   2
BRANCH   1  18
ATOM     18  C   LIG    1       26.221 -27.721   7.646  0.00  0.00    +0.279 C 
BRANCH  18  19
ATOM     19  O   LIG    1       26.244 -28.606   9.224  0.00  0.00    -0.461 OA
BRANCH  19  20
ATOM     20  C   LIG    1       27.014 -28.702  10.465  0.00  0.00    +0.307 C 
ATOM     21  O   LIG    1       28.094 -29.583  10.675  0.00  0.00    -0.251 OA
BRANCH  20  22
ATOM     22  C   LIG    1       26.892 -27.700  11.405  0.00  0.00    +0.120 C 
BRANCH  22  23
ATOM     23  C   LIG    1       26.634 -28.320  12.784  0.00  0.00    +0.011 C 
BRANCH  23  24
ATOM     24  C   LIG    1       25.413 -27.870  13.457  0.00  0.00    +0.000 C 
BRANCH  24  25
ATOM     25  C   LIG    1       24.147 -28.728  13.055  0.00  0.00    +0.000 C 
BRANCH  25  26
ATOM     26  C   LIG    1       22.770 -28.060  12.717  0.00  0.00    -0.000 C 
BRANCH  26  27
ATOM     27  C   LIG    1       22.207 -26.912  13.496  0.00  0.00    -0.000 C 
BRANCH  27  28
ATOM     28  C   LIG    1       20.716 -26.688  13.097  0.00  0.00    -0.000 C 
BRANCH  28  29
ATOM     29  C   LIG    1       19.584 -27.360  13.938  0.00  0.00    -0.000 C 
BRANCH  29  30
ATOM     30  C   LIG    1       19.670 -28.825  14.492  0.00  0.00    -0.000 C 
BRANCH  30  31
ATOM     31  C   LIG    1       19.419 -30.109  13.615  0.00  0.00    -0.000 C 
BRANCH  31  32
ATOM     32  C   LIG    1       20.536 -31.105  13.329  0.00  0.00    -0.000 C 
BRANCH  32  34
ATOM     33  C   LIG    1       20.430 -30.552  10.932  0.00  0.00    +0.004 C 
ATOM     34  C   LIG    1       21.238 -31.188  11.993  0.00  0.00    -0.003 C 
ENDBRANCH  32  34
ENDBRANCH  31  32
ENDBRANCH  30  31
ENDBRANCH  29  30
ENDBRANCH  28  29
ENDBRANCH  27  28
ENDBRANCH  26  27
ENDBRANCH  25  26
ENDBRANCH  24  25
ENDBRANCH  23  24
ENDBRANCH  22  23
ENDBRANCH  20  22
ENDBRANCH  19  20
ENDBRANCH  18  19
ENDBRANCH   1  18
BRANCH   1  35
ATOM     35  C   LIG    1       24.059 -28.895   5.771  0.00  0.00    +0.220 C 
BRANCH  35  36
ATOM     36  O   LIG    1       25.083 -29.741   5.422  0.00  0.00    -0.283 OA
BRANCH  36  37
ATOM     37  P   LIG    1       24.877 -31.296   5.740  0.00  0.00    +0.475 P 
ATOM     38  O   LIG    1       23.539 -31.545   6.344  0.00  0.00    -0.227 OA
BRANCH  37  39
ATOM     39  O   LIG    1       25.255 -32.117   4.413  0.00  0.00    -0.302 OA
ATOM     40  H   LIG    1       24.718 -31.966   3.603  0.00  0.00    +0.222 HD
ENDBRANCH  37  39
BRANCH  37  41
ATOM     41  O   LIG    1       26.186 -31.485   6.617  0.00  0.00    -0.281 OA
BRANCH  41  42
ATOM     42  C   LIG    1       26.535 -32.505   7.544  0.00  0.00    +0.223 C 
BRANCH  42  43
ATOM     43  C   LIG    1       26.527 -32.398   9.106  0.00  0.00    +0.161 C 
BRANCH  43  44
ATOM     44  N   LIG    1       25.116 -32.732   9.808  0.00  0.00    +0.238 N 
ATOM     45  C   LIG    1       24.230 -31.501   9.841  0.00  0.00    +0.192 C 
ATOM     46  C   LIG    1       25.188 -33.225  11.268  0.00  0.00    +0.192 C 
ATOM     47  C   LIG    1       24.384 -33.773   8.929  0.00  0.00    +0.192 C 
ENDBRANCH  43  44
ENDBRANCH  42  43
ENDBRANCH  41  42
ENDBRANCH  37  41
ENDBRANCH  36  37
ENDBRANCH  35  36
ENDBRANCH   1  35
TORSDOF 37
ENDMDL
MODEL 8
REMARK VINA RESULT:      -7.4      4.689      8.637
REMARK  Name = *****
REMARK                            x       y       z     vdW  Elec       q    Type
REMARK                         _______ _______ _______ _____ _____    ______ ____
ROOT
ATOM      1  C   LIG    1       26.391 -30.022   8.906  0.00  0.00    +0.240 C 
ENDROOT
BRANCH   1   2
ATOM      2  O   LIG    1       27.398 -29.151   9.693  0.00  0.00    -0.456 OA
BRANCH   2   3
ATOM      3  C   LIG    1       27.788 -29.221  11.051  0.00  0.00    +0.307 C 
ATOM      4  O   LIG    1       28.700 -29.744  11.388  0.00  0.00    -0.251 OA
BRANCH   3   5
ATOM      5  C   LIG    1       26.800 -28.506  11.961  0.00  0.00    +0.120 C 
BRANCH   5   6
ATOM      6  C   LIG    1       26.791 -26.960  12.030  0.00  0.00    +0.011 C 
BRANCH   6   7
ATOM      7  C   LIG    1       26.640 -26.182  13.361  0.00  0.00    +0.000 C 
BRANCH   7   8
ATOM      8  C   LIG    1       25.563 -25.162  13.496  0.00  0.00    +0.000 C 
BRANCH   8   9
ATOM      9  C   LIG    1       24.765 -25.426  14.698  0.00  0.00    -0.000 C 
BRANCH   9  10
ATOM     10  C   LIG    1       23.148 -26.287  14.716  0.00  0.00    -0.000 C 
BRANCH  10  11
ATOM     11  C   LIG    1       22.093 -26.627  13.204  0.00  0.00    -0.000 C 
BRANCH  11  12
ATOM     12  C   LIG    1       20.305 -26.823  13.201  0.00  0.00    -0.000 C 
BRANCH  12  13
ATOM     13  C   LIG    1       18.873 -26.325  14.339  0.00  0.00    -0.000 C 
BRANCH  13  14
ATOM     14  C   LIG    1       17.446 -26.694  14.840  0.00  0.00    -0.000 C 
BRANCH  14  15
ATOM     15  C   LIG    1       16.409 -27.590  14.094  0.00  0.00    -0.000 C 
BRANCH  15  16
ATOM     16  C   LIG    1       16.592 -29.081  14.104  0.00  0.00    -0.003 C 
ATOM     17  C   LIG    1       17.863 -29.947  14.451  0.00  0.00    +0.004 C 
ENDBRANCH  15  16
ENDBRANCH  14  15
ENDBRANCH  13  14
ENDBRANCH  12  13
ENDBRANCH  11  12
ENDBRANCH  10  11
ENDBRANCH   9  10
ENDBRANCH   8   9
ENDBRANCH   7   8
ENDBRANCH   6   7
ENDBRANCH   5   6
ENDBRANCH   3   5
ENDBRANCH   2   3
ENDBRANCH   1   2
BRANCH   1  18
ATOM     18  C   LIG    1       24.895 -29.119   7.871  0.00  0.00    +0.279 C 
BRANCH  18  19
ATOM     19  O   LIG    1       25.204 -28.357   6.259  0.00  0.00    -0.461 OA
BRANCH  19  20
ATOM     20  C   LIG    1       25.467 -27.054   5.647  0.00  0.00    +0.307 C 
ATOM     21  O   LIG    1       26.647 -26.716   4.953  0.00  0.00    -0.251 OA
BRANCH  20  22
ATOM     22  C   LIG    1       24.419 -26.175   5.471  0.00  0.00    +0.120 C 
BRANCH  22  23
ATOM     23  C   LIG    1       24.946 -24.735   5.509  0.00  0.00    +0.011 C 
BRANCH  23  24
ATOM     24  C   LIG    1       24.722 -24.018   6.766  0.00  0.00    +0.000 C 
BRANCH  24  25
ATOM     25  C   LIG    1       23.319 -23.290   6.808  0.00  0.00    +0.000 C 
BRANCH  25  26
ATOM     26  C   LIG    1       23.168 -21.817   7.321  0.00  0.00    -0.000 C 
BRANCH  26  27
ATOM     27  C   LIG    1       23.072 -20.639   6.402  0.00  0.00    -0.000 C 
BRANCH  27  28
ATOM     28  C   LIG    1       23.947 -20.887   5.136  0.00  0.00    -0.000 C 
BRANCH  28  29
ATOM     29  C   LIG    1       25.458 -20.489   5.153  0.00  0.00    -0.000 C 
BRANCH  29  30
ATOM     30  C   LIG    1       26.378 -20.635   6.415  0.00  0.00    -0.000 C 
BRANCH  30  31
ATOM     31  C   LIG    1       27.928 -20.350   6.406  0.00  0.00    -0.000 C 
BRANCH  31  32
ATOM     32  C   LIG    1       28.722 -20.246   7.701  0.00  0.00    -0.000 C 
BRANCH  32  34
ATOM     33  C   LIG    1       30.711 -19.221   6.674  0.00  0.00    +0.004 C 
ATOM     34  C   LIG    1       30.230 -20.133   7.732  0.00  0.00    -0.003 C 
ENDBRANCH  32  34
ENDBRANCH  31  32
ENDBRANCH  30  31
ENDBRANCH  29  30
ENDBRANCH  28  29
ENDBRANCH  27  28
ENDBRANCH  26  27
ENDBRANCH  25  26
ENDBRANCH  24  25
ENDBRANCH  23  24
ENDBRANCH  22  23
ENDBRANCH  20  22
ENDBRANCH  19  20
ENDBRANCH  18  19
ENDBRANCH   1  18
BRANCH   1  35
ATOM     35  C   LIG    1       26.261 -31.405   9.445  0.00  0.00    +0.220 C 
BRANCH  35  36
ATOM     36  O   LIG    1       24.956 -31.730   9.722  0.00  0.00    -0.283 OA
BRANCH  36  37
ATOM     37  P   LIG    1       24.605 -32.078  11.245  0.00  0.00    +0.475 P 
ATOM     38  O   LIG    1       23.827 -33.345  11.337  0.00  0.00    -0.227 OA
BRANCH  37  39
ATOM     39  O   LIG    1       25.966 -31.983  12.091  0.00  0.00    -0.302 OA
ATOM     40  H   LIG    1       25.986 -32.386  12.987  0.00  0.00    +0.222 HD
ENDBRANCH  37  39
BRANCH  37  41
ATOM     41  O   LIG    1       23.909 -30.698  11.600  0.00  0.00    -0.281 OA
BRANCH  41  42
ATOM     42  C   LIG    1       22.533 -30.343  11.644  0.00  0.00    +0.223 C 
BRANCH  42  43
ATOM     43  C   LIG    1       21.453 -30.633  10.548  0.00  0.00    +0.161 C 
BRANCH  43  44
ATOM     44  N   LIG    1       20.387 -31.782  10.922  0.00  0.00    +0.238 N 
ATOM     45  C   LIG    1       18.970 -31.297  10.679  0.00  0.00    +0.192 C 
ATOM     46  C   LIG    1       20.408 -32.274  12.384  0.00  0.00    +0.192 C 
ATOM     47  C   LIG    1       20.613 -32.971   9.957  0.00  0.00    +0.192 C 
ENDBRANCH  43  44
ENDBRANCH  42  43
ENDBRANCH  41  42
ENDBRANCH  37  41
ENDBRANCH  36  37
ENDBRANCH  35  36
ENDBRANCH   1  35
TORSDOF 37
ENDMDL
MODEL 9
REMARK VINA RESULT:      -7.4      4.269     11.776
REMARK  Name = *****
REMARK                            x       y       z     vdW  Elec       q    Type
REMARK                         _______ _______ _______ _____ _____    ______ ____
ROOT
ATOM      1  C   LIG    1       24.808 -28.005   6.904  0.00  0.00    +0.240 C 
ENDROOT
BRANCH   1   2
ATOM      2  O   LIG    1       24.457 -26.721   6.118  0.00  0.00    -0.456 OA
BRANCH   2   3
ATOM      3  C   LIG    1       25.262 -25.936   5.259  0.00  0.00    +0.307 C 
ATOM      4  O   LIG    1       25.850 -26.364   4.429  0.00  0.00    -0.251 OA
BRANCH   3   5
ATOM      5  C   LIG    1       25.217 -24.461   5.633  0.00  0.00    +0.120 C 
BRANCH   5   6
ATOM      6  C   LIG    1       24.323 -23.987   6.804  0.00  0.00    +0.011 C 
BRANCH   6   7
ATOM      7  C   LIG    1       23.195 -22.940   6.625  0.00  0.00    +0.000 C 
BRANCH   7   8
ATOM      8  C   LIG    1       23.537 -21.490   6.600  0.00  0.00    +0.000 C 
BRANCH   8   9
ATOM      9  C   LIG    1       23.908 -21.036   7.944  0.00  0.00    -0.000 C 
BRANCH   9  10
ATOM     10  C   LIG    1       25.618 -20.983   8.599  0.00  0.00    -0.000 C 
BRANCH  10  11
ATOM     11  C   LIG    1       27.173 -21.007   7.551  0.00  0.00    -0.000 C 
BRANCH  11  12
ATOM     12  C   LIG    1       27.411 -20.102   6.016  0.00  0.00    -0.000 C 
BRANCH  12  13
ATOM     13  C   LIG    1       26.408 -19.799   4.437  0.00  0.00    -0.000 C 
BRANCH  13  14
ATOM     14  C   LIG    1       24.997 -19.865   3.782  0.00  0.00    -0.000 C 
BRANCH  14  15
ATOM     15  C   LIG    1       23.949 -18.709   3.729  0.00  0.00    -0.000 C 
BRANCH  15  16
ATOM     16  C   LIG    1       22.619 -18.900   4.400  0.00  0.00    -0.003 C 
ATOM     17  C   LIG    1       21.164 -18.574   3.884  0.00  0.00    +0.004 C 
ENDBRANCH  15  16
ENDBRANCH  14  15
ENDBRANCH  13  14
ENDBRANCH  12  13
ENDBRANCH  11  12
ENDBRANCH  10  11
ENDBRANCH   9  10
ENDBRANCH   8   9
ENDBRANCH   7   8
ENDBRANCH   6   7
ENDBRANCH   5   6
ENDBRANCH   3   5
ENDBRANCH   2   3
ENDBRANCH   1   2
BRANCH   1  18
ATOM     18  C   LIG    1       26.417 -28.002   8.145  0.00  0.00    +0.279 C 
BRANCH  18  19
ATOM     19  O   LIG    1       26.286 -28.611   9.843  0.00  0.00    -0.461 OA
BRANCH  19  20
ATOM     20  C   LIG    1       27.111 -29.140  10.930  0.00  0.00    +0.307 C 
ATOM     21  O   LIG    1       28.187 -30.035  10.760  0.00  0.00    -0.251 OA
BRANCH  20  22
ATOM     22  C   LIG    1       27.048 -28.538  12.169  0.00  0.00    +0.120 C 
BRANCH  22  23
ATOM     23  C   LIG    1       26.676 -27.059  12.001  0.00  0.00    +0.011 C 
BRANCH  23  24
ATOM     24  C   LIG    1       27.175 -26.163  13.048  0.00  0.00    +0.000 C 
BRANCH  24  25
ATOM     25  C   LIG    1       26.559 -26.487  14.468  0.00  0.00    +0.000 C 
BRANCH  25  26
ATOM     26  C   LIG    1       25.018 -26.692  14.672  0.00  0.00    -0.000 C 
BRANCH  26  27
ATOM     27  C   LIG    1       23.986 -25.839  14.004  0.00  0.00    -0.000 C 
BRANCH  27  28
ATOM     28  C   LIG    1       22.563 -26.398  14.309  0.00  0.00    -0.000 C 
BRANCH  28  29
ATOM     29  C   LIG    1       21.703 -26.991  13.147  0.00  0.00    -0.000 C 
BRANCH  29  30
ATOM     30  C   LIG    1       20.171 -26.704  12.970  0.00  0.00    -0.000 C 
BRANCH  30  31
ATOM     31  C   LIG    1       19.127 -26.758  14.149  0.00  0.00    -0.000 C 
BRANCH  31  32
ATOM     32  C   LIG    1       17.767 -26.084  14.036  0.00  0.00    -0.000 C 
BRANCH  32  34
ATOM     33  C   LIG    1       16.688 -28.278  14.327  0.00  0.00    +0.004 C 
ATOM     34  C   LIG    1       16.464 -26.819  14.260  0.00  0.00    -0.003 C 
ENDBRANCH  32  34
ENDBRANCH  31  32
ENDBRANCH  30  31
ENDBRANCH  29  30
ENDBRANCH  28  29
ENDBRANCH  27  28
ENDBRANCH  26  27
ENDBRANCH  25  26
ENDBRANCH  24  25
ENDBRANCH  23  24
ENDBRANCH  22  23
ENDBRANCH  20  22
ENDBRANCH  19  20
ENDBRANCH  18  19
ENDBRANCH   1  18
BRANCH   1  35
ATOM     35  C   LIG    1       24.311 -29.250   6.252  0.00  0.00    +0.220 C 
BRANCH  35  36
ATOM     36  O   LIG    1       25.339 -30.030   5.782  0.00  0.00    -0.283 OA
BRANCH  36  37
ATOM     37  P   LIG    1       25.147 -31.617   5.883  0.00  0.00    +0.475 P 
ATOM     38  O   LIG    1       23.703 -31.983   5.851  0.00  0.00    -0.227 OA
BRANCH  37  39
ATOM     39  O   LIG    1       26.106 -32.292   4.786  0.00  0.00    -0.302 OA
ATOM     40  H   LIG    1       25.814 -32.289   3.848  0.00  0.00    +0.222 HD
ENDBRANCH  37  39
BRANCH  37  41
ATOM     41  O   LIG    1       25.985 -31.825   7.213  0.00  0.00    -0.281 OA
BRANCH  41  42
ATOM     42  C   LIG    1       25.565 -31.857   8.571  0.00  0.00    +0.223 C 
BRANCH  42  43
ATOM     43  C   LIG    1       24.217 -31.311   9.151  0.00  0.00    +0.161 C 
BRANCH  43  44
ATOM     44  N   LIG    1       23.934 -31.684  10.693  0.00  0.00    +0.238 N 
ATOM     45  C   LIG    1       25.189 -32.224  11.352  0.00  0.00    +0.192 C 
ATOM     46  C   LIG    1       22.848 -32.750  10.943  0.00  0.00    +0.192 C 
ATOM     47  C   LIG    1       23.578 -30.376  11.439  0.00  0.00    +0.192 C 
ENDBRANCH  43  44
ENDBRANCH  42  43
ENDBRANCH  41  42
ENDBRANCH  37  41
ENDBRANCH  36  37
ENDBRANCH  35  36
ENDBRANCH   1  35
TORSDOF 37
ENDMDL
