MODEL 1
REMARK VINA RESULT:      -7.9      0.000      0.000
REMARK  Name = *****
REMARK                            x       y       z     vdW  Elec       q    Type
REMARK                         _______ _______ _______ _____ _____    ______ ____
ROOT
ATOM      1  C   LIG    1       29.308 -19.886   6.998  0.00  0.00    +0.006 C 
ATOM      2  C   LIG    1       29.047 -20.860   8.134  0.00  0.00    +0.107 C 
ATOM      3  S   LIG    1       27.661 -21.985   7.810  0.00  0.00    -0.131 S 
ATOM      4  C   LIG    1       26.530 -20.628   7.404  0.00  0.00    +0.169 C 
ATOM      5  N   LIG    1       27.051 -19.891   6.267  0.00  0.00    -0.249 N 
ATOM      6  C   LIG    1       26.110 -20.310   5.385  0.00  0.00    +0.244 C 
ATOM      7  O   LIG    1       26.078 -20.187   4.173  0.00  0.00    -0.273 OA
ATOM      8  CA  LIG    1       25.297 -21.003   6.519  0.00  0.00    +0.191 C 
ATOM      9  CA  LIG    1       28.353 -19.465   6.123  0.00  0.00    +0.125 C 
ENDROOT
BRANCH   8  10
ATOM     10  N   LIG    1       24.987 -22.457   6.356  0.00  0.00    -0.301 N 
ATOM     11  H   LIG    1       25.694 -23.079   5.976  0.00  0.00    +0.150 HD
ATOM     12  C   LIG    1       23.797 -23.000   6.805  0.00  0.00    +0.224 C 
ATOM     13  O   LIG    1       22.949 -22.323   7.379  0.00  0.00    -0.275 OA
BRANCH  12  14
ATOM     14  C   LIG    1       23.608 -24.486   6.519  0.00  0.00    +0.170 C 
BRANCH  14  15
ATOM     15  S   LIG    1       25.054 -25.162   5.625  0.00  0.00    -0.116 S 
BRANCH  15  16
ATOM     16  C   LIG    1       25.021 -26.870   6.171  0.00  0.00    +0.011 A 
ATOM     17  C   LIG    1       25.765 -27.271   7.284  0.00  0.00    +0.034 A 
ATOM     18  C   LIG    1       25.715 -28.602   7.670  0.00  0.00    +0.112 A 
ATOM     19  N   LIG    1       24.971 -29.538   7.045  0.00  0.00    -0.263 NA
ATOM     20  C   LIG    1       24.233 -29.121   5.996  0.00  0.00    +0.112 A 
ATOM     21  C   LIG    1       24.222 -27.816   5.529  0.00  0.00    +0.034 A 
ENDBRANCH  15  16
ENDBRANCH  14  15
ENDBRANCH  12  14
ENDBRANCH   8  10
BRANCH   9  22
ATOM     22  C   LIG    1       28.694 -18.459   5.031  0.00  0.00    +0.351 C 
ATOM     23  O   LIG    1       29.807 -17.971   4.895  0.00  0.00    -0.244 OA
BRANCH  22  24
ATOM     24  OXT LIG    1       27.678 -18.007   4.273  0.00  0.00    -0.476 OA
ATOM     25  HXT LIG    1       26.926 -18.620   4.122  0.00  0.00    +0.295 HD
ENDBRANCH  22  24
ENDBRANCH   9  22
BRANCH   1  26
ATOM     26  C   LIG    1       30.774 -19.487   6.931  0.00  0.00    +0.266 C 
BRANCH  26  27
ATOM     27  O   LIG    1       31.050 -18.272   7.647  0.00  0.00    -0.460 OA
BRANCH  27  29
ATOM     28  C   LIG    1       32.236 -17.095   9.278  0.00  0.00    +0.136 C 
ATOM     29  C   LIG    1       31.778 -18.432   8.788  0.00  0.00    +0.304 C 
ATOM     30  O   LIG    1       32.102 -19.502   9.283  0.00  0.00    -0.251 OA
ENDBRANCH  27  29
ENDBRANCH  26  27
ENDBRANCH   1  26
TORSDOF 9
ENDMDL
MODEL 2
REMARK VINA RESULT:      -7.7      3.857      9.244
REMARK  Name = *****
REMARK                            x       y       z     vdW  Elec       q    Type
REMARK                         _______ _______ _______ _____ _____    ______ ____
ROOT
ATOM      1  C   LIG    1       24.397 -20.721   6.155  0.00  0.00    +0.006 C 
ATOM      2  C   LIG    1       24.504 -21.273   7.566  0.00  0.00    +0.107 C 
ATOM      3  S   LIG    1       26.059 -20.833   8.392  0.00  0.00    -0.131 S 
ATOM      4  C   LIG    1       27.072 -21.447   7.021  0.00  0.00    +0.169 C 
ATOM      5  N   LIG    1       26.745 -20.711   5.812  0.00  0.00    -0.249 N 
ATOM      6  C   LIG    1       27.912 -20.025   5.746  0.00  0.00    +0.244 C 
ATOM      7  O   LIG    1       28.213 -19.080   5.038  0.00  0.00    -0.273 OA
ATOM      8  CA  LIG    1       28.517 -20.858   6.916  0.00  0.00    +0.191 C 
ATOM      9  CA  LIG    1       25.471 -20.447   5.361  0.00  0.00    +0.125 C 
ENDROOT
BRANCH   8  10
ATOM     10  N   LIG    1       29.038 -20.106   8.100  0.00  0.00    -0.301 N 
ATOM     11  H   LIG    1       28.424 -19.929   8.889  0.00  0.00    +0.150 HD
ATOM     12  C   LIG    1       30.366 -19.734   8.195  0.00  0.00    +0.224 C 
ATOM     13  O   LIG    1       31.186 -20.022   7.328  0.00  0.00    -0.275 OA
BRANCH  12  14
ATOM     14  C   LIG    1       30.732 -18.930   9.438  0.00  0.00    +0.170 C 
BRANCH  14  15
ATOM     15  S   LIG    1       31.928 -17.609   9.024  0.00  0.00    -0.116 S 
BRANCH  15  16
ATOM     16  C   LIG    1       32.127 -16.819  10.622  0.00  0.00    +0.011 A 
ATOM     17  C   LIG    1       31.539 -17.373  11.762  0.00  0.00    +0.034 A 
ATOM     18  C   LIG    1       31.714 -16.728  12.978  0.00  0.00    +0.112 A 
ATOM     19  N   LIG    1       32.438 -15.600  13.132  0.00  0.00    -0.263 NA
ATOM     20  C   LIG    1       33.025 -15.103  12.024  0.00  0.00    +0.112 A 
ATOM     21  C   LIG    1       32.903 -15.670  10.765  0.00  0.00    +0.034 A 
ENDBRANCH  15  16
ENDBRANCH  14  15
ENDBRANCH  12  14
ENDBRANCH   8  10
BRANCH   9  22
ATOM     22  C   LIG    1       25.272 -19.927   3.944  0.00  0.00    +0.351 C 
ATOM     23  O   LIG    1       24.847 -20.620   3.030  0.00  0.00    -0.244 OA
BRANCH  22  24
ATOM     24  OXT LIG    1       25.709 -18.682   3.680  0.00  0.00    -0.476 OA
ATOM     25  HXT LIG    1       25.358 -18.247   2.873  0.00  0.00    +0.295 HD
ENDBRANCH  22  24
ENDBRANCH   9  22
BRANCH   1  26
ATOM     26  C   LIG    1       22.950 -20.464   5.764  0.00  0.00    +0.266 C 
BRANCH  26  27
ATOM     27  O   LIG    1       22.562 -19.093   5.950  0.00  0.00    -0.460 OA
BRANCH  27  29
ATOM     28  C   LIG    1       21.569 -19.456   3.868  0.00  0.00    +0.136 C 
ATOM     29  C   LIG    1       22.150 -18.456   4.817  0.00  0.00    +0.304 C 
ATOM     30  O   LIG    1       22.322 -17.273   4.562  0.00  0.00    -0.251 OA
ENDBRANCH  27  29
ENDBRANCH  26  27
ENDBRANCH   1  26
TORSDOF 9
ENDMDL
MODEL 3
REMARK VINA RESULT:      -7.4      6.458     10.294
REMARK  Name = *****
REMARK                            x       y       z     vdW  Elec       q    Type
REMARK                         _______ _______ _______ _____ _____    ______ ____
ROOT
ATOM      1  C   LIG    1       25.688 -29.661  12.363  0.00  0.00    +0.006 C 
ATOM      2  C   LIG    1       26.924 -28.997  11.781  0.00  0.00    +0.107 C 
ATOM      3  S   LIG    1       26.708 -28.466  10.060  0.00  0.00    -0.131 S 
ATOM      4  C   LIG    1       26.133 -30.100   9.527  0.00  0.00    +0.169 C 
ATOM      5  N   LIG    1       24.927 -30.448  10.258  0.00  0.00    -0.249 N 
ATOM      6  C   LIG    1       24.085 -30.330   9.203  0.00  0.00    +0.244 C 
ATOM      7  O   LIG    1       22.867 -30.320   9.185  0.00  0.00    -0.273 OA
ATOM      8  CA  LIG    1       25.278 -30.135   8.219  0.00  0.00    +0.191 C 
ATOM      9  CA  LIG    1       24.756 -30.319  11.619  0.00  0.00    +0.125 C 
ENDROOT
BRANCH   8  10
ATOM     10  N   LIG    1       25.276 -28.905   7.368  0.00  0.00    -0.301 N 
ATOM     11  H   LIG    1       25.962 -28.177   7.542  0.00  0.00    +0.150 HD
ATOM     12  C   LIG    1       24.432 -28.777   6.281  0.00  0.00    +0.224 C 
ATOM     13  O   LIG    1       23.661 -29.672   5.947  0.00  0.00    -0.275 OA
BRANCH  12  14
ATOM     14  C   LIG    1       24.513 -27.444   5.544  0.00  0.00    +0.170 C 
BRANCH  14  15
ATOM     15  S   LIG    1       25.947 -26.469   6.126  0.00  0.00    -0.116 S 
BRANCH  15  16
ATOM     16  C   LIG    1       25.153 -24.917   6.548  0.00  0.00    +0.011 A 
ATOM     17  C   LIG    1       23.769 -24.774   6.419  0.00  0.00    +0.034 A 
ATOM     18  C   LIG    1       23.195 -23.556   6.752  0.00  0.00    +0.112 A 
ATOM     19  N   LIG    1       23.893 -22.498   7.215  0.00  0.00    -0.263 NA
ATOM     20  C   LIG    1       25.222 -22.671   7.365  0.00  0.00    +0.112 A 
ATOM     21  C   LIG    1       25.889 -23.846   7.053  0.00  0.00    +0.034 A 
ENDBRANCH  15  16
ENDBRANCH  14  15
ENDBRANCH  12  14
ENDBRANCH   8  10
BRANCH   9  22
ATOM     22  C   LIG    1       23.563 -30.987  12.288  0.00  0.00    +0.351 C 
ATOM     23  O   LIG    1       23.581 -32.143  12.690  0.00  0.00    -0.244 OA
BRANCH  22  24
ATOM     24  OXT LIG    1       22.408 -30.298  12.314  0.00  0.00    -0.476 OA
ATOM     25  HXT LIG    1       22.415 -29.398  11.922  0.00  0.00    +0.295 HD
ENDBRANCH  22  24
ENDBRANCH   9  22
BRANCH   1  26
ATOM     26  C   LIG    1       25.600 -29.453  13.867  0.00  0.00    +0.266 C 
BRANCH  26  27
ATOM     27  O   LIG    1       25.365 -28.080  14.222  0.00  0.00    -0.460 OA
BRANCH  27  29
ATOM     28  C   LIG    1       24.006 -26.264  13.668  0.00  0.00    +0.136 C 
ATOM     29  C   LIG    1       24.063 -27.682  14.141  0.00  0.00    +0.304 C 
ATOM     30  O   LIG    1       23.094 -28.336  14.497  0.00  0.00    -0.251 OA
ENDBRANCH  27  29
ENDBRANCH  26  27
ENDBRANCH   1  26
TORSDOF 9
ENDMDL
MODEL 4
REMARK VINA RESULT:      -7.3      3.469      9.206
REMARK  Name = *****
REMARK                            x       y       z     vdW  Elec       q    Type
REMARK                         _______ _______ _______ _____ _____    ______ ____
ROOT
ATOM      1  C   LIG    1       25.034 -20.722   6.828  0.00  0.00    +0.006 C 
ATOM      2  C   LIG    1       25.574 -21.153   8.180  0.00  0.00    +0.107 C 
ATOM      3  S   LIG    1       27.203 -20.451   8.558  0.00  0.00    -0.131 S 
ATOM      4  C   LIG    1       27.918 -21.018   6.993  0.00  0.00    +0.169 C 
ATOM      5  N   LIG    1       27.191 -20.421   5.887  0.00  0.00    -0.249 N 
ATOM      6  C   LIG    1       28.189 -19.590   5.496  0.00  0.00    +0.244 C 
ATOM      7  O   LIG    1       28.158 -18.666   4.703  0.00  0.00    -0.273 OA
ATOM      8  CA  LIG    1       29.185 -20.250   6.496  0.00  0.00    +0.191 C 
ATOM      9  CA  LIG    1       25.820 -20.363   5.774  0.00  0.00    +0.125 C 
ENDROOT
BRANCH   8  10
ATOM     10  N   LIG    1       29.871 -19.353   7.478  0.00  0.00    -0.301 N 
ATOM     11  H   LIG    1       29.349 -18.986   8.268  0.00  0.00    +0.150 HD
ATOM     12  C   LIG    1       31.226 -19.092   7.398  0.00  0.00    +0.224 C 
ATOM     13  O   LIG    1       31.936 -19.600   6.534  0.00  0.00    -0.275 OA
BRANCH  12  14
ATOM     14  C   LIG    1       31.767 -18.118   8.440  0.00  0.00    +0.170 C 
BRANCH  14  15
ATOM     15  S   LIG    1       30.419 -17.505   9.514  0.00  0.00    -0.116 S 
BRANCH  15  16
ATOM     16  C   LIG    1       31.355 -16.895  10.917  0.00  0.00    +0.011 A 
ATOM     17  C   LIG    1       31.156 -17.439  12.189  0.00  0.00    +0.034 A 
ATOM     18  C   LIG    1       31.898 -16.935  13.248  0.00  0.00    +0.112 A 
ATOM     19  N   LIG    1       32.820 -15.959  13.121  0.00  0.00    -0.263 NA
ATOM     20  C   LIG    1       33.020 -15.474  11.879  0.00  0.00    +0.112 A 
ATOM     21  C   LIG    1       32.325 -15.907  10.760  0.00  0.00    +0.034 A 
ENDBRANCH  15  16
ENDBRANCH  14  15
ENDBRANCH  12  14
ENDBRANCH   8  10
BRANCH   9  22
ATOM     22  C   LIG    1       25.195 -19.976   4.441  0.00  0.00    +0.351 C 
ATOM     23  O   LIG    1       24.895 -20.792   3.580  0.00  0.00    -0.244 OA
BRANCH  22  24
ATOM     24  OXT LIG    1       25.095 -18.662   4.167  0.00  0.00    -0.476 OA
ATOM     25  HXT LIG    1       24.828 -18.071   4.905  0.00  0.00    +0.295 HD
ENDBRANCH  22  24
ENDBRANCH   9  22
BRANCH   1  26
ATOM     26  C   LIG    1       23.513 -20.691   6.819  0.00  0.00    +0.266 C 
BRANCH  26  27
ATOM     27  O   LIG    1       22.933 -21.832   7.472  0.00  0.00    -0.460 OA
BRANCH  27  29
ATOM     28  C   LIG    1       21.798 -22.343   5.497  0.00  0.00    +0.136 C 
ATOM     29  C   LIG    1       22.608 -22.863   6.642  0.00  0.00    +0.304 C 
ATOM     30  O   LIG    1       22.845 -24.045   6.846  0.00  0.00    -0.251 OA
ENDBRANCH  27  29
ENDBRANCH  26  27
ENDBRANCH   1  26
TORSDOF 9
ENDMDL
MODEL 5
REMARK VINA RESULT:      -7.1      6.353     10.450
REMARK  Name = *****
REMARK                            x       y       z     vdW  Elec       q    Type
REMARK                         _______ _______ _______ _____ _____    ______ ____
ROOT
ATOM      1  C   LIG    1       26.063 -30.369  11.922  0.00  0.00    +0.006 C 
ATOM      2  C   LIG    1       27.196 -29.600  11.266  0.00  0.00    +0.107 C 
ATOM      3  S   LIG    1       26.706 -28.780   9.723  0.00  0.00    -0.131 S 
ATOM      4  C   LIG    1       26.021 -30.302   9.019  0.00  0.00    +0.169 C 
ATOM      5  N   LIG    1       24.948 -30.786   9.869  0.00  0.00    -0.249 N 
ATOM      6  C   LIG    1       23.943 -30.495   9.006  0.00  0.00    +0.244 C 
ATOM      7  O   LIG    1       22.740 -30.495   9.194  0.00  0.00    -0.273 OA
ATOM      8  CA  LIG    1       24.959 -30.119   7.886  0.00  0.00    +0.191 C 
ATOM      9  CA  LIG    1       25.008 -30.898  11.241  0.00  0.00    +0.125 C 
ENDROOT
BRANCH   8  10
ATOM     10  N   LIG    1       24.838 -28.759   7.273  0.00  0.00    -0.301 N 
ATOM     11  H   LIG    1       24.782 -27.943   7.876  0.00  0.00    +0.150 HD
ATOM     12  C   LIG    1       24.905 -28.571   5.906  0.00  0.00    +0.224 C 
ATOM     13  O   LIG    1       25.090 -29.505   5.130  0.00  0.00    -0.275 OA
BRANCH  12  14
ATOM     14  C   LIG    1       24.714 -27.134   5.433  0.00  0.00    +0.170 C 
BRANCH  14  15
ATOM     15  S   LIG    1       26.035 -26.055   6.093  0.00  0.00    -0.116 S 
BRANCH  15  16
ATOM     16  C   LIG    1       25.086 -24.611   6.573  0.00  0.00    +0.011 A 
ATOM     17  C   LIG    1       25.731 -23.471   7.058  0.00  0.00    +0.034 A 
ATOM     18  C   LIG    1       24.959 -22.377   7.423  0.00  0.00    +0.112 A 
ATOM     19  N   LIG    1       23.614 -22.339   7.318  0.00  0.00    -0.263 NA
ATOM     20  C   LIG    1       23.017 -23.438   6.814  0.00  0.00    +0.112 A 
ATOM     21  C   LIG    1       23.700 -24.581   6.429  0.00  0.00    +0.034 A 
ENDBRANCH  15  16
ENDBRANCH  14  15
ENDBRANCH  12  14
ENDBRANCH   8  10
BRANCH   9  22
ATOM     22  C   LIG    1       23.931 -31.685  11.974  0.00  0.00    +0.351 C 
ATOM     23  O   LIG    1       23.994 -32.893  12.160  0.00  0.00    -0.244 OA
BRANCH  22  24
ATOM     24  OXT LIG    1       22.809 -31.024  12.312  0.00  0.00    -0.476 OA
ATOM     25  HXT LIG    1       22.657 -30.152  11.886  0.00  0.00    +0.295 HD
ENDBRANCH  22  24
ENDBRANCH   9  22
BRANCH   1  26
ATOM     26  C   LIG    1       26.229 -30.427  13.432  0.00  0.00    +0.266 C 
BRANCH  26  27
ATOM     27  O   LIG    1       26.101 -29.137  14.053  0.00  0.00    -0.460 OA
BRANCH  27  29
ATOM     28  C   LIG    1       24.933 -27.222  13.403  0.00  0.00    +0.136 C 
ATOM     29  C   LIG    1       24.852 -28.595  13.993  0.00  0.00    +0.304 C 
ATOM     30  O   LIG    1       23.834 -29.098  14.444  0.00  0.00    -0.251 OA
ENDBRANCH  27  29
ENDBRANCH  26  27
ENDBRANCH   1  26
TORSDOF 9
ENDMDL
MODEL 6
REMARK VINA RESULT:      -7.1      6.345     10.527
REMARK  Name = *****
REMARK                            x       y       z     vdW  Elec       q    Type
REMARK                         _______ _______ _______ _____ _____    ______ ____
ROOT
ATOM      1  C   LIG    1       26.062 -30.269  11.962  0.00  0.00    +0.006 C 
ATOM      2  C   LIG    1       27.184 -29.441  11.360  0.00  0.00    +0.107 C 
ATOM      3  S   LIG    1       26.712 -28.609   9.818  0.00  0.00    -0.131 S 
ATOM      4  C   LIG    1       26.112 -30.143   9.062  0.00  0.00    +0.169 C 
ATOM      5  N   LIG    1       25.033 -30.687   9.865  0.00  0.00    -0.249 N 
ATOM      6  C   LIG    1       24.046 -30.418   8.976  0.00  0.00    +0.244 C 
ATOM      7  O   LIG    1       22.838 -30.471   9.123  0.00  0.00    -0.273 OA
ATOM      8  CA  LIG    1       25.082 -29.978   7.898  0.00  0.00    +0.191 C 
ATOM      9  CA  LIG    1       25.052 -30.825  11.236  0.00  0.00    +0.125 C 
ENDROOT
BRANCH   8  10
ATOM     10  N   LIG    1       24.926 -28.612   7.308  0.00  0.00    -0.301 N 
ATOM     11  H   LIG    1       24.933 -27.801   7.919  0.00  0.00    +0.150 HD
ATOM     12  C   LIG    1       24.875 -28.413   5.941  0.00  0.00    +0.224 C 
ATOM     13  O   LIG    1       24.980 -29.342   5.145  0.00  0.00    -0.275 OA
BRANCH  12  14
ATOM     14  C   LIG    1       24.662 -26.970   5.498  0.00  0.00    +0.170 C 
BRANCH  14  15
ATOM     15  S   LIG    1       25.960 -25.882   6.190  0.00  0.00    -0.116 S 
BRANCH  15  16
ATOM     16  C   LIG    1       24.989 -24.444   6.646  0.00  0.00    +0.011 A 
ATOM     17  C   LIG    1       25.616 -23.296   7.135  0.00  0.00    +0.034 A 
ATOM     18  C   LIG    1       24.828 -22.207   7.480  0.00  0.00    +0.112 A 
ATOM     19  N   LIG    1       23.485 -22.181   7.353  0.00  0.00    -0.263 NA
ATOM     20  C   LIG    1       22.906 -23.289   6.846  0.00  0.00    +0.112 A 
ATOM     21  C   LIG    1       23.606 -24.428   6.479  0.00  0.00    +0.034 A 
ENDBRANCH  15  16
ENDBRANCH  14  15
ENDBRANCH  12  14
ENDBRANCH   8  10
BRANCH   9  22
ATOM     22  C   LIG    1       23.985 -31.671  11.917  0.00  0.00    +0.351 C 
ATOM     23  O   LIG    1       24.108 -32.871  12.116  0.00  0.00    -0.244 OA
BRANCH  22  24
ATOM     24  OXT LIG    1       22.810 -31.075  12.189  0.00  0.00    -0.476 OA
ATOM     25  HXT LIG    1       22.303 -31.416  12.958  0.00  0.00    +0.295 HD
ENDBRANCH  22  24
ENDBRANCH   9  22
BRANCH   1  26
ATOM     26  C   LIG    1       26.181 -30.352  13.476  0.00  0.00    +0.266 C 
BRANCH  26  27
ATOM     27  O   LIG    1       27.312 -31.132  13.900  0.00  0.00    -0.460 OA
BRANCH  27  29
ATOM     28  C   LIG    1       27.537 -29.196  15.185  0.00  0.00    +0.136 C 
ATOM     29  C   LIG    1       28.131 -30.512  14.796  0.00  0.00    +0.304 C 
ATOM     30  O   LIG    1       29.232 -30.910  15.150  0.00  0.00    -0.251 OA
ENDBRANCH  27  29
ENDBRANCH  26  27
ENDBRANCH   1  26
TORSDOF 9
ENDMDL
MODEL 7
REMARK VINA RESULT:      -6.7      5.097     10.797
REMARK  Name = *****
REMARK                            x       y       z     vdW  Elec       q    Type
REMARK                         _______ _______ _______ _____ _____    ______ ____
ROOT
ATOM      1  C   LIG    1       25.786 -31.325   8.516  0.00  0.00    +0.006 C 
ATOM      2  C   LIG    1       26.544 -30.162   9.134  0.00  0.00    +0.107 C 
ATOM      3  S   LIG    1       25.899 -28.541   8.637  0.00  0.00    -0.131 S 
ATOM      4  C   LIG    1       25.988 -28.940   6.871  0.00  0.00    +0.169 C 
ATOM      5  N   LIG    1       25.146 -30.089   6.593  0.00  0.00    -0.249 N 
ATOM      6  C   LIG    1       24.197 -29.406   5.908  0.00  0.00    +0.244 C 
ATOM      7  O   LIG    1       23.094 -29.773   5.542  0.00  0.00    -0.273 OA
ATOM      8  CA  LIG    1       25.058 -28.107   5.930  0.00  0.00    +0.191 C 
ATOM      9  CA  LIG    1       25.121 -31.254   7.329  0.00  0.00    +0.125 C 
ENDROOT
BRANCH   8  10
ATOM     10  N   LIG    1       24.431 -26.874   6.501  0.00  0.00    -0.301 N 
ATOM     11  H   LIG    1       24.023 -26.907   7.431  0.00  0.00    +0.150 HD
ATOM     12  C   LIG    1       24.483 -25.661   5.840  0.00  0.00    +0.224 C 
ATOM     13  O   LIG    1       25.065 -25.530   4.767  0.00  0.00    -0.275 OA
BRANCH  12  14
ATOM     14  C   LIG    1       23.755 -24.511   6.527  0.00  0.00    +0.170 C 
BRANCH  14  15
ATOM     15  S   LIG    1       24.927 -23.182   6.982  0.00  0.00    -0.116 S 
BRANCH  15  16
ATOM     16  C   LIG    1       24.320 -21.833   5.969  0.00  0.00    +0.011 A 
ATOM     17  C   LIG    1       22.976 -21.456   6.026  0.00  0.00    +0.034 A 
ATOM     18  C   LIG    1       22.546 -20.409   5.223  0.00  0.00    +0.112 A 
ATOM     19  N   LIG    1       23.356 -19.715   4.397  0.00  0.00    -0.263 NA
ATOM     20  C   LIG    1       24.656 -20.074   4.385  0.00  0.00    +0.112 A 
ATOM     21  C   LIG    1       25.180 -21.109   5.144  0.00  0.00    +0.034 A 
ENDBRANCH  15  16
ENDBRANCH  14  15
ENDBRANCH  12  14
ENDBRANCH   8  10
BRANCH   9  22
ATOM     22  C   LIG    1       24.414 -32.479   6.765  0.00  0.00    +0.351 C 
ATOM     23  O   LIG    1       24.961 -33.286   6.025  0.00  0.00    -0.244 OA
BRANCH  22  24
ATOM     24  OXT LIG    1       23.095 -32.590   7.001  0.00  0.00    -0.476 OA
ATOM     25  HXT LIG    1       22.817 -33.218   7.704  0.00  0.00    +0.295 HD
ENDBRANCH  22  24
ENDBRANCH   9  22
BRANCH   1  26
ATOM     26  C   LIG    1       25.822 -32.553   9.412  0.00  0.00    +0.266 C 
BRANCH  26  27
ATOM     27  O   LIG    1       25.120 -32.353  10.651  0.00  0.00    -0.460 OA
BRANCH  27  29
ATOM     28  C   LIG    1       23.300 -31.023  11.257  0.00  0.00    +0.136 C 
ATOM     29  C   LIG    1       23.767 -32.244  10.531  0.00  0.00    +0.304 C 
ATOM     30  O   LIG    1       23.029 -33.066  10.006  0.00  0.00    -0.251 OA
ENDBRANCH  27  29
ENDBRANCH  26  27
ENDBRANCH   1  26
TORSDOF 9
ENDMDL
MODEL 8
REMARK VINA RESULT:      -6.4      9.018     11.700
REMARK  Name = *****
REMARK                            x       y       z     vdW  Elec       q    Type
REMARK                         _______ _______ _______ _____ _____    ______ ____
ROOT
ATOM      1  C   LIG    1       24.905 -31.145   9.264  0.00  0.00    +0.006 C 
ATOM      2  C   LIG    1       23.473 -31.615   9.448  0.00  0.00    +0.107 C 
ATOM      3  S   LIG    1       22.487 -30.515  10.501  0.00  0.00    -0.131 S 
ATOM      4  C   LIG    1       23.708 -30.545  11.841  0.00  0.00    +0.169 C 
ATOM      5  N   LIG    1       24.971 -30.021  11.353  0.00  0.00    -0.249 N 
ATOM      6  C   LIG    1       24.925 -28.865  12.058  0.00  0.00    +0.244 C 
ATOM      7  O   LIG    1       25.625 -27.873  11.961  0.00  0.00    -0.273 OA
ATOM      8  CA  LIG    1       23.663 -29.343  12.839  0.00  0.00    +0.191 C 
ATOM      9  CA  LIG    1       25.577 -30.378  10.168  0.00  0.00    +0.125 C 
ENDROOT
BRANCH   8  10
ATOM     10  N   LIG    1       22.454 -28.463  12.799  0.00  0.00    -0.301 N 
ATOM     11  H   LIG    1       21.865 -28.460  11.971  0.00  0.00    +0.150 HD
ATOM     12  C   LIG    1       22.055 -27.729  13.901  0.00  0.00    +0.224 C 
ATOM     13  O   LIG    1       22.657 -27.781  14.969  0.00  0.00    -0.275 OA
BRANCH  12  14
ATOM     14  C   LIG    1       20.833 -26.842  13.687  0.00  0.00    +0.170 C 
BRANCH  14  15
ATOM     15  S   LIG    1       19.902 -26.637  15.249  0.00  0.00    -0.116 S 
BRANCH  15  16
ATOM     16  C   LIG    1       18.295 -27.276  14.772  0.00  0.00    +0.011 A 
ATOM     17  C   LIG    1       17.238 -26.402  14.507  0.00  0.00    +0.034 A 
ATOM     18  C   LIG    1       16.010 -26.937  14.145  0.00  0.00    +0.112 A 
ATOM     19  N   LIG    1       15.777 -28.260  14.013  0.00  0.00    -0.263 NA
ATOM     20  C   LIG    1       16.822 -29.082  14.239  0.00  0.00    +0.112 A 
ATOM     21  C   LIG    1       18.083 -28.644  14.612  0.00  0.00    +0.034 A 
ENDBRANCH  15  16
ENDBRANCH  14  15
ENDBRANCH  12  14
ENDBRANCH   8  10
BRANCH   9  22
ATOM     22  C   LIG    1       27.024 -29.978   9.920  0.00  0.00    +0.351 C 
ATOM     23  O   LIG    1       27.965 -30.445  10.547  0.00  0.00    -0.244 OA
BRANCH  22  24
ATOM     24  OXT LIG    1       27.244 -28.973   9.053  0.00  0.00    -0.476 OA
ATOM     25  HXT LIG    1       26.593 -28.237   9.047  0.00  0.00    +0.295 HD
ENDBRANCH  22  24
ENDBRANCH   9  22
BRANCH   1  26
ATOM     26  C   LIG    1       25.471 -31.591   7.924  0.00  0.00    +0.266 C 
BRANCH  26  27
ATOM     27  O   LIG    1       25.552 -30.517   6.973  0.00  0.00    -0.460 OA
BRANCH  27  29
ATOM     28  C   LIG    1       24.272 -28.768   6.104  0.00  0.00    +0.136 C 
ATOM     29  C   LIG    1       24.389 -30.245   6.316  0.00  0.00    +0.304 C 
ATOM     30  O   LIG    1       23.521 -31.058   6.036  0.00  0.00    -0.251 OA
ENDBRANCH  27  29
ENDBRANCH  26  27
ENDBRANCH   1  26
TORSDOF 9
ENDMDL
MODEL 9
REMARK VINA RESULT:      -6.4      1.751      2.334
REMARK  Name = *****
REMARK                            x       y       z     vdW  Elec       q    Type
REMARK                         _______ _______ _______ _____ _____    ______ ____
ROOT
ATOM      1  C   LIG    1       27.292 -20.544   7.294  0.00  0.00    +0.006 C 
ATOM      2  C   LIG    1       26.900 -21.314   8.543  0.00  0.00    +0.107 C 
ATOM      3  S   LIG    1       25.692 -22.630   8.224  0.00  0.00    -0.131 S 
ATOM      4  C   LIG    1       24.554 -21.509   7.368  0.00  0.00    +0.169 C 
ATOM      5  N   LIG    1       25.218 -20.940   6.210  0.00  0.00    -0.249 N 
ATOM      6  C   LIG    1       24.496 -21.619   5.286  0.00  0.00    +0.244 C 
ATOM      7  O   LIG    1       24.681 -21.726   4.087  0.00  0.00    -0.273 OA
ATOM      8  CA  LIG    1       23.541 -22.178   6.383  0.00  0.00    +0.191 C 
ATOM      9  CA  LIG    1       26.487 -20.402   6.204  0.00  0.00    +0.125 C 
ENDROOT
BRANCH   8  10
ATOM     10  N   LIG    1       23.383 -23.664   6.467  0.00  0.00    -0.301 N 
ATOM     11  H   LIG    1       22.535 -24.053   6.869  0.00  0.00    +0.150 HD
ATOM     12  C   LIG    1       24.314 -24.525   5.917  0.00  0.00    +0.224 C 
ATOM     13  O   LIG    1       25.302 -24.115   5.314  0.00  0.00    -0.275 OA
BRANCH  12  14
ATOM     14  C   LIG    1       24.038 -26.009   6.130  0.00  0.00    +0.170 C 
BRANCH  14  15
ATOM     15  S   LIG    1       25.586 -26.909   6.502  0.00  0.00    -0.116 S 
BRANCH  15  16
ATOM     16  C   LIG    1       24.955 -28.560   6.805  0.00  0.00    +0.011 A 
ATOM     17  C   LIG    1       24.547 -29.366   5.739  0.00  0.00    +0.034 A 
ATOM     18  C   LIG    1       24.061 -30.636   6.017  0.00  0.00    +0.112 A 
ATOM     19  N   LIG    1       23.975 -31.151   7.261  0.00  0.00    -0.263 NA
ATOM     20  C   LIG    1       24.406 -30.368   8.270  0.00  0.00    +0.112 A 
ATOM     21  C   LIG    1       24.901 -29.085   8.095  0.00  0.00    +0.034 A 
ENDBRANCH  15  16
ENDBRANCH  14  15
ENDBRANCH  12  14
ENDBRANCH   8  10
BRANCH   9  22
ATOM     22  C   LIG    1       26.945 -19.583   5.005  0.00  0.00    +0.351 C 
ATOM     23  O   LIG    1       28.058 -19.079   4.925  0.00  0.00    -0.244 OA
BRANCH  22  24
ATOM     24  OXT LIG    1       26.027 -19.308   4.062  0.00  0.00    -0.476 OA
ATOM     25  HXT LIG    1       26.082 -18.429   3.627  0.00  0.00    +0.295 HD
ENDBRANCH  22  24
ENDBRANCH   9  22
BRANCH   1  26
ATOM     26  C   LIG    1       28.708 -20.000   7.396  0.00  0.00    +0.266 C 
BRANCH  26  27
ATOM     27  O   LIG    1       29.514 -20.728   8.338  0.00  0.00    -0.460 OA
BRANCH  27  29
ATOM     28  C   LIG    1       31.109 -19.431   7.230  0.00  0.00    +0.136 C 
ATOM     29  C   LIG    1       30.831 -20.377   8.356  0.00  0.00    +0.304 C 
ATOM     30  O   LIG    1       31.682 -20.839   9.101  0.00  0.00    -0.251 OA
ENDBRANCH  27  29
ENDBRANCH  26  27
ENDBRANCH   1  26
TORSDOF 9
ENDMDL
