MODEL 1
REMARK VINA RESULT:      -7.9      0.000      0.000
REMARK  Name = *****
REMARK                            x       y       z     vdW  Elec       q    Type
REMARK                         _______ _______ _______ _____ _____    ______ ____
ROOT
ATOM      1  O   LIG    1       27.125 -21.985   7.212  0.00  0.00    -0.489 OA
ENDROOT
BRANCH   1   2
ATOM      2  C   LIG    1       25.750 -22.028   7.112  0.00  0.00    +0.130 C 
ATOM      3  C   LIG    1       25.130 -23.265   6.806  0.00  0.00    +0.041 C 
ATOM      4  C   LIG    1       23.730 -23.320   6.727  0.00  0.00    +0.050 C 
ATOM      5  N   LIG    1       23.387 -24.618   6.425  0.00  0.00    -0.360 NA
ATOM      6  H   LIG    1       22.430 -24.942   6.300  0.00  0.00    +0.165 HD
ATOM      7  C   LIG    1       24.499 -25.402   6.333  0.00  0.00    +0.083 C 
ATOM      8  C   LIG    1       22.913 -22.209   6.939  0.00  0.00    +0.026 C 
ATOM      9  C   LIG    1       23.535 -20.998   7.229  0.00  0.00    +0.006 C 
ATOM     10  C   LIG    1       25.592 -24.591   6.556  0.00  0.00    +0.031 C 
ATOM     11  C   LIG    1       24.926 -20.902   7.297  0.00  0.00    +0.046 C 
ENDBRANCH   1   2
BRANCH   1  12
ATOM     12  C   LIG    1       27.710 -20.711   6.879  0.00  0.00    +0.261 C 
BRANCH  12  13
ATOM     13  C   LIG    1       29.183 -20.709   7.296  0.00  0.00    +0.166 C 
BRANCH  13  14
ATOM     14  O   LIG    1       29.332 -21.492   8.495  0.00  0.00    -0.387 OA
ATOM     15  H   LIG    1       29.546 -20.857   9.206  0.00  0.00    +0.210 HD
ENDBRANCH  13  14
BRANCH  13  16
ATOM     16  C   LIG    1       29.700 -19.286   7.595  0.00  0.00    +0.115 C 
BRANCH  16  17
ATOM     17  N   LIG    1       29.550 -18.841   8.992  0.00  0.00    -0.311 NA
ATOM     18  H   LIG    1       28.571 -18.622   9.176  0.00  0.00    +0.122 HD
BRANCH  17  20
ATOM     19  C   LIG    1       30.410 -17.331  10.791  0.00  0.00    +0.024 C 
ATOM     20  C   LIG    1       30.379 -17.657   9.294  0.00  0.00    +0.048 C 
ATOM     21  C   LIG    1       31.813 -17.877   8.794  0.00  0.00    +0.024 C 
ENDBRANCH  17  20
ENDBRANCH  16  17
ENDBRANCH  13  16
ENDBRANCH  12  13
ENDBRANCH   1  12
TORSDOF 7
ENDMDL
MODEL 2
REMARK VINA RESULT:      -7.7      2.629      3.945
REMARK  Name = *****
REMARK                            x       y       z     vdW  Elec       q    Type
REMARK                         _______ _______ _______ _____ _____    ______ ____
ROOT
ATOM      1  O   LIG    1       26.874 -22.386   7.437  0.00  0.00    -0.489 OA
ENDROOT
BRANCH   1   2
ATOM      2  C   LIG    1       25.529 -22.624   7.247  0.00  0.00    +0.130 C 
ATOM      3  C   LIG    1       25.125 -23.889   6.752  0.00  0.00    +0.041 C 
ATOM      4  C   LIG    1       23.756 -24.145   6.581  0.00  0.00    +0.050 C 
ATOM      5  N   LIG    1       23.635 -25.428   6.100  0.00  0.00    -0.360 NA
ATOM      6  H   LIG    1       22.748 -25.874   5.877  0.00  0.00    +0.165 HD
ATOM      7  C   LIG    1       24.860 -26.016   5.980  0.00  0.00    +0.083 C 
ATOM      8  C   LIG    1       22.766 -23.208   6.879  0.00  0.00    +0.026 C 
ATOM      9  C   LIG    1       23.176 -21.966   7.355  0.00  0.00    +0.006 C 
ATOM     10  C   LIG    1       25.801 -25.085   6.369  0.00  0.00    +0.031 C 
ATOM     11  C   LIG    1       24.531 -21.670   7.520  0.00  0.00    +0.046 C 
ENDBRANCH   1   2
BRANCH   1  12
ATOM     12  C   LIG    1       27.205 -21.016   7.734  0.00  0.00    +0.261 C 
BRANCH  12  13
ATOM     13  C   LIG    1       28.159 -20.484   6.661  0.00  0.00    +0.166 C 
BRANCH  13  14
ATOM     14  O   LIG    1       29.104 -19.588   7.276  0.00  0.00    -0.387 OA
ATOM     15  H   LIG    1       29.750 -20.155   7.739  0.00  0.00    +0.210 HD
ENDBRANCH  13  14
BRANCH  13  16
ATOM     16  C   LIG    1       27.414 -19.701   5.560  0.00  0.00    +0.115 C 
BRANCH  16  17
ATOM     17  N   LIG    1       26.551 -20.513   4.683  0.00  0.00    -0.311 NA
ATOM     18  H   LIG    1       27.009 -20.643   3.780  0.00  0.00    +0.122 HD
BRANCH  17  20
ATOM     19  C   LIG    1       25.290 -18.683   3.535  0.00  0.00    +0.024 C 
ATOM     20  C   LIG    1       25.227 -19.894   4.472  0.00  0.00    +0.048 C 
ATOM     21  C   LIG    1       24.248 -20.928   3.899  0.00  0.00    +0.024 C 
ENDBRANCH  17  20
ENDBRANCH  16  17
ENDBRANCH  13  16
ENDBRANCH  12  13
ENDBRANCH   1  12
TORSDOF 7
ENDMDL
MODEL 3
REMARK VINA RESULT:      -7.7      1.792      2.168
REMARK  Name = *****
REMARK                            x       y       z     vdW  Elec       q    Type
REMARK                         _______ _______ _______ _____ _____    ______ ____
ROOT
ATOM      1  O   LIG    1       26.667 -22.011   6.956  0.00  0.00    -0.489 OA
ENDROOT
BRANCH   1   2
ATOM      2  C   LIG    1       25.370 -22.473   6.883  0.00  0.00    +0.130 C 
ATOM      3  C   LIG    1       25.152 -23.855   6.656  0.00  0.00    +0.041 C 
ATOM      4  C   LIG    1       23.835 -24.334   6.605  0.00  0.00    +0.050 C 
ATOM      5  N   LIG    1       23.900 -25.689   6.380  0.00  0.00    -0.360 NA
ATOM      6  H   LIG    1       23.086 -26.294   6.289  0.00  0.00    +0.165 HD
ATOM      7  C   LIG    1       25.197 -26.106   6.310  0.00  0.00    +0.083 C 
ATOM      8  C   LIG    1       22.720 -23.511   6.772  0.00  0.00    +0.026 C 
ATOM      9  C   LIG    1       22.948 -22.154   6.985  0.00  0.00    +0.006 C 
ATOM     10  C   LIG    1       25.994 -24.991   6.469  0.00  0.00    +0.031 C 
ATOM     11  C   LIG    1       24.245 -21.639   7.023  0.00  0.00    +0.046 C 
ENDBRANCH   1   2
BRANCH   1  12
ATOM     12  C   LIG    1       26.787 -20.599   7.221  0.00  0.00    +0.261 C 
BRANCH  12  13
ATOM     13  C   LIG    1       27.693 -19.964   6.162  0.00  0.00    +0.166 C 
BRANCH  13  14
ATOM     14  O   LIG    1       27.225 -20.344   4.855  0.00  0.00    -0.387 OA
ATOM     15  H   LIG    1       27.621 -19.704   4.231  0.00  0.00    +0.210 HD
ENDBRANCH  13  14
BRANCH  13  16
ATOM     16  C   LIG    1       29.157 -20.435   6.294  0.00  0.00    +0.115 C 
BRANCH  16  17
ATOM     17  N   LIG    1       29.432 -21.328   7.434  0.00  0.00    -0.311 NA
ATOM     18  H   LIG    1       28.561 -21.531   7.926  0.00  0.00    +0.122 HD
BRANCH  17  20
ATOM     19  C   LIG    1       31.336 -21.797   8.987  0.00  0.00    +0.024 C 
ATOM     20  C   LIG    1       30.401 -20.743   8.382  0.00  0.00    +0.048 C 
ATOM     21  C   LIG    1       31.239 -19.666   7.680  0.00  0.00    +0.024 C 
ENDBRANCH  17  20
ENDBRANCH  16  17
ENDBRANCH  13  16
ENDBRANCH  12  13
ENDBRANCH   1  12
TORSDOF 7
ENDMDL
MODEL 4
REMARK VINA RESULT:      -7.7      2.371      2.918
REMARK  Name = *****
REMARK                            x       y       z     vdW  Elec       q    Type
REMARK                         _______ _______ _______ _____ _____    ______ ____
ROOT
ATOM      1  O   LIG    1       28.155 -20.039   5.875  0.00  0.00    -0.489 OA
ENDROOT
BRANCH   1   2
ATOM      2  C   LIG    1       26.942 -20.332   6.462  0.00  0.00    +0.130 C 
ATOM      3  C   LIG    1       25.785 -20.378   5.645  0.00  0.00    +0.041 C 
ATOM      4  C   LIG    1       24.553 -20.700   6.234  0.00  0.00    +0.050 C 
ATOM      5  N   LIG    1       23.605 -20.681   5.237  0.00  0.00    -0.360 NA
ATOM      6  H   LIG    1       22.616 -20.871   5.384  0.00  0.00    +0.165 HD
ATOM      7  C   LIG    1       24.176 -20.388   4.033  0.00  0.00    +0.083 C 
ATOM      8  C   LIG    1       24.411 -20.982   7.593  0.00  0.00    +0.026 C 
ATOM      9  C   LIG    1       25.553 -20.924   8.386  0.00  0.00    +0.006 C 
ATOM     10  C   LIG    1       25.522 -20.188   4.257  0.00  0.00    +0.031 C 
ATOM     11  C   LIG    1       26.793 -20.589   7.838  0.00  0.00    +0.046 C 
ENDBRANCH   1   2
BRANCH   1  12
ATOM     12  C   LIG    1       29.302 -20.283   6.713  0.00  0.00    +0.261 C 
BRANCH  12  13
ATOM     13  C   LIG    1       30.078 -18.975   6.897  0.00  0.00    +0.166 C 
BRANCH  13  14
ATOM     14  O   LIG    1       30.098 -18.262   5.646  0.00  0.00    -0.387 OA
ATOM     15  H   LIG    1       29.192 -17.921   5.516  0.00  0.00    +0.210 HD
ENDBRANCH  13  14
BRANCH  13  16
ATOM     16  C   LIG    1       31.540 -19.224   7.322  0.00  0.00    +0.115 C 
BRANCH  16  17
ATOM     17  N   LIG    1       31.866 -18.850   8.710  0.00  0.00    -0.311 NA
ATOM     18  H   LIG    1       31.537 -19.578   9.345  0.00  0.00    +0.122 HD
BRANCH  17  20
ATOM     19  C   LIG    1       30.388 -17.673  10.349  0.00  0.00    +0.024 C 
ATOM     20  C   LIG    1       31.264 -17.558   9.097  0.00  0.00    +0.048 C 
ATOM     21  C   LIG    1       32.365 -16.518   9.343  0.00  0.00    +0.024 C 
ENDBRANCH  17  20
ENDBRANCH  16  17
ENDBRANCH  13  16
ENDBRANCH  12  13
ENDBRANCH   1  12
TORSDOF 7
ENDMDL
MODEL 5
REMARK VINA RESULT:      -7.4      1.929      2.483
REMARK  Name = *****
REMARK                            x       y       z     vdW  Elec       q    Type
REMARK                         _______ _______ _______ _____ _____    ______ ____
ROOT
ATOM      1  O   LIG    1       26.942 -20.248   7.237  0.00  0.00    -0.489 OA
ENDROOT
BRANCH   1   2
ATOM      2  C   LIG    1       25.667 -20.688   6.947  0.00  0.00    +0.130 C 
ATOM      3  C   LIG    1       25.161 -20.490   5.638  0.00  0.00    +0.041 C 
ATOM      4  C   LIG    1       23.875 -20.958   5.331  0.00  0.00    +0.050 C 
ATOM      5  N   LIG    1       23.629 -20.648   4.013  0.00  0.00    -0.360 NA
ATOM      6  H   LIG    1       22.762 -20.865   3.526  0.00  0.00    +0.165 HD
ATOM      7  C   LIG    1       24.708 -20.027   3.454  0.00  0.00    +0.083 C 
ATOM      8  C   LIG    1       23.064 -21.615   6.257  0.00  0.00    +0.026 C 
ATOM      9  C   LIG    1       23.569 -21.794   7.542  0.00  0.00    +0.006 C 
ATOM     10  C   LIG    1       25.668 -19.909   4.438  0.00  0.00    +0.031 C 
ATOM     11  C   LIG    1       24.838 -21.325   7.888  0.00  0.00    +0.046 C 
ENDBRANCH   1   2
BRANCH   1  12
ATOM     12  C   LIG    1       27.854 -21.284   7.650  0.00  0.00    +0.261 C 
BRANCH  12  13
ATOM     13  C   LIG    1       29.281 -20.879   7.271  0.00  0.00    +0.166 C 
BRANCH  13  14
ATOM     14  O   LIG    1       30.211 -21.608   8.094  0.00  0.00    -0.387 OA
ATOM     15  H   LIG    1       31.062 -21.135   8.022  0.00  0.00    +0.210 HD
ENDBRANCH  13  14
BRANCH  13  16
ATOM     16  C   LIG    1       29.535 -19.373   7.494  0.00  0.00    +0.115 C 
BRANCH  16  17
ATOM     17  N   LIG    1       29.417 -18.913   8.889  0.00  0.00    -0.311 NA
ATOM     18  H   LIG    1       28.448 -18.656   9.082  0.00  0.00    +0.122 HD
BRANCH  17  20
ATOM     19  C   LIG    1       30.311 -17.393  10.662  0.00  0.00    +0.024 C 
ATOM     20  C   LIG    1       30.293 -17.760   9.174  0.00  0.00    +0.048 C 
ATOM     21  C   LIG    1       31.725 -18.059   8.709  0.00  0.00    +0.024 C 
ENDBRANCH  17  20
ENDBRANCH  16  17
ENDBRANCH  13  16
ENDBRANCH  12  13
ENDBRANCH   1  12
TORSDOF 7
ENDMDL
MODEL 6
REMARK VINA RESULT:      -7.2      2.535      6.624
REMARK  Name = *****
REMARK                            x       y       z     vdW  Elec       q    Type
REMARK                         _______ _______ _______ _____ _____    ______ ____
ROOT
ATOM      1  O   LIG    1       27.817 -21.667   7.046  0.00  0.00    -0.489 OA
ENDROOT
BRANCH   1   2
ATOM      2  C   LIG    1       28.820 -20.720   7.080  0.00  0.00    +0.130 C 
ATOM      3  C   LIG    1       29.913 -20.918   7.959  0.00  0.00    +0.041 C 
ATOM      4  C   LIG    1       30.947 -19.971   7.978  0.00  0.00    +0.050 C 
ATOM      5  N   LIG    1       31.875 -20.395   8.901  0.00  0.00    -0.360 NA
ATOM      6  H   LIG    1       32.730 -19.891   9.127  0.00  0.00    +0.165 HD
ATOM      7  C   LIG    1       31.497 -21.583   9.455  0.00  0.00    +0.083 C 
ATOM      8  C   LIG    1       30.953 -18.836   7.167  0.00  0.00    +0.026 C 
ATOM      9  C   LIG    1       29.868 -18.648   6.315  0.00  0.00    +0.006 C 
ATOM     10  C   LIG    1       30.283 -21.927   8.896  0.00  0.00    +0.031 C 
ATOM     11  C   LIG    1       28.812 -19.560   6.282  0.00  0.00    +0.046 C 
ENDBRANCH   1   2
BRANCH   1  12
ATOM     12  C   LIG    1       26.764 -21.460   8.007  0.00  0.00    +0.261 C 
BRANCH  12  13
ATOM     13  C   LIG    1       25.597 -20.737   7.328  0.00  0.00    +0.166 C 
BRANCH  13  14
ATOM     14  O   LIG    1       24.454 -20.767   8.203  0.00  0.00    -0.387 OA
ATOM     15  H   LIG    1       24.699 -21.353   8.945  0.00  0.00    +0.210 HD
ENDBRANCH  13  14
BRANCH  13  16
ATOM     16  C   LIG    1       25.193 -21.410   6.000  0.00  0.00    +0.115 C 
BRANCH  16  17
ATOM     17  N   LIG    1       25.776 -20.811   4.786  0.00  0.00    -0.311 NA
ATOM     18  H   LIG    1       26.459 -20.100   5.051  0.00  0.00    +0.122 HD
BRANCH  17  20
ATOM     19  C   LIG    1       23.368 -20.169   4.574  0.00  0.00    +0.024 C 
ATOM     20  C   LIG    1       24.751 -20.201   3.915  0.00  0.00    +0.048 C 
ATOM     21  C   LIG    1       25.165 -18.772   3.537  0.00  0.00    +0.024 C 
ENDBRANCH  17  20
ENDBRANCH  16  17
ENDBRANCH  13  16
ENDBRANCH  12  13
ENDBRANCH   1  12
TORSDOF 7
ENDMDL
MODEL 7
REMARK VINA RESULT:      -7.2      3.359      7.803
REMARK  Name = *****
REMARK                            x       y       z     vdW  Elec       q    Type
REMARK                         _______ _______ _______ _____ _____    ______ ____
ROOT
ATOM      1  O   LIG    1       25.998 -24.816   6.275  0.00  0.00    -0.489 OA
ENDROOT
BRANCH   1   2
ATOM      2  C   LIG    1       25.061 -23.884   6.669  0.00  0.00    +0.130 C 
ATOM      3  C   LIG    1       25.509 -22.679   7.265  0.00  0.00    +0.041 C 
ATOM      4  C   LIG    1       24.562 -21.717   7.645  0.00  0.00    +0.050 C 
ATOM      5  N   LIG    1       25.249 -20.656   8.186  0.00  0.00    -0.360 NA
ATOM      6  H   LIG    1       24.807 -19.816   8.554  0.00  0.00    +0.165 HD
ATOM      7  C   LIG    1       26.594 -20.881   8.147  0.00  0.00    +0.083 C 
ATOM      8  C   LIG    1       23.189 -21.889   7.460  0.00  0.00    +0.026 C 
ATOM      9  C   LIG    1       22.761 -23.081   6.883  0.00  0.00    +0.006 C 
ATOM     10  C   LIG    1       26.784 -22.129   7.590  0.00  0.00    +0.031 C 
ATOM     11  C   LIG    1       23.675 -24.069   6.510  0.00  0.00    +0.046 C 
ENDBRANCH   1   2
BRANCH   1  12
ATOM     12  C   LIG    1       25.556 -25.707   5.231  0.00  0.00    +0.261 C 
BRANCH  12  13
ATOM     13  C   LIG    1       26.081 -27.117   5.517  0.00  0.00    +0.166 C 
BRANCH  13  14
ATOM     14  O   LIG    1       27.399 -27.250   4.955  0.00  0.00    -0.387 OA
ATOM     15  H   LIG    1       27.777 -26.349   4.939  0.00  0.00    +0.210 HD
ENDBRANCH  13  14
BRANCH  13  16
ATOM     16  C   LIG    1       25.187 -28.206   4.888  0.00  0.00    +0.115 C 
BRANCH  16  17
ATOM     17  N   LIG    1       23.998 -28.579   5.675  0.00  0.00    -0.311 NA
ATOM     18  H   LIG    1       23.806 -27.853   6.366  0.00  0.00    +0.122 HD
BRANCH  17  20
ATOM     19  C   LIG    1       25.293 -30.717   5.757  0.00  0.00    +0.024 C 
ATOM     20  C   LIG    1       24.166 -29.874   6.364  0.00  0.00    +0.048 C 
ATOM     21  C   LIG    1       24.452 -29.645   7.854  0.00  0.00    +0.024 C 
ENDBRANCH  17  20
ENDBRANCH  16  17
ENDBRANCH  13  16
ENDBRANCH  12  13
ENDBRANCH   1  12
TORSDOF 7
ENDMDL
MODEL 8
REMARK VINA RESULT:      -7.2      1.912      7.052
REMARK  Name = *****
REMARK                            x       y       z     vdW  Elec       q    Type
REMARK                         _______ _______ _______ _____ _____    ______ ____
ROOT
ATOM      1  O   LIG    1       27.463 -22.000   7.233  0.00  0.00    -0.489 OA
ENDROOT
BRANCH   1   2
ATOM      2  C   LIG    1       28.302 -20.948   6.931  0.00  0.00    +0.130 C 
ATOM      3  C   LIG    1       29.528 -20.833   7.632  0.00  0.00    +0.041 C 
ATOM      4  C   LIG    1       30.396 -19.779   7.311  0.00  0.00    +0.050 C 
ATOM      5  N   LIG    1       31.501 -19.895   8.122  0.00  0.00    -0.360 NA
ATOM      6  H   LIG    1       32.291 -19.255   8.108  0.00  0.00    +0.165 HD
ATOM      7  C   LIG    1       31.393 -20.989   8.930  0.00  0.00    +0.083 C 
ATOM      8  C   LIG    1       30.110 -18.834   6.325  0.00  0.00    +0.026 C 
ATOM      9  C   LIG    1       28.899 -18.953   5.650  0.00  0.00    +0.006 C 
ATOM     10  C   LIG    1       30.179 -21.584   8.655  0.00  0.00    +0.031 C 
ATOM     11  C   LIG    1       28.002 -19.978   5.957  0.00  0.00    +0.046 C 
ENDBRANCH   1   2
BRANCH   1  12
ATOM     12  C   LIG    1       26.335 -21.650   8.058  0.00  0.00    +0.261 C 
BRANCH  12  13
ATOM     13  C   LIG    1       25.041 -21.959   7.301  0.00  0.00    +0.166 C 
BRANCH  13  14
ATOM     14  O   LIG    1       23.917 -21.610   8.129  0.00  0.00    -0.387 OA
ATOM     15  H   LIG    1       23.131 -21.655   7.549  0.00  0.00    +0.210 HD
ENDBRANCH  13  14
BRANCH  13  16
ATOM     16  C   LIG    1       24.920 -23.457   6.948  0.00  0.00    +0.115 C 
BRANCH  16  17
ATOM     17  N   LIG    1       25.371 -23.825   5.594  0.00  0.00    -0.311 NA
ATOM     18  H   LIG    1       24.788 -23.354   4.901  0.00  0.00    +0.122 HD
BRANCH  17  20
ATOM     19  C   LIG    1       26.412 -26.034   6.135  0.00  0.00    +0.024 C 
ATOM     20  C   LIG    1       25.321 -25.283   5.364  0.00  0.00    +0.048 C 
ATOM     21  C   LIG    1       23.946 -25.832   5.768  0.00  0.00    +0.024 C 
ENDBRANCH  17  20
ENDBRANCH  16  17
ENDBRANCH  13  16
ENDBRANCH  12  13
ENDBRANCH   1  12
TORSDOF 7
ENDMDL
MODEL 9
REMARK VINA RESULT:      -7.2      1.902      7.027
REMARK  Name = *****
REMARK                            x       y       z     vdW  Elec       q    Type
REMARK                         _______ _______ _______ _____ _____    ______ ____
ROOT
ATOM      1  O   LIG    1       27.728 -21.925   7.450  0.00  0.00    -0.489 OA
ENDROOT
BRANCH   1   2
ATOM      2  C   LIG    1       28.869 -21.150   7.494  0.00  0.00    +0.130 C 
ATOM      3  C   LIG    1       28.976 -20.047   6.611  0.00  0.00    +0.041 C 
ATOM      4  C   LIG    1       30.123 -19.242   6.669  0.00  0.00    +0.050 C 
ATOM      5  N   LIG    1       29.977 -18.252   5.724  0.00  0.00    -0.360 NA
ATOM      6  H   LIG    1       30.669 -17.528   5.543  0.00  0.00    +0.165 HD
ATOM      7  C   LIG    1       28.780 -18.370   5.082  0.00  0.00    +0.083 C 
ATOM      8  C   LIG    1       31.170 -19.474   7.562  0.00  0.00    +0.026 C 
ATOM      9  C   LIG    1       31.056 -20.566   8.417  0.00  0.00    +0.006 C 
ATOM     10  C   LIG    1       28.142 -19.477   5.604  0.00  0.00    +0.031 C 
ATOM     11  C   LIG    1       29.938 -21.401   8.374  0.00  0.00    +0.046 C 
ENDBRANCH   1   2
BRANCH   1  12
ATOM     12  C   LIG    1       26.648 -21.450   8.277  0.00  0.00    +0.261 C 
BRANCH  12  13
ATOM     13  C   LIG    1       25.390 -21.290   7.419  0.00  0.00    +0.166 C 
BRANCH  13  14
ATOM     14  O   LIG    1       24.373 -20.630   8.195  0.00  0.00    -0.387 OA
ATOM     15  H   LIG    1       24.048 -19.894   7.641  0.00  0.00    +0.210 HD
ENDBRANCH  13  14
BRANCH  13  16
ATOM     16  C   LIG    1       24.824 -22.651   6.961  0.00  0.00    +0.115 C 
BRANCH  16  17
ATOM     17  N   LIG    1       25.596 -23.333   5.907  0.00  0.00    -0.311 NA
ATOM     18  H   LIG    1       25.541 -22.794   5.042  0.00  0.00    +0.122 HD
BRANCH  17  20
ATOM     19  C   LIG    1       26.124 -25.770   6.097  0.00  0.00    +0.024 C 
ATOM     20  C   LIG    1       25.113 -24.706   5.658  0.00  0.00    +0.048 C 
ATOM     21  C   LIG    1       23.784 -24.937   6.390  0.00  0.00    +0.024 C 
ENDBRANCH  17  20
ENDBRANCH  16  17
ENDBRANCH  13  16
ENDBRANCH  12  13
ENDBRANCH   1  12
TORSDOF 7
ENDMDL
