MODEL 1
REMARK VINA RESULT:      -9.9      0.000      0.000
REMARK  Name = *****
REMARK                            x       y       z     vdW  Elec       q    Type
REMARK                         _______ _______ _______ _____ _____    ______ ____
ROOT
ATOM      1  N   LIG    1       26.308 -22.250   6.498  0.00  0.00    -0.212 N 
ATOM      2  C   LIG    1       25.035 -22.139   5.930  0.00  0.00    +0.168 A 
ATOM      3  N   LIG    1       24.485 -23.349   5.948  0.00  0.00    -0.206 NA
ATOM      4  C   LIG    1       25.475 -24.199   6.373  0.00  0.00    +0.186 A 
ATOM      5  N   LIG    1       26.622 -23.568   6.656  0.00  0.00    -0.144 NA
ENDROOT
BRANCH   1   9
ATOM      6  C   LIG    1       29.111 -19.472   8.051  0.00  0.00    +0.059 A 
ATOM      7  C   LIG    1       29.395 -20.187   6.883  0.00  0.00    +0.017 A 
ATOM      8  C   LIG    1       28.456 -21.094   6.382  0.00  0.00    +0.028 A 
ATOM      9  C   LIG    1       27.222 -21.292   7.034  0.00  0.00    +0.068 A 
ATOM     10  C   LIG    1       26.953 -20.585   8.210  0.00  0.00    +0.028 A 
ATOM     11  C   LIG    1       27.878 -19.649   8.691  0.00  0.00    +0.017 A 
BRANCH   6  13
ATOM     12  O   LIG    1       30.080 -18.252   9.857  0.00  0.00    -0.245 OA
ATOM     13  C   LIG    1       30.089 -18.543   8.664  0.00  0.00    +0.337 C 
BRANCH  13  14
ATOM     14  O   LIG    1       31.034 -18.105   7.807  0.00  0.00    -0.477 OA
ATOM     15  H   LIG    1       31.727 -17.551   8.214  0.00  0.00    +0.295 HD
ENDBRANCH  13  14
ENDBRANCH   6  13
ENDBRANCH   1   9
BRANCH   2  16
ATOM     16  C   LIG    1       24.356 -20.957   5.344  0.00  0.00    +0.061 A 
ATOM     17  C   LIG    1       24.898 -20.124   4.352  0.00  0.00    +0.128 A 
ATOM     18  C   LIG    1       24.173 -19.049   3.811  0.00  0.00    +0.046 A 
ATOM     19  C   LIG    1       22.855 -18.828   4.201  0.00  0.00    +0.004 A 
ATOM     20  C   LIG    1       22.277 -19.656   5.156  0.00  0.00    +0.001 A 
ATOM     21  C   LIG    1       23.027 -20.692   5.733  0.00  0.00    +0.015 A 
BRANCH  17  22
ATOM     22  O   LIG    1       26.151 -20.365   3.858  0.00  0.00    -0.506 OA
ATOM     23  H   LIG    1       26.804 -20.001   4.481  0.00  0.00    +0.292 HD
ENDBRANCH  17  22
ENDBRANCH   2  16
BRANCH   4  24
ATOM     24  C   LIG    1       25.303 -25.646   6.568  0.00  0.00    +0.062 A 
ATOM     25  C   LIG    1       24.289 -26.395   5.952  0.00  0.00    +0.128 A 
ATOM     26  C   LIG    1       24.180 -27.778   6.160  0.00  0.00    +0.046 A 
ATOM     27  C   LIG    1       25.081 -28.439   6.993  0.00  0.00    +0.004 A 
ATOM     28  C   LIG    1       26.092 -27.718   7.620  0.00  0.00    +0.001 A 
ATOM     29  C   LIG    1       26.201 -26.338   7.408  0.00  0.00    +0.015 A 
BRANCH  25  30
ATOM     30  O   LIG    1       23.394 -25.799   5.104  0.00  0.00    -0.506 OA
ATOM     31  H   LIG    1       22.507 -26.150   5.276  0.00  0.00    +0.292 HD
ENDBRANCH  25  30
ENDBRANCH   4  24
TORSDOF 7
ENDMDL
MODEL 2
REMARK VINA RESULT:      -9.5      1.690      6.823
REMARK  Name = *****
REMARK                            x       y       z     vdW  Elec       q    Type
REMARK                         _______ _______ _______ _____ _____    ______ ____
ROOT
ATOM      1  N   LIG    1       26.322 -22.330   6.763  0.00  0.00    -0.212 N 
ATOM      2  C   LIG    1       25.997 -21.088   6.206  0.00  0.00    +0.168 A 
ATOM      3  N   LIG    1       27.047 -20.291   6.376  0.00  0.00    -0.206 NA
ATOM      4  C   LIG    1       27.923 -20.995   7.163  0.00  0.00    +0.186 A 
ATOM      5  N   LIG    1       27.482 -22.221   7.471  0.00  0.00    -0.144 NA
ENDROOT
BRANCH   1   9
ATOM      6  C   LIG    1       24.762 -26.243   6.267  0.00  0.00    +0.059 A 
ATOM      7  C   LIG    1       26.143 -26.035   6.347  0.00  0.00    +0.017 A 
ATOM      8  C   LIG    1       26.639 -24.739   6.517  0.00  0.00    +0.028 A 
ATOM      9  C   LIG    1       25.765 -23.638   6.618  0.00  0.00    +0.068 A 
ATOM     10  C   LIG    1       24.386 -23.852   6.521  0.00  0.00    +0.028 A 
ATOM     11  C   LIG    1       23.888 -25.154   6.388  0.00  0.00    +0.017 A 
BRANCH   6  13
ATOM     12  O   LIG    1       24.017 -28.413   6.917  0.00  0.00    -0.245 OA
ATOM     13  C   LIG    1       24.179 -27.583   6.026  0.00  0.00    +0.337 C 
BRANCH  13  14
ATOM     14  O   LIG    1       23.775 -27.780   4.755  0.00  0.00    -0.477 OA
ATOM     15  H   LIG    1       23.960 -27.036   4.150  0.00  0.00    +0.295 HD
ENDBRANCH  13  14
ENDBRANCH   6  13
ENDBRANCH   1   9
BRANCH   2  16
ATOM     16  C   LIG    1       24.736 -20.632   5.571  0.00  0.00    +0.061 A 
ATOM     17  C   LIG    1       23.511 -20.467   6.238  0.00  0.00    +0.128 A 
ATOM     18  C   LIG    1       22.369 -19.984   5.577  0.00  0.00    +0.046 A 
ATOM     19  C   LIG    1       22.447 -19.584   4.246  0.00  0.00    +0.004 A 
ATOM     20  C   LIG    1       23.655 -19.703   3.567  0.00  0.00    +0.001 A 
ATOM     21  C   LIG    1       24.776 -20.240   4.217  0.00  0.00    +0.015 A 
BRANCH  17  22
ATOM     22  O   LIG    1       23.410 -20.744   7.573  0.00  0.00    -0.506 OA
ATOM     23  H   LIG    1       23.798 -21.621   7.737  0.00  0.00    +0.292 HD
ENDBRANCH  17  22
ENDBRANCH   2  16
BRANCH   4  24
ATOM     24  C   LIG    1       29.243 -20.502   7.585  0.00  0.00    +0.062 A 
ATOM     25  C   LIG    1       29.831 -19.333   7.079  0.00  0.00    +0.128 A 
ATOM     26  C   LIG    1       31.087 -18.899   7.529  0.00  0.00    +0.046 A 
ATOM     27  C   LIG    1       31.782 -19.631   8.491  0.00  0.00    +0.004 A 
ATOM     28  C   LIG    1       31.223 -20.796   9.004  0.00  0.00    +0.001 A 
ATOM     29  C   LIG    1       29.967 -21.225   8.556  0.00  0.00    +0.015 A 
BRANCH  25  30
ATOM     30  O   LIG    1       29.179 -18.565   6.152  0.00  0.00    -0.506 OA
ATOM     31  H   LIG    1       29.601 -18.680   5.287  0.00  0.00    +0.292 HD
ENDBRANCH  25  30
ENDBRANCH   4  24
TORSDOF 7
ENDMDL
MODEL 3
REMARK VINA RESULT:      -9.4      1.122      1.640
REMARK  Name = *****
REMARK                            x       y       z     vdW  Elec       q    Type
REMARK                         _______ _______ _______ _____ _____    ______ ____
ROOT
ATOM      1  N   LIG    1       26.247 -22.575   6.394  0.00  0.00    -0.212 N 
ATOM      2  C   LIG    1       24.915 -22.485   5.976  0.00  0.00    +0.168 A 
ATOM      3  N   LIG    1       24.383 -23.699   6.083  0.00  0.00    -0.206 NA
ATOM      4  C   LIG    1       25.424 -24.532   6.407  0.00  0.00    +0.186 A 
ATOM      5  N   LIG    1       26.590 -23.887   6.542  0.00  0.00    -0.144 NA
ENDROOT
BRANCH   1   9
ATOM      6  C   LIG    1       29.067 -19.694   7.713  0.00  0.00    +0.059 A 
ATOM      7  C   LIG    1       28.769 -20.808   8.505  0.00  0.00    +0.017 A 
ATOM      8  C   LIG    1       27.841 -21.751   8.051  0.00  0.00    +0.028 A 
ATOM      9  C   LIG    1       27.208 -21.599   6.801  0.00  0.00    +0.068 A 
ATOM     10  C   LIG    1       27.500 -20.475   6.022  0.00  0.00    +0.028 A 
ATOM     11  C   LIG    1       28.457 -19.549   6.460  0.00  0.00    +0.017 A 
BRANCH   6  13
ATOM     12  O   LIG    1       30.807 -18.089   7.420  0.00  0.00    -0.245 OA
ATOM     13  C   LIG    1       29.994 -18.630   8.165  0.00  0.00    +0.337 C 
BRANCH  13  14
ATOM     14  O   LIG    1       29.812 -18.261   9.449  0.00  0.00    -0.477 OA
ATOM     15  H   LIG    1       30.605 -18.345  10.012  0.00  0.00    +0.295 HD
ENDBRANCH  13  14
ENDBRANCH   6  13
ENDBRANCH   1   9
BRANCH   2  16
ATOM     16  C   LIG    1       24.161 -21.322   5.449  0.00  0.00    +0.061 A 
ATOM     17  C   LIG    1       23.275 -20.529   6.196  0.00  0.00    +0.128 A 
ATOM     18  C   LIG    1       22.633 -19.411   5.638  0.00  0.00    +0.046 A 
ATOM     19  C   LIG    1       22.920 -19.018   4.333  0.00  0.00    +0.004 A 
ATOM     20  C   LIG    1       23.819 -19.762   3.578  0.00  0.00    +0.001 A 
ATOM     21  C   LIG    1       24.413 -20.910   4.124  0.00  0.00    +0.015 A 
BRANCH  17  22
ATOM     22  O   LIG    1       23.041 -20.810   7.514  0.00  0.00    -0.506 OA
ATOM     23  H   LIG    1       23.896 -20.923   7.963  0.00  0.00    +0.292 HD
ENDBRANCH  17  22
ENDBRANCH   2  16
BRANCH   4  24
ATOM     24  C   LIG    1       25.290 -25.976   6.651  0.00  0.00    +0.062 A 
ATOM     25  C   LIG    1       24.340 -26.784   6.008  0.00  0.00    +0.128 A 
ATOM     26  C   LIG    1       24.266 -28.162   6.266  0.00  0.00    +0.046 A 
ATOM     27  C   LIG    1       25.138 -28.756   7.176  0.00  0.00    +0.004 A 
ATOM     28  C   LIG    1       26.084 -27.976   7.831  0.00  0.00    +0.001 A 
ATOM     29  C   LIG    1       26.159 -26.602   7.569  0.00  0.00    +0.015 A 
BRANCH  25  30
ATOM     30  O   LIG    1       23.478 -26.254   5.086  0.00  0.00    -0.506 OA
ATOM     31  H   LIG    1       22.801 -25.732   5.544  0.00  0.00    +0.292 HD
ENDBRANCH  25  30
ENDBRANCH   4  24
TORSDOF 7
ENDMDL
MODEL 4
REMARK VINA RESULT:      -9.3      1.847      6.810
REMARK  Name = *****
REMARK                            x       y       z     vdW  Elec       q    Type
REMARK                         _______ _______ _______ _____ _____    ______ ____
ROOT
ATOM      1  N   LIG    1       26.284 -22.076   6.909  0.00  0.00    -0.212 N 
ATOM      2  C   LIG    1       25.974 -20.847   6.317  0.00  0.00    +0.168 A 
ATOM      3  N   LIG    1       26.991 -20.024   6.557  0.00  0.00    -0.206 NA
ATOM      4  C   LIG    1       27.820 -20.701   7.414  0.00  0.00    +0.186 A 
ATOM      5  N   LIG    1       27.385 -21.935   7.701  0.00  0.00    -0.144 NA
ENDROOT
BRANCH   1   9
ATOM      6  C   LIG    1       24.849 -26.025   6.331  0.00  0.00    +0.059 A 
ATOM      7  C   LIG    1       26.221 -25.780   6.452  0.00  0.00    +0.017 A 
ATOM      8  C   LIG    1       26.675 -24.472   6.648  0.00  0.00    +0.028 A 
ATOM      9  C   LIG    1       25.768 -23.397   6.735  0.00  0.00    +0.068 A 
ATOM     10  C   LIG    1       24.399 -23.648   6.598  0.00  0.00    +0.028 A 
ATOM     11  C   LIG    1       23.941 -24.963   6.439  0.00  0.00    +0.017 A 
BRANCH   6  13
ATOM     12  O   LIG    1       24.321 -28.282   6.893  0.00  0.00    -0.245 OA
ATOM     13  C   LIG    1       24.310 -27.379   6.061  0.00  0.00    +0.337 C 
BRANCH  13  14
ATOM     14  O   LIG    1       23.742 -27.505   4.845  0.00  0.00    -0.477 OA
ATOM     15  H   LIG    1       24.247 -27.097   4.116  0.00  0.00    +0.295 HD
ENDBRANCH  13  14
ENDBRANCH   6  13
ENDBRANCH   1   9
BRANCH   2  16
ATOM     16  C   LIG    1       24.755 -20.424   5.585  0.00  0.00    +0.061 A 
ATOM     17  C   LIG    1       23.475 -20.307   6.151  0.00  0.00    +0.128 A 
ATOM     18  C   LIG    1       22.375 -19.854   5.403  0.00  0.00    +0.046 A 
ATOM     19  C   LIG    1       22.548 -19.436   4.086  0.00  0.00    +0.004 A 
ATOM     20  C   LIG    1       23.810 -19.507   3.508  0.00  0.00    +0.001 A 
ATOM     21  C   LIG    1       24.892 -20.015   4.243  0.00  0.00    +0.015 A 
BRANCH  17  22
ATOM     22  O   LIG    1       23.274 -20.604   7.471  0.00  0.00    -0.506 OA
ATOM     23  H   LIG    1       23.472 -19.812   7.999  0.00  0.00    +0.292 HD
ENDBRANCH  17  22
ENDBRANCH   2  16
BRANCH   4  24
ATOM     24  C   LIG    1       29.094 -20.176   7.929  0.00  0.00    +0.062 A 
ATOM     25  C   LIG    1       30.196 -20.986   8.240  0.00  0.00    +0.128 A 
ATOM     26  C   LIG    1       31.395 -20.430   8.713  0.00  0.00    +0.046 A 
ATOM     27  C   LIG    1       31.511 -19.052   8.888  0.00  0.00    +0.004 A 
ATOM     28  C   LIG    1       30.431 -18.229   8.593  0.00  0.00    +0.001 A 
ATOM     29  C   LIG    1       29.237 -18.785   8.118  0.00  0.00    +0.015 A 
BRANCH  25  30
ATOM     30  O   LIG    1       30.142 -22.342   8.060  0.00  0.00    -0.506 OA
ATOM     31  H   LIG    1       29.254 -22.590   7.760  0.00  0.00    +0.292 HD
ENDBRANCH  25  30
ENDBRANCH   4  24
TORSDOF 7
ENDMDL
MODEL 5
REMARK VINA RESULT:      -8.7      1.827      5.093
REMARK  Name = *****
REMARK                            x       y       z     vdW  Elec       q    Type
REMARK                         _______ _______ _______ _____ _____    ______ ____
ROOT
ATOM      1  N   LIG    1       24.993 -22.466   6.464  0.00  0.00    -0.212 N 
ATOM      2  C   LIG    1       26.323 -22.566   6.886  0.00  0.00    +0.168 A 
ATOM      3  N   LIG    1       26.618 -23.860   6.966  0.00  0.00    -0.206 NA
ATOM      4  C   LIG    1       25.437 -24.522   6.750  0.00  0.00    +0.186 A 
ATOM      5  N   LIG    1       24.410 -23.698   6.504  0.00  0.00    -0.144 NA
ENDROOT
BRANCH   1   9
ATOM      6  C   LIG    1       22.815 -19.259   4.745  0.00  0.00    +0.059 A 
ATOM      7  C   LIG    1       23.836 -19.888   4.025  0.00  0.00    +0.017 A 
ATOM      8  C   LIG    1       24.539 -20.948   4.606  0.00  0.00    +0.028 A 
ATOM      9  C   LIG    1       24.227 -21.398   5.905  0.00  0.00    +0.068 A 
ATOM     10  C   LIG    1       23.215 -20.753   6.624  0.00  0.00    +0.028 A 
ATOM     11  C   LIG    1       22.486 -19.716   6.028  0.00  0.00    +0.017 A 
BRANCH   6  13
ATOM     12  O   LIG    1       22.478 -16.937   4.316  0.00  0.00    -0.245 OA
ATOM     13  C   LIG    1       22.075 -18.092   4.208  0.00  0.00    +0.337 C 
BRANCH  13  14
ATOM     14  O   LIG    1       20.959 -18.423   3.529  0.00  0.00    -0.477 OA
ATOM     15  H   LIG    1       20.711 -17.795   2.823  0.00  0.00    +0.295 HD
ENDBRANCH  13  14
ENDBRANCH   6  13
ENDBRANCH   1   9
BRANCH   2  16
ATOM     16  C   LIG    1       27.288 -21.498   7.251  0.00  0.00    +0.061 A 
ATOM     17  C   LIG    1       27.148 -20.622   8.339  0.00  0.00    +0.128 A 
ATOM     18  C   LIG    1       28.129 -19.666   8.649  0.00  0.00    +0.046 A 
ATOM     19  C   LIG    1       29.312 -19.614   7.916  0.00  0.00    +0.004 A 
ATOM     20  C   LIG    1       29.496 -20.491   6.853  0.00  0.00    +0.001 A 
ATOM     21  C   LIG    1       28.486 -21.405   6.514  0.00  0.00    +0.015 A 
BRANCH  17  22
ATOM     22  O   LIG    1       26.053 -20.704   9.155  0.00  0.00    -0.506 OA
ATOM     23  H   LIG    1       25.504 -19.914   9.015  0.00  0.00    +0.292 HD
ENDBRANCH  17  22
ENDBRANCH   2  16
BRANCH   4  24
ATOM     24  C   LIG    1       25.296 -25.986   6.721  0.00  0.00    +0.062 A 
ATOM     25  C   LIG    1       24.361 -26.658   5.920  0.00  0.00    +0.128 A 
ATOM     26  C   LIG    1       24.281 -28.060   5.919  0.00  0.00    +0.046 A 
ATOM     27  C   LIG    1       25.133 -28.815   6.723  0.00  0.00    +0.004 A 
ATOM     28  C   LIG    1       26.064 -28.172   7.531  0.00  0.00    +0.001 A 
ATOM     29  C   LIG    1       26.145 -26.773   7.528  0.00  0.00    +0.015 A 
BRANCH  25  30
ATOM     30  O   LIG    1       23.520 -25.965   5.092  0.00  0.00    -0.506 OA
ATOM     31  H   LIG    1       23.679 -26.235   4.174  0.00  0.00    +0.292 HD
ENDBRANCH  25  30
ENDBRANCH   4  24
TORSDOF 7
ENDMDL
MODEL 6
REMARK VINA RESULT:      -8.4      1.851      5.192
REMARK  Name = *****
REMARK                            x       y       z     vdW  Elec       q    Type
REMARK                         _______ _______ _______ _____ _____    ______ ____
ROOT
ATOM      1  N   LIG    1       25.119 -22.206   6.287  0.00  0.00    -0.212 N 
ATOM      2  C   LIG    1       26.478 -22.316   6.598  0.00  0.00    +0.168 A 
ATOM      3  N   LIG    1       26.751 -23.611   6.730  0.00  0.00    -0.206 NA
ATOM      4  C   LIG    1       25.541 -24.254   6.657  0.00  0.00    +0.186 A 
ATOM      5  N   LIG    1       24.515 -23.418   6.451  0.00  0.00    -0.144 NA
ENDROOT
BRANCH   1   9
ATOM      6  C   LIG    1       22.682 -19.119   4.700  0.00  0.00    +0.059 A 
ATOM      7  C   LIG    1       22.463 -19.599   5.996  0.00  0.00    +0.017 A 
ATOM      8  C   LIG    1       23.281 -20.613   6.505  0.00  0.00    +0.028 A 
ATOM      9  C   LIG    1       24.329 -21.153   5.732  0.00  0.00    +0.068 A 
ATOM     10  C   LIG    1       24.531 -20.679   4.432  0.00  0.00    +0.028 A 
ATOM     11  C   LIG    1       23.736 -19.637   3.936  0.00  0.00    +0.017 A 
BRANCH   6  13
ATOM     12  O   LIG    1       20.809 -18.365   3.431  0.00  0.00    -0.245 OA
ATOM     13  C   LIG    1       21.812 -18.090   4.083  0.00  0.00    +0.337 C 
BRANCH  13  14
ATOM     14  O   LIG    1       22.182 -16.825   4.366  0.00  0.00    -0.477 OA
ATOM     15  H   LIG    1       21.700 -16.417   5.111  0.00  0.00    +0.295 HD
ENDBRANCH  13  14
ENDBRANCH   6  13
ENDBRANCH   1   9
BRANCH   2  16
ATOM     16  C   LIG    1       27.493 -21.255   6.813  0.00  0.00    +0.061 A 
ATOM     17  C   LIG    1       28.340 -21.164   7.929  0.00  0.00    +0.128 A 
ATOM     18  C   LIG    1       29.311 -20.154   8.039  0.00  0.00    +0.046 A 
ATOM     19  C   LIG    1       29.505 -19.253   6.996  0.00  0.00    +0.004 A 
ATOM     20  C   LIG    1       28.706 -19.339   5.862  0.00  0.00    +0.001 A 
ATOM     21  C   LIG    1       27.700 -20.314   5.784  0.00  0.00    +0.015 A 
BRANCH  17  22
ATOM     22  O   LIG    1       28.261 -22.089   8.934  0.00  0.00    -0.506 OA
ATOM     23  H   LIG    1       29.148 -22.211   9.312  0.00  0.00    +0.292 HD
ENDBRANCH  17  22
ENDBRANCH   2  16
BRANCH   4  24
ATOM     24  C   LIG    1       25.368 -25.712   6.729  0.00  0.00    +0.062 A 
ATOM     25  C   LIG    1       24.372 -26.409   6.028  0.00  0.00    +0.128 A 
ATOM     26  C   LIG    1       24.262 -27.805   6.120  0.00  0.00    +0.046 A 
ATOM     27  C   LIG    1       25.145 -28.530   6.919  0.00  0.00    +0.004 A 
ATOM     28  C   LIG    1       26.137 -27.863   7.627  0.00  0.00    +0.001 A 
ATOM     29  C   LIG    1       26.248 -26.469   7.532  0.00  0.00    +0.015 A 
BRANCH  25  30
ATOM     30  O   LIG    1       23.497 -25.746   5.210  0.00  0.00    -0.506 OA
ATOM     31  H   LIG    1       23.796 -25.825   4.291  0.00  0.00    +0.292 HD
ENDBRANCH  25  30
ENDBRANCH   4  24
TORSDOF 7
ENDMDL
MODEL 7
REMARK VINA RESULT:      -8.0      2.157      6.909
REMARK  Name = *****
REMARK                            x       y       z     vdW  Elec       q    Type
REMARK                         _______ _______ _______ _____ _____    ______ ____
ROOT
ATOM      1  N   LIG    1       26.095 -21.094   6.045  0.00  0.00    -0.212 N 
ATOM      2  C   LIG    1       26.296 -22.372   6.577  0.00  0.00    +0.168 A 
ATOM      3  N   LIG    1       27.449 -22.350   7.239  0.00  0.00    -0.206 NA
ATOM      4  C   LIG    1       28.005 -21.124   6.972  0.00  0.00    +0.186 A 
ATOM      5  N   LIG    1       27.233 -20.356   6.192  0.00  0.00    -0.144 NA
ENDROOT
BRANCH   1   9
ATOM      6  C   LIG    1       22.746 -19.024   4.469  0.00  0.00    +0.059 A 
ATOM      7  C   LIG    1       23.932 -19.117   3.733  0.00  0.00    +0.017 A 
ATOM      8  C   LIG    1       25.024 -19.809   4.266  0.00  0.00    +0.028 A 
ATOM      9  C   LIG    1       24.943 -20.422   5.533  0.00  0.00    +0.068 A 
ATOM     10  C   LIG    1       23.759 -20.311   6.269  0.00  0.00    +0.028 A 
ATOM     11  C   LIG    1       22.653 -19.650   5.719  0.00  0.00    +0.017 A 
BRANCH   6  13
ATOM     12  O   LIG    1       20.627 -18.772   3.404  0.00  0.00    -0.245 OA
ATOM     13  C   LIG    1       21.576 -18.253   3.985  0.00  0.00    +0.337 C 
BRANCH  13  14
ATOM     14  O   LIG    1       21.617 -16.945   4.307  0.00  0.00    -0.477 OA
ATOM     15  H   LIG    1       21.528 -16.337   3.548  0.00  0.00    +0.295 HD
ENDBRANCH  13  14
ENDBRANCH   6  13
ENDBRANCH   1   9
BRANCH   2  16
ATOM     16  C   LIG    1       25.470 -23.597   6.445  0.00  0.00    +0.061 A 
ATOM     17  C   LIG    1       24.127 -23.712   6.841  0.00  0.00    +0.128 A 
ATOM     18  C   LIG    1       23.395 -24.894   6.639  0.00  0.00    +0.046 A 
ATOM     19  C   LIG    1       23.972 -25.968   5.966  0.00  0.00    +0.004 A 
ATOM     20  C   LIG    1       25.288 -25.873   5.530  0.00  0.00    +0.001 A 
ATOM     21  C   LIG    1       26.031 -24.710   5.786  0.00  0.00    +0.015 A 
BRANCH  17  22
ATOM     22  O   LIG    1       23.483 -22.648   7.411  0.00  0.00    -0.506 OA
ATOM     23  H   LIG    1       24.116 -22.167   7.971  0.00  0.00    +0.292 HD
ENDBRANCH  17  22
ENDBRANCH   2  16
BRANCH   4  24
ATOM     24  C   LIG    1       29.284 -20.653   7.523  0.00  0.00    +0.062 A 
ATOM     25  C   LIG    1       29.896 -19.450   7.140  0.00  0.00    +0.128 A 
ATOM     26  C   LIG    1       31.110 -19.039   7.712  0.00  0.00    +0.046 A 
ATOM     27  C   LIG    1       31.738 -19.828   8.674  0.00  0.00    +0.004 A 
ATOM     28  C   LIG    1       31.155 -21.027   9.066  0.00  0.00    +0.001 A 
ATOM     29  C   LIG    1       29.941 -21.434   8.498  0.00  0.00    +0.015 A 
BRANCH  25  30
ATOM     30  O   LIG    1       29.307 -18.627   6.219  0.00  0.00    -0.506 OA
ATOM     31  H   LIG    1       29.044 -19.149   5.445  0.00  0.00    +0.292 HD
ENDBRANCH  25  30
ENDBRANCH   4  24
TORSDOF 7
ENDMDL
MODEL 8
REMARK VINA RESULT:      -7.8      2.184      6.850
REMARK  Name = *****
REMARK                            x       y       z     vdW  Elec       q    Type
REMARK                         _______ _______ _______ _____ _____    ______ ____
ROOT
ATOM      1  N   LIG    1       26.064 -21.094   6.020  0.00  0.00    -0.212 N 
ATOM      2  C   LIG    1       26.249 -22.376   6.546  0.00  0.00    +0.168 A 
ATOM      3  N   LIG    1       27.404 -22.372   7.205  0.00  0.00    -0.206 NA
ATOM      4  C   LIG    1       27.976 -21.153   6.941  0.00  0.00    +0.186 A 
ATOM      5  N   LIG    1       27.212 -20.372   6.167  0.00  0.00    -0.144 NA
ENDROOT
BRANCH   1   9
ATOM      6  C   LIG    1       22.737 -18.968   4.470  0.00  0.00    +0.059 A 
ATOM      7  C   LIG    1       23.954 -18.980   3.780  0.00  0.00    +0.017 A 
ATOM      8  C   LIG    1       25.039 -19.692   4.303  0.00  0.00    +0.028 A 
ATOM      9  C   LIG    1       24.919 -20.405   5.513  0.00  0.00    +0.068 A 
ATOM     10  C   LIG    1       23.704 -20.375   6.205  0.00  0.00    +0.028 A 
ATOM     11  C   LIG    1       22.607 -19.692   5.662  0.00  0.00    +0.017 A 
BRANCH   6  13
ATOM     12  O   LIG    1       20.611 -18.690   3.427  0.00  0.00    -0.245 OA
ATOM     13  C   LIG    1       21.572 -18.183   3.999  0.00  0.00    +0.337 C 
BRANCH  13  14
ATOM     14  O   LIG    1       21.631 -16.875   4.321  0.00  0.00    -0.477 OA
ATOM     15  H   LIG    1       21.054 -16.613   5.063  0.00  0.00    +0.295 HD
ENDBRANCH  13  14
ENDBRANCH   6  13
ENDBRANCH   1   9
BRANCH   2  16
ATOM     16  C   LIG    1       25.406 -23.590   6.411  0.00  0.00    +0.061 A 
ATOM     17  C   LIG    1       25.891 -24.885   6.163  0.00  0.00    +0.128 A 
ATOM     18  C   LIG    1       25.032 -25.995   6.095  0.00  0.00    +0.046 A 
ATOM     19  C   LIG    1       23.671 -25.843   6.346  0.00  0.00    +0.004 A 
ATOM     20  C   LIG    1       23.166 -24.580   6.629  0.00  0.00    +0.001 A 
ATOM     21  C   LIG    1       24.020 -23.467   6.638  0.00  0.00    +0.015 A 
BRANCH  17  22
ATOM     22  O   LIG    1       27.233 -25.103   6.015  0.00  0.00    -0.506 OA
ATOM     23  H   LIG    1       27.697 -24.254   6.117  0.00  0.00    +0.292 HD
ENDBRANCH  17  22
ENDBRANCH   2  16
BRANCH   4  24
ATOM     24  C   LIG    1       29.262 -20.701   7.492  0.00  0.00    +0.062 A 
ATOM     25  C   LIG    1       29.894 -19.509   7.104  0.00  0.00    +0.128 A 
ATOM     26  C   LIG    1       31.115 -19.117   7.674  0.00  0.00    +0.046 A 
ATOM     27  C   LIG    1       31.729 -19.911   8.640  0.00  0.00    +0.004 A 
ATOM     28  C   LIG    1       31.126 -21.099   9.037  0.00  0.00    +0.001 A 
ATOM     29  C   LIG    1       29.906 -21.488   8.470  0.00  0.00    +0.015 A 
BRANCH  25  30
ATOM     30  O   LIG    1       29.319 -18.681   6.178  0.00  0.00    -0.506 OA
ATOM     31  H   LIG    1       30.001 -18.359   5.569  0.00  0.00    +0.292 HD
ENDBRANCH  25  30
ENDBRANCH   4  24
TORSDOF 7
ENDMDL
MODEL 9
REMARK VINA RESULT:      -7.7      4.437      8.434
REMARK  Name = *****
REMARK                            x       y       z     vdW  Elec       q    Type
REMARK                         _______ _______ _______ _____ _____    ______ ____
ROOT
ATOM      1  N   LIG    1       25.215 -28.886   6.592  0.00  0.00    -0.212 N 
ATOM      2  C   LIG    1       25.334 -29.764   7.675  0.00  0.00    +0.168 A 
ATOM      3  N   LIG    1       25.767 -30.926   7.198  0.00  0.00    -0.206 NA
ATOM      4  C   LIG    1       25.753 -30.794   5.832  0.00  0.00    +0.186 A 
ATOM      5  N   LIG    1       25.359 -29.580   5.427  0.00  0.00    -0.144 NA
ENDROOT
BRANCH   1   9
ATOM      6  C   LIG    1       24.970 -24.656   6.415  0.00  0.00    +0.059 A 
ATOM      7  C   LIG    1       26.086 -25.278   6.984  0.00  0.00    +0.017 A 
ATOM      8  C   LIG    1       26.152 -26.674   7.028  0.00  0.00    +0.028 A 
ATOM      9  C   LIG    1       25.112 -27.464   6.498  0.00  0.00    +0.068 A 
ATOM     10  C   LIG    1       23.993 -26.835   5.945  0.00  0.00    +0.028 A 
ATOM     11  C   LIG    1       23.943 -25.437   5.868  0.00  0.00    +0.017 A 
BRANCH   6  13
ATOM     12  O   LIG    1       25.743 -22.408   6.601  0.00  0.00    -0.245 OA
ATOM     13  C   LIG    1       24.813 -23.182   6.394  0.00  0.00    +0.337 C 
BRANCH  13  14
ATOM     14  O   LIG    1       23.575 -22.772   6.055  0.00  0.00    -0.477 OA
ATOM     15  H   LIG    1       22.954 -23.493   5.833  0.00  0.00    +0.295 HD
ENDBRANCH  13  14
ENDBRANCH   6  13
ENDBRANCH   1   9
BRANCH   2  16
ATOM     16  C   LIG    1       25.017 -29.553   9.109  0.00  0.00    +0.061 A 
ATOM     17  C   LIG    1       23.859 -30.015   9.755  0.00  0.00    +0.128 A 
ATOM     18  C   LIG    1       23.650 -29.817  11.130  0.00  0.00    +0.046 A 
ATOM     19  C   LIG    1       24.635 -29.212  11.907  0.00  0.00    +0.004 A 
ATOM     20  C   LIG    1       25.808 -28.774  11.304  0.00  0.00    +0.001 A 
ATOM     21  C   LIG    1       25.984 -28.924   9.920  0.00  0.00    +0.015 A 
BRANCH  17  22
ATOM     22  O   LIG    1       22.909 -30.709   9.057  0.00  0.00    -0.506 OA
ATOM     23  H   LIG    1       22.398 -31.249   9.683  0.00  0.00    +0.292 HD
ENDBRANCH  17  22
ENDBRANCH   2  16
BRANCH   4  24
ATOM     24  C   LIG    1       26.183 -31.838   4.890  0.00  0.00    +0.062 A 
ATOM     25  C   LIG    1       27.156 -32.802   5.195  0.00  0.00    +0.128 A 
ATOM     26  C   LIG    1       27.517 -33.788   4.263  0.00  0.00    +0.046 A 
ATOM     27  C   LIG    1       26.915 -33.824   3.007  0.00  0.00    +0.004 A 
ATOM     28  C   LIG    1       25.953 -32.876   2.679  0.00  0.00    +0.001 A 
ATOM     29  C   LIG    1       25.591 -31.895   3.611  0.00  0.00    +0.015 A 
BRANCH  25  30
ATOM     30  O   LIG    1       27.758 -32.826   6.424  0.00  0.00    -0.506 OA
ATOM     31  H   LIG    1       27.080 -32.921   7.111  0.00  0.00    +0.292 HD
ENDBRANCH  25  30
ENDBRANCH   4  24
TORSDOF 7
ENDMDL
