MODEL 1
REMARK VINA RESULT:      -5.8      0.000      0.000
REMARK  Name = *****
REMARK                            x       y       z     vdW  Elec       q    Type
REMARK                         _______ _______ _______ _____ _____    ______ ____
ROOT
ATOM      1  C   LIG    1       24.631 -20.672   4.079  0.00  0.00    +0.064 C 
ATOM      2  C   LIG    1       23.293 -19.983   4.484  0.00  0.00    +0.007 C 
ATOM      3  C   LIG    1       23.616 -19.375   5.845  0.00  0.00    +0.009 C 
ATOM      4  C   LIG    1       24.029 -20.716   6.448  0.00  0.00    -0.002 C 
ATOM      5  C   LIG    1       22.771 -21.571   6.201  0.00  0.00    +0.004 C 
ATOM      6  C   LIG    1       22.269 -21.070   4.848  0.00  0.00    +0.005 C 
ATOM      7  C   LIG    1       25.167 -21.178   5.487  0.00  0.00    +0.039 C 
ENDROOT
BRANCH   7   8
ATOM      8  C   LIG    1       26.580 -20.788   5.910  0.00  0.00    -0.043 A 
ATOM      9  C   LIG    1       27.168 -19.648   5.334  0.00  0.00    +0.004 A 
ATOM     10  C   LIG    1       28.490 -19.292   5.623  0.00  0.00    +0.000 A 
ATOM     11  C   LIG    1       29.253 -20.070   6.485  0.00  0.00    +0.000 A 
ATOM     12  C   LIG    1       28.697 -21.206   7.062  0.00  0.00    +0.000 A 
ATOM     13  C   LIG    1       27.372 -21.555   6.779  0.00  0.00    +0.004 A 
ENDBRANCH   7   8
BRANCH   1  14
ATOM     14  N   LIG    1       25.527 -19.794   3.313  0.00  0.00    -0.313 NA
ATOM     15  H   LIG    1       26.434 -19.720   3.771  0.00  0.00    +0.122 HD
BRANCH  14  17
ATOM     16  C   LIG    1       25.980 -17.370   3.262  0.00  0.00    +0.020 C 
ATOM     17  C   LIG    1       24.950 -18.471   3.067  0.00  0.00    +0.077 C 
ENDBRANCH  14  17
ENDBRANCH   1  14
TORSDOF 3
ENDMDL
MODEL 2
REMARK VINA RESULT:      -5.5      0.242      1.221
REMARK  Name = *****
REMARK                            x       y       z     vdW  Elec       q    Type
REMARK                         _______ _______ _______ _____ _____    ______ ____
ROOT
ATOM      1  C   LIG    1       24.521 -20.421   3.986  0.00  0.00    +0.064 C 
ATOM      2  C   LIG    1       23.226 -19.780   4.568  0.00  0.00    +0.007 C 
ATOM      3  C   LIG    1       23.650 -19.354   5.970  0.00  0.00    +0.009 C 
ATOM      4  C   LIG    1       24.083 -20.764   6.366  0.00  0.00    -0.002 C 
ATOM      5  C   LIG    1       22.798 -21.572   6.101  0.00  0.00    +0.004 C 
ATOM      6  C   LIG    1       22.212 -20.898   4.861  0.00  0.00    +0.005 C 
ATOM      7  C   LIG    1       25.145 -21.107   5.276  0.00  0.00    +0.039 C 
ENDROOT
BRANCH   7   8
ATOM      8  C   LIG    1       26.590 -20.785   5.646  0.00  0.00    -0.043 A 
ATOM      9  C   LIG    1       27.228 -21.567   6.625  0.00  0.00    +0.004 A 
ATOM     10  C   LIG    1       28.522 -21.264   7.062  0.00  0.00    +0.000 A 
ATOM     11  C   LIG    1       29.201 -20.171   6.537  0.00  0.00    +0.000 A 
ATOM     12  C   LIG    1       28.589 -19.378   5.574  0.00  0.00    +0.000 A 
ATOM     13  C   LIG    1       27.299 -19.688   5.131  0.00  0.00    +0.004 A 
ENDBRANCH   7   8
BRANCH   1  14
ATOM     14  N   LIG    1       25.377 -19.458   3.277  0.00  0.00    -0.313 NA
ATOM     15  H   LIG    1       26.314 -19.449   3.676  0.00  0.00    +0.122 HD
BRANCH  14  17
ATOM     16  C   LIG    1       25.889 -17.046   3.266  0.00  0.00    +0.020 C 
ATOM     17  C   LIG    1       24.805 -18.111   3.243  0.00  0.00    +0.077 C 
ENDBRANCH  14  17
ENDBRANCH   1  14
TORSDOF 3
ENDMDL
MODEL 3
REMARK VINA RESULT:      -4.6      1.397      2.088
REMARK  Name = *****
REMARK                            x       y       z     vdW  Elec       q    Type
REMARK                         _______ _______ _______ _____ _____    ______ ____
ROOT
ATOM      1  C   LIG    1       23.858 -18.855   3.604  0.00  0.00    +0.064 C 
ATOM      2  C   LIG    1       22.506 -18.405   4.234  0.00  0.00    +0.007 C 
ATOM      3  C   LIG    1       22.657 -18.805   5.699  0.00  0.00    +0.009 C 
ATOM      4  C   LIG    1       22.926 -20.271   5.366  0.00  0.00    -0.002 C 
ATOM      5  C   LIG    1       21.683 -20.637   4.534  0.00  0.00    +0.004 C 
ATOM      6  C   LIG    1       21.398 -19.355   3.752  0.00  0.00    +0.005 C 
ATOM      7  C   LIG    1       24.170 -20.178   4.428  0.00  0.00    +0.039 C 
ENDROOT
BRANCH   7   8
ATOM      8  C   LIG    1       25.523 -20.302   5.121  0.00  0.00    -0.043 A 
ATOM      9  C   LIG    1       25.597 -20.998   6.341  0.00  0.00    +0.004 A 
ATOM     10  C   LIG    1       26.794 -21.071   7.061  0.00  0.00    +0.000 A 
ATOM     11  C   LIG    1       27.939 -20.445   6.582  0.00  0.00    +0.000 A 
ATOM     12  C   LIG    1       27.891 -19.745   5.383  0.00  0.00    +0.000 A 
ATOM     13  C   LIG    1       26.694 -19.681   4.660  0.00  0.00    +0.004 A 
ENDBRANCH   7   8
BRANCH   1  14
ATOM     14  N   LIG    1       24.889 -17.807   3.633  0.00  0.00    -0.313 NA
ATOM     15  H   LIG    1       25.667 -18.085   4.229  0.00  0.00    +0.122 HD
BRANCH  14  17
ATOM     16  C   LIG    1       25.121 -15.365   3.375  0.00  0.00    +0.020 C 
ATOM     17  C   LIG    1       24.358 -16.502   4.034  0.00  0.00    +0.077 C 
ENDBRANCH  14  17
ENDBRANCH   1  14
TORSDOF 3
ENDMDL
MODEL 4
REMARK VINA RESULT:      -4.3      2.492      6.198
REMARK  Name = *****
REMARK                            x       y       z     vdW  Elec       q    Type
REMARK                         _______ _______ _______ _____ _____    ______ ____
ROOT
ATOM      1  C   LIG    1       27.067 -16.207   3.387  0.00  0.00    +0.064 C 
ATOM      2  C   LIG    1       27.507 -14.872   4.059  0.00  0.00    +0.007 C 
ATOM      3  C   LIG    1       26.291 -14.489   4.896  0.00  0.00    +0.009 C 
ATOM      4  C   LIG    1       25.347 -14.497   3.696  0.00  0.00    -0.002 C 
ATOM      5  C   LIG    1       26.042 -13.504   2.744  0.00  0.00    +0.004 C 
ATOM      6  C   LIG    1       27.527 -13.767   2.991  0.00  0.00    +0.005 C 
ATOM      7  C   LIG    1       25.518 -15.948   3.146  0.00  0.00    +0.039 C 
ENDROOT
BRANCH   7   8
ATOM      8  C   LIG    1       24.517 -16.970   3.676  0.00  0.00    -0.043 A 
ATOM      9  C   LIG    1       24.798 -18.339   3.512  0.00  0.00    +0.004 A 
ATOM     10  C   LIG    1       23.878 -19.317   3.904  0.00  0.00    +0.000 A 
ATOM     11  C   LIG    1       22.658 -18.950   4.459  0.00  0.00    +0.000 A 
ATOM     12  C   LIG    1       22.354 -17.605   4.625  0.00  0.00    +0.000 A 
ATOM     13  C   LIG    1       23.279 -16.628   4.241  0.00  0.00    +0.004 A 
ENDBRANCH   7   8
BRANCH   1  14
ATOM     14  N   LIG    1       27.417 -17.397   4.176  0.00  0.00    -0.313 NA
ATOM     15  H   LIG    1       26.711 -17.575   4.890  0.00  0.00    +0.122 HD
BRANCH  14  17
ATOM     16  C   LIG    1       29.116 -18.583   5.515  0.00  0.00    +0.020 C 
ATOM     17  C   LIG    1       28.754 -17.310   4.768  0.00  0.00    +0.077 C 
ENDBRANCH  14  17
ENDBRANCH   1  14
TORSDOF 3
ENDMDL
MODEL 5
REMARK VINA RESULT:      -4.1      2.200      5.852
REMARK  Name = *****
REMARK                            x       y       z     vdW  Elec       q    Type
REMARK                         _______ _______ _______ _____ _____    ______ ____
ROOT
ATOM      1  C   LIG    1       27.246 -16.540   3.513  0.00  0.00    +0.064 C 
ATOM      2  C   LIG    1       27.455 -15.125   4.132  0.00  0.00    +0.007 C 
ATOM      3  C   LIG    1       26.107 -14.830   4.782  0.00  0.00    +0.009 C 
ATOM      4  C   LIG    1       25.334 -15.017   3.479  0.00  0.00    -0.002 C 
ATOM      5  C   LIG    1       26.041 -14.013   2.549  0.00  0.00    +0.004 C 
ATOM      6  C   LIG    1       27.500 -14.092   2.995  0.00  0.00    +0.005 C 
ATOM      7  C   LIG    1       25.723 -16.470   3.065  0.00  0.00    +0.039 C 
ENDROOT
BRANCH   7   8
ATOM      8  C   LIG    1       24.772 -17.563   3.543  0.00  0.00    -0.043 A 
ATOM      9  C   LIG    1       23.506 -17.193   4.030  0.00  0.00    +0.004 A 
ATOM     10  C   LIG    1       22.627 -18.145   4.558  0.00  0.00    +0.000 A 
ATOM     11  C   LIG    1       22.998 -19.483   4.618  0.00  0.00    +0.000 A 
ATOM     12  C   LIG    1       24.246 -19.874   4.150  0.00  0.00    +0.000 A 
ATOM     13  C   LIG    1       25.120 -18.921   3.614  0.00  0.00    +0.004 A 
ENDBRANCH   7   8
BRANCH   1  14
ATOM     14  N   LIG    1       27.611 -17.633   4.427  0.00  0.00    -0.313 NA
ATOM     15  H   LIG    1       26.989 -17.647   5.235  0.00  0.00    +0.122 HD
BRANCH  14  17
ATOM     16  C   LIG    1       29.339 -18.670   5.849  0.00  0.00    +0.020 C 
ATOM     17  C   LIG    1       29.014 -17.578   4.843  0.00  0.00    +0.077 C 
ENDBRANCH  14  17
ENDBRANCH   1  14
TORSDOF 3
ENDMDL
MODEL 6
REMARK VINA RESULT:      -4.0      4.143      6.625
REMARK  Name = *****
REMARK                            x       y       z     vdW  Elec       q    Type
REMARK                         _______ _______ _______ _____ _____    ______ ____
ROOT
ATOM      1  C   LIG    1       26.142 -13.101   4.226  0.00  0.00    +0.064 C 
ATOM      2  C   LIG    1       24.724 -12.559   4.578  0.00  0.00    +0.007 C 
ATOM      3  C   LIG    1       23.861 -13.817   4.569  0.00  0.00    +0.009 C 
ATOM      4  C   LIG    1       24.237 -14.176   3.133  0.00  0.00    -0.002 C 
ATOM      5  C   LIG    1       23.838 -12.895   2.376  0.00  0.00    +0.004 C 
ATOM      6  C   LIG    1       24.179 -11.783   3.368  0.00  0.00    +0.005 C 
ATOM      7  C   LIG    1       25.792 -14.271   3.209  0.00  0.00    +0.039 C 
ENDROOT
BRANCH   7   8
ATOM      8  C   LIG    1       26.350 -15.665   3.483  0.00  0.00    -0.043 A 
ATOM      9  C   LIG    1       25.543 -16.783   3.204  0.00  0.00    +0.004 A 
ATOM     10  C   LIG    1       25.971 -18.078   3.514  0.00  0.00    +0.000 A 
ATOM     11  C   LIG    1       27.208 -18.283   4.114  0.00  0.00    +0.000 A 
ATOM     12  C   LIG    1       28.020 -17.195   4.406  0.00  0.00    +0.000 A 
ATOM     13  C   LIG    1       27.595 -15.901   4.087  0.00  0.00    +0.004 A 
ENDBRANCH   7   8
BRANCH   1  14
ATOM     14  N   LIG    1       26.930 -13.475   5.409  0.00  0.00    -0.313 NA
ATOM     15  H   LIG    1       26.388 -13.332   6.261  0.00  0.00    +0.122 HD
BRANCH  14  17
ATOM     16  C   LIG    1       28.805 -12.558   4.095  0.00  0.00    +0.020 C 
ATOM     17  C   LIG    1       28.214 -12.775   5.478  0.00  0.00    +0.077 C 
ENDBRANCH  14  17
ENDBRANCH   1  14
TORSDOF 3
ENDMDL
MODEL 7
REMARK VINA RESULT:      -3.3      1.521      4.258
REMARK  Name = *****
REMARK                            x       y       z     vdW  Elec       q    Type
REMARK                         _______ _______ _______ _____ _____    ______ ____
ROOT
ATOM      1  C   LIG    1       25.109 -19.873   4.834  0.00  0.00    +0.064 C 
ATOM      2  C   LIG    1       24.447 -21.016   4.008  0.00  0.00    +0.007 C 
ATOM      3  C   LIG    1       23.881 -20.284   2.796  0.00  0.00    +0.009 C 
ATOM      4  C   LIG    1       23.041 -19.333   3.647  0.00  0.00    -0.002 C 
ATOM      5  C   LIG    1       22.203 -20.320   4.482  0.00  0.00    +0.004 C 
ATOM      6  C   LIG    1       23.172 -21.474   4.734  0.00  0.00    +0.005 C 
ATOM      7  C   LIG    1       24.116 -18.664   4.559  0.00  0.00    +0.039 C 
ENDROOT
BRANCH   7   8
ATOM      8  C   LIG    1       24.693 -17.352   4.036  0.00  0.00    -0.043 A 
ATOM      9  C   LIG    1       25.993 -17.352   3.499  0.00  0.00    +0.004 A 
ATOM     10  C   LIG    1       26.602 -16.165   3.081  0.00  0.00    +0.000 A 
ATOM     11  C   LIG    1       25.931 -14.953   3.199  0.00  0.00    +0.000 A 
ATOM     12  C   LIG    1       24.649 -14.926   3.733  0.00  0.00    +0.000 A 
ATOM     13  C   LIG    1       24.037 -16.116   4.141  0.00  0.00    +0.004 A 
ENDBRANCH   7   8
BRANCH   1  14
ATOM     14  N   LIG    1       26.521 -19.653   4.491  0.00  0.00    -0.313 NA
ATOM     15  H   LIG    1       26.768 -20.162   3.642  0.00  0.00    +0.122 HD
BRANCH  14  17
ATOM     16  C   LIG    1       26.668 -20.409   6.834  0.00  0.00    +0.020 C 
ATOM     17  C   LIG    1       27.430 -19.987   5.589  0.00  0.00    +0.077 C 
ENDBRANCH  14  17
ENDBRANCH   1  14
TORSDOF 3
ENDMDL
MODEL 8
REMARK VINA RESULT:      -3.3      3.337      6.022
REMARK  Name = *****
REMARK                            x       y       z     vdW  Elec       q    Type
REMARK                         _______ _______ _______ _____ _____    ______ ____
ROOT
ATOM      1  C   LIG    1       26.157 -14.614   3.179  0.00  0.00    +0.064 C 
ATOM      2  C   LIG    1       25.694 -13.396   4.034  0.00  0.00    +0.007 C 
ATOM      3  C   LIG    1       24.693 -14.015   5.005  0.00  0.00    +0.009 C 
ATOM      4  C   LIG    1       23.817 -14.576   3.887  0.00  0.00    -0.002 C 
ATOM      5  C   LIG    1       23.501 -13.308   3.071  0.00  0.00    +0.004 C 
ATOM      6  C   LIG    1       24.794 -12.500   3.168  0.00  0.00    +0.005 C 
ATOM      7  C   LIG    1       24.820 -15.468   3.092  0.00  0.00    +0.039 C 
ENDROOT
BRANCH   7   8
ATOM      8  C   LIG    1       24.865 -16.935   3.510  0.00  0.00    -0.043 A 
ATOM      9  C   LIG    1       26.072 -17.643   3.365  0.00  0.00    +0.004 A 
ATOM     10  C   LIG    1       26.148 -19.009   3.655  0.00  0.00    +0.000 A 
ATOM     11  C   LIG    1       25.020 -19.698   4.084  0.00  0.00    +0.000 A 
ATOM     12  C   LIG    1       23.814 -19.024   4.228  0.00  0.00    +0.000 A 
ATOM     13  C   LIG    1       23.742 -17.655   3.948  0.00  0.00    +0.004 A 
ENDBRANCH   7   8
BRANCH   1  14
ATOM     14  N   LIG    1       27.336 -15.296   3.732  0.00  0.00    -0.313 NA
ATOM     15  H   LIG    1       27.056 -16.104   4.287  0.00  0.00    +0.122 HD
BRANCH  14  17
ATOM     16  C   LIG    1       28.756 -13.281   3.641  0.00  0.00    +0.020 C 
ATOM     17  C   LIG    1       28.198 -14.400   4.506  0.00  0.00    +0.077 C 
ENDBRANCH  14  17
ENDBRANCH   1  14
TORSDOF 3
ENDMDL
MODEL 9
REMARK VINA RESULT:      -3.1      1.761      5.038
REMARK  Name = *****
REMARK                            x       y       z     vdW  Elec       q    Type
REMARK                         _______ _______ _______ _____ _____    ______ ____
ROOT
ATOM      1  C   LIG    1       25.033 -19.187   4.872  0.00  0.00    +0.064 C 
ATOM      2  C   LIG    1       25.789 -20.549   4.918  0.00  0.00    +0.007 C 
ATOM      3  C   LIG    1       24.676 -21.570   4.706  0.00  0.00    +0.009 C 
ATOM      4  C   LIG    1       23.866 -21.073   5.902  0.00  0.00    -0.002 C 
ATOM      5  C   LIG    1       24.892 -21.193   7.046  0.00  0.00    +0.004 C 
ATOM      6  C   LIG    1       26.212 -20.827   6.369  0.00  0.00    +0.005 C 
ATOM      7  C   LIG    1       23.650 -19.567   5.556  0.00  0.00    +0.039 C 
ENDROOT
BRANCH   7   8
ATOM      8  C   LIG    1       22.357 -19.246   4.812  0.00  0.00    -0.043 A 
ATOM      9  C   LIG    1       21.491 -20.302   4.474  0.00  0.00    +0.004 A 
ATOM     10  C   LIG    1       20.335 -20.076   3.721  0.00  0.00    +0.000 A 
ATOM     11  C   LIG    1       20.024 -18.794   3.283  0.00  0.00    +0.000 A 
ATOM     12  C   LIG    1       20.866 -17.735   3.597  0.00  0.00    +0.000 A 
ATOM     13  C   LIG    1       22.017 -17.962   4.360  0.00  0.00    +0.004 A 
ENDBRANCH   7   8
BRANCH   1  14
ATOM     14  N   LIG    1       24.959 -18.611   3.521  0.00  0.00    -0.313 NA
ATOM     15  H   LIG    1       24.908 -19.347   2.819  0.00  0.00    +0.122 HD
BRANCH  14  17
ATOM     16  C   LIG    1       25.594 -16.243   3.247  0.00  0.00    +0.020 C 
ATOM     17  C   LIG    1       26.061 -17.689   3.238  0.00  0.00    +0.077 C 
ENDBRANCH  14  17
ENDBRANCH   1  14
TORSDOF 3
ENDMDL
