MODEL 1
REMARK VINA RESULT:      35.3      0.000      0.000
REMARK  Name = *****
REMARK                            x       y       z     vdW  Elec       q    Type
REMARK                         _______ _______ _______ _____ _____    ______ ____
ROOT
ATOM      1  C   LIG    1       24.241 -13.705   4.042  0.00  0.00    +0.129 A 
ATOM      2  C   LIG    1       23.894 -14.341   5.233  0.00  0.00    +0.048 A 
ATOM      3  C   LIG    1       23.284 -15.608   5.221  0.00  0.00    +0.027 A 
ATOM      4  C   LIG    1       22.924 -16.243   4.022  0.00  0.00    +0.034 A 
ATOM      5  C   LIG    1       23.141 -15.528   2.834  0.00  0.00    +0.027 A 
ATOM      6  C   LIG    1       23.808 -14.273   2.841  0.00  0.00    +0.048 A 
ENDROOT
BRANCH   4   7
ATOM      7  N   LIG    1       22.376 -17.560   4.124  0.00  0.00    -0.285 N 
ATOM      8  H   LIG    1       22.983 -18.262   4.531  0.00  0.00    +0.155 HD
ATOM      9  C   LIG    1       21.114 -18.000   3.726  0.00  0.00    +0.232 C 
ATOM     10  O   LIG    1       20.263 -17.313   3.192  0.00  0.00    -0.274 OA
BRANCH   9  11
ATOM     11  C   LIG    1       20.795 -19.479   4.011  0.00  0.00    +0.123 C 
ATOM     12  C   LIG    1       19.350 -19.771   4.490  0.00  0.00    +0.027 C 
ATOM     13  C   LIG    1       19.760 -20.205   3.125  0.00  0.00    +0.027 C 
BRANCH  11  14
ATOM     14  C   LIG    1       21.890 -20.358   4.568  0.00  0.00    +0.232 C 
ATOM     15  N   LIG    1       23.116 -19.764   4.675  0.00  0.00    -0.285 N 
ATOM     16  H   LIG    1       23.238 -18.879   4.179  0.00  0.00    +0.155 HD
ATOM     17  O   LIG    1       21.606 -21.540   4.855  0.00  0.00    -0.274 OA
BRANCH  15  18
ATOM     18  C   LIG    1       24.317 -20.328   5.176  0.00  0.00    +0.034 A 
ATOM     19  C   LIG    1       24.629 -20.085   6.519  0.00  0.00    +0.026 A 
ATOM     20  C   LIG    1       25.849 -20.498   7.062  0.00  0.00    +0.040 A 
ATOM     21  C   LIG    1       26.747 -21.195   6.268  0.00  0.00    +0.123 A 
ATOM     22  F   LIG    1       27.937 -21.550   6.772  0.00  0.00    -0.205 F 
ATOM     23  C   LIG    1       26.423 -21.525   4.957  0.00  0.00    +0.040 A 
ATOM     24  C   LIG    1       25.201 -21.098   4.407  0.00  0.00    +0.026 A 
ENDBRANCH  15  18
ENDBRANCH  11  14
ENDBRANCH   9  11
ENDBRANCH   4   7
BRANCH   1  25
ATOM     25  O   LIG    1       24.996 -12.536   4.015  0.00  0.00    -0.455 OA
BRANCH  25  34
ATOM     26  C   LIG    1       28.411 -16.385   4.289  0.00  0.00    +0.164 A 
ATOM     27  C   LIG    1       27.016 -16.378   4.172  0.00  0.00    +0.162 A 
ATOM     28  C   LIG    1       26.328 -15.156   4.099  0.00  0.00    +0.063 A 
ATOM     29  C   LIG    1       27.005 -13.916   4.208  0.00  0.00    +0.046 A 
ATOM     30  C   LIG    1       28.414 -13.942   4.352  0.00  0.00    +0.078 A 
ATOM     31  N   LIG    1       29.157 -12.829   4.442  0.00  0.00    -0.255 NA
ATOM     32  C   LIG    1       28.528 -11.640   4.463  0.00  0.00    +0.115 A 
ATOM     33  C   LIG    1       27.162 -11.497   4.397  0.00  0.00    +0.066 A 
ATOM     34  C   LIG    1       26.380 -12.635   4.192  0.00  0.00    +0.139 A 
ATOM     35  C   LIG    1       29.081 -15.161   4.399  0.00  0.00    +0.077 A 
BRANCH  26  37
ATOM     36  C   LIG    1       28.903 -18.454   5.376  0.00  0.00    +0.277 C 
ATOM     37  O   LIG    1       29.219 -17.496   4.365  0.00  0.00    -0.491 OA
ENDBRANCH  26  37
BRANCH  27  38
ATOM     38  O   LIG    1       26.384 -17.582   4.066  0.00  0.00    -0.491 OA
ATOM     39  C   LIG    1       25.762 -17.904   2.835  0.00  0.00    +0.277 C 
ENDBRANCH  27  38
ENDBRANCH  25  34
ENDBRANCH   1  25
TORSDOF 8
ENDMDL
