MODEL 1
REMARK VINA RESULT:      -5.0      0.000      0.000
REMARK  Name = *****
REMARK                            x       y       z     vdW  Elec       q    Type
REMARK                         _______ _______ _______ _____ _____    ______ ____
ROOT
ATOM      1  C   LIG    1       26.053 -19.600   4.947  0.00  0.00    -0.001 C 
ATOM      2  C   LIG    1       26.275 -18.521   4.160  0.00  0.00    -0.016 C 
ENDROOT
BRANCH   1   5
ATOM      3  C   LIG    1       24.092 -20.669   2.549  0.00  0.00    +0.045 C 
ATOM      4  C   LIG    1       23.872 -20.661   4.026  0.00  0.00    -0.036 A 
ATOM      5  C   LIG    1       24.756 -20.233   5.020  0.00  0.00    +0.023 A 
ATOM      6  S   LIG    1       24.054 -20.480   6.588  0.00  0.00    -0.096 S 
ATOM      7  C   LIG    1       22.604 -21.100   5.949  0.00  0.00    +0.046 A 
ATOM      8  C   LIG    1       22.624 -21.120   4.578  0.00  0.00    +0.011 A 
ENDBRANCH   1   5
BRANCH   1   9
ATOM      9  C   LIG    1       27.209 -20.101   5.659  0.00  0.00    +0.023 A 
ATOM     10  C   LIG    1       28.494 -19.569   5.791  0.00  0.00    -0.036 A 
ATOM     11  C   LIG    1       28.985 -18.290   5.192  0.00  0.00    +0.045 C 
ATOM     12  C   LIG    1       29.343 -20.414   6.584  0.00  0.00    +0.011 A 
ATOM     13  C   LIG    1       28.692 -21.525   7.061  0.00  0.00    +0.046 A 
ATOM     14  S   LIG    1       27.064 -21.570   6.562  0.00  0.00    -0.096 S 
ENDBRANCH   1   9
BRANCH   2  15
ATOM     15  C   LIG    1       25.315 -17.725   3.311  0.00  0.00    +0.043 C 
BRANCH  15  16
ATOM     16  C   LIG    1       25.842 -16.323   2.960  0.00  0.00    +0.088 C 
BRANCH  16  17
ATOM     17  N   LIG    1       25.377 -15.266   3.886  0.00  0.00    -0.301 NA
ATOM     18  C   LIG    1       26.510 -14.479   4.420  0.00  0.00    +0.099 C 
ATOM     19  C   LIG    1       27.209 -13.629   3.352  0.00  0.00    +0.112 C 
ATOM     20  C   LIG    1       26.218 -12.704   2.641  0.00  0.00    +0.017 C 
ATOM     21  C   LIG    1       24.971 -13.460   2.179  0.00  0.00    +0.016 C 
ATOM     22  C   LIG    1       24.395 -14.344   3.289  0.00  0.00    +0.084 C 
BRANCH  19  23
ATOM     23  C   LIG    1       28.348 -12.865   3.969  0.00  0.00    +0.309 C 
ATOM     24  O   LIG    1       28.308 -12.274   5.047  0.00  0.00    -0.251 OA
BRANCH  23  25
ATOM     25  O   LIG    1       29.473 -12.853   3.239  0.00  0.00    -0.480 OA
ATOM     26  H   LIG    1       29.694 -13.802   3.123  0.00  0.00    +0.295 HD
ENDBRANCH  23  25
ENDBRANCH  19  23
ENDBRANCH  16  17
ENDBRANCH  15  16
ENDBRANCH   2  15
TORSDOF 7
ENDMDL
MODEL 2
REMARK VINA RESULT:      -3.9      2.175      4.405
REMARK  Name = *****
REMARK                            x       y       z     vdW  Elec       q    Type
REMARK                         _______ _______ _______ _____ _____    ______ ____
ROOT
ATOM      1  C   LIG    1       25.300 -19.116   4.340  0.00  0.00    -0.001 C 
ATOM      2  C   LIG    1       25.596 -18.094   3.503  0.00  0.00    -0.016 C 
ENDROOT
BRANCH   1   5
ATOM      3  C   LIG    1       24.901 -20.899   7.062  0.00  0.00    +0.045 C 
ATOM      4  C   LIG    1       26.156 -20.392   6.431  0.00  0.00    -0.036 A 
ATOM      5  C   LIG    1       26.285 -19.668   5.242  0.00  0.00    +0.023 A 
ATOM      6  S   LIG    1       27.960 -19.363   4.909  0.00  0.00    -0.096 S 
ATOM      7  C   LIG    1       28.485 -20.140   6.329  0.00  0.00    +0.046 A 
ATOM      8  C   LIG    1       27.430 -20.619   7.062  0.00  0.00    +0.011 A 
ENDBRANCH   1   5
BRANCH   1   9
ATOM      9  C   LIG    1       23.928 -19.574   4.306  0.00  0.00    +0.023 A 
ATOM     10  C   LIG    1       22.734 -18.872   4.484  0.00  0.00    -0.036 A 
ATOM     11  C   LIG    1       22.603 -17.409   4.765  0.00  0.00    +0.045 C 
ATOM     12  C   LIG    1       21.588 -19.733   4.379  0.00  0.00    +0.011 A 
ATOM     13  C   LIG    1       21.924 -21.033   4.091  0.00  0.00    +0.046 A 
ATOM     14  S   LIG    1       23.609 -21.236   3.948  0.00  0.00    -0.096 S 
ENDBRANCH   1   9
BRANCH   2  15
ATOM     15  C   LIG    1       26.909 -17.393   3.253  0.00  0.00    +0.043 C 
BRANCH  15  16
ATOM     16  C   LIG    1       27.035 -16.064   4.017  0.00  0.00    +0.088 C 
BRANCH  16  17
ATOM     17  N   LIG    1       27.185 -14.884   3.136  0.00  0.00    -0.301 NA
ATOM     18  C   LIG    1       25.903 -14.165   2.972  0.00  0.00    +0.099 C 
ATOM     19  C   LIG    1       25.423 -13.490   4.263  0.00  0.00    +0.112 C 
ATOM     20  C   LIG    1       26.487 -12.544   4.825  0.00  0.00    +0.017 C 
ATOM     21  C   LIG    1       27.860 -13.214   4.896  0.00  0.00    +0.016 C 
ATOM     22  C   LIG    1       28.213 -13.930   3.589  0.00  0.00    +0.084 C 
BRANCH  19  23
ATOM     23  C   LIG    1       24.117 -12.787   4.018  0.00  0.00    +0.309 C 
ATOM     24  O   LIG    1       23.401 -12.937   3.030  0.00  0.00    -0.251 OA
BRANCH  23  25
ATOM     25  O   LIG    1       23.753 -11.931   4.985  0.00  0.00    -0.480 OA
ATOM     26  H   LIG    1       23.451 -11.135   4.500  0.00  0.00    +0.295 HD
ENDBRANCH  23  25
ENDBRANCH  19  23
ENDBRANCH  16  17
ENDBRANCH  15  16
ENDBRANCH   2  15
TORSDOF 7
ENDMDL
MODEL 3
REMARK VINA RESULT:      -3.7      1.326      1.983
REMARK  Name = *****
REMARK                            x       y       z     vdW  Elec       q    Type
REMARK                         _______ _______ _______ _____ _____    ______ ____
ROOT
ATOM      1  C   LIG    1       25.382 -19.409   4.665  0.00  0.00    -0.001 C 
ATOM      2  C   LIG    1       25.890 -18.366   3.966  0.00  0.00    -0.016 C 
ENDROOT
BRANCH   1   5
ATOM      3  C   LIG    1       22.664 -17.585   4.828  0.00  0.00    +0.045 C 
ATOM      4  C   LIG    1       22.811 -19.061   4.656  0.00  0.00    -0.036 A 
ATOM      5  C   LIG    1       23.995 -19.796   4.549  0.00  0.00    +0.023 A 
ATOM      6  S   LIG    1       23.634 -21.476   4.305  0.00  0.00    -0.096 S 
ATOM      7  C   LIG    1       21.952 -21.225   4.381  0.00  0.00    +0.046 A 
ATOM      8  C   LIG    1       21.647 -19.906   4.597  0.00  0.00    +0.011 A 
ENDBRANCH   1   5
BRANCH   1   9
ATOM      9  C   LIG    1       26.331 -20.132   5.483  0.00  0.00    +0.023 A 
ATOM     10  C   LIG    1       26.123 -21.067   6.500  0.00  0.00    -0.036 A 
ATOM     11  C   LIG    1       24.798 -21.555   6.994  0.00  0.00    +0.045 C 
ATOM     12  C   LIG    1       27.362 -21.529   7.062  0.00  0.00    +0.011 A 
ATOM     13  C   LIG    1       28.462 -20.980   6.449  0.00  0.00    +0.046 A 
ATOM     14  S   LIG    1       28.023 -19.905   5.203  0.00  0.00    -0.096 S 
ENDBRANCH   1   9
BRANCH   2  15
ATOM     15  C   LIG    1       25.202 -17.384   3.050  0.00  0.00    +0.043 C 
BRANCH  15  16
ATOM     16  C   LIG    1       25.930 -16.032   2.961  0.00  0.00    +0.088 C 
BRANCH  16  17
ATOM     17  N   LIG    1       25.395 -15.008   3.884  0.00  0.00    -0.301 NA
ATOM     18  C   LIG    1       26.482 -14.270   4.563  0.00  0.00    +0.099 C 
ATOM     19  C   LIG    1       27.298 -13.388   3.609  0.00  0.00    +0.112 C 
ATOM     20  C   LIG    1       26.398 -12.412   2.848  0.00  0.00    +0.017 C 
ATOM     21  C   LIG    1       25.190 -13.119   2.231  0.00  0.00    +0.016 C 
ATOM     22  C   LIG    1       24.492 -14.038   3.238  0.00  0.00    +0.084 C 
BRANCH  19  23
ATOM     23  C   LIG    1       28.383 -12.678   4.370  0.00  0.00    +0.309 C 
ATOM     24  O   LIG    1       29.475 -12.347   3.911  0.00  0.00    -0.251 OA
BRANCH  23  25
ATOM     25  O   LIG    1       28.087 -12.415   5.651  0.00  0.00    -0.480 OA
ATOM     26  H   LIG    1       27.236 -12.878   5.801  0.00  0.00    +0.295 HD
ENDBRANCH  23  25
ENDBRANCH  19  23
ENDBRANCH  16  17
ENDBRANCH  15  16
ENDBRANCH   2  15
TORSDOF 7
ENDMDL
