MODEL 1
REMARK VINA RESULT:      -5.1      0.000      0.000
REMARK  Name = *****
REMARK                            x       y       z     vdW  Elec       q    Type
REMARK                         _______ _______ _______ _____ _____    ______ ____
ROOT
ATOM      1  C   LIG    1       24.980 -21.492   5.917  0.00  0.00    +0.162 C 
ENDROOT
BRANCH   1   5
ATOM      2  C   LIG    1       29.029 -20.037   6.256  0.00  0.00    +0.000 A 
ATOM      3  C   LIG    1       28.595 -21.088   7.062  0.00  0.00    +0.000 A 
ATOM      4  C   LIG    1       27.287 -21.560   6.951  0.00  0.00    +0.004 A 
ATOM      5  C   LIG    1       26.396 -20.980   6.035  0.00  0.00    -0.036 A 
ATOM      6  C   LIG    1       26.845 -19.928   5.226  0.00  0.00    +0.004 A 
ATOM      7  C   LIG    1       28.154 -19.458   5.338  0.00  0.00    +0.000 A 
ENDBRANCH   1   5
BRANCH   1   8
ATOM      8  C   LIG    1       24.080 -20.537   5.169  0.00  0.00    +0.285 C 
ATOM      9  N   LIG    1       24.396 -20.075   3.912  0.00  0.00    -0.234 N 
ATOM     10  H   LIG    1       25.386 -19.965   3.713  0.00  0.00    +0.291 HD
ATOM     11  C   LIG    1       23.538 -18.945   3.642  0.00  0.00    +0.272 C 
ATOM     12  C   LIG    1       22.409 -19.187   4.648  0.00  0.00    +0.333 C 
ATOM     13  N   LIG    1       22.967 -20.090   5.696  0.00  0.00    -0.084 NA
ENDBRANCH   1   8
TORSDOF 2
ENDMDL
MODEL 2
REMARK VINA RESULT:      -5.1      2.923      4.893
REMARK  Name = *****
REMARK                            x       y       z     vdW  Elec       q    Type
REMARK                         _______ _______ _______ _____ _____    ______ ____
ROOT
ATOM      1  C   LIG    1       25.492 -18.487   2.933  0.00  0.00    +0.162 C 
ENDROOT
BRANCH   1   5
ATOM      2  C   LIG    1       23.067 -20.375   5.963  0.00  0.00    +0.000 A 
ATOM      3  C   LIG    1       22.485 -19.497   5.050  0.00  0.00    +0.000 A 
ATOM      4  C   LIG    1       23.268 -18.889   4.069  0.00  0.00    +0.004 A 
ATOM      5  C   LIG    1       24.645 -19.148   3.995  0.00  0.00    -0.036 A 
ATOM      6  C   LIG    1       25.218 -20.037   4.914  0.00  0.00    +0.004 A 
ATOM      7  C   LIG    1       24.432 -20.645   5.894  0.00  0.00    +0.000 A 
ENDBRANCH   1   5
BRANCH   1   8
ATOM      8  C   LIG    1       25.929 -17.095   3.323  0.00  0.00    +0.285 C 
ATOM      9  N   LIG    1       25.021 -16.083   3.539  0.00  0.00    -0.234 N 
ATOM     10  H   LIG    1       24.173 -16.119   2.983  0.00  0.00    +0.291 HD
ATOM     11  C   LIG    1       25.758 -14.841   3.543  0.00  0.00    +0.272 C 
ATOM     12  C   LIG    1       27.178 -15.342   3.826  0.00  0.00    +0.333 C 
ATOM     13  N   LIG    1       27.195 -16.785   3.451  0.00  0.00    -0.084 NA
ENDBRANCH   1   8
TORSDOF 2
ENDMDL
MODEL 3
REMARK VINA RESULT:      -5.1      2.945      4.765
REMARK  Name = *****
REMARK                            x       y       z     vdW  Elec       q    Type
REMARK                         _______ _______ _______ _____ _____    ______ ____
ROOT
ATOM      1  C   LIG    1       25.474 -18.494   2.928  0.00  0.00    +0.162 C 
ENDROOT
BRANCH   1   5
ATOM      2  C   LIG    1       23.008 -20.358   5.938  0.00  0.00    +0.000 A 
ATOM      3  C   LIG    1       24.373 -20.633   5.886  0.00  0.00    +0.000 A 
ATOM      4  C   LIG    1       25.171 -20.029   4.914  0.00  0.00    +0.004 A 
ATOM      5  C   LIG    1       24.609 -19.146   3.980  0.00  0.00    -0.036 A 
ATOM      6  C   LIG    1       23.236 -18.872   4.045  0.00  0.00    +0.004 A 
ATOM      7  C   LIG    1       22.441 -19.477   5.019  0.00  0.00    +0.000 A 
ENDBRANCH   1   5
BRANCH   1   8
ATOM      8  C   LIG    1       25.919 -17.105   3.322  0.00  0.00    +0.285 C 
ATOM      9  N   LIG    1       25.017 -16.087   3.536  0.00  0.00    -0.234 N 
ATOM     10  H   LIG    1       24.171 -16.116   2.976  0.00  0.00    +0.291 HD
ATOM     11  C   LIG    1       25.762 -14.850   3.546  0.00  0.00    +0.272 C 
ATOM     12  C   LIG    1       27.177 -15.361   3.834  0.00  0.00    +0.333 C 
ATOM     13  N   LIG    1       27.187 -16.804   3.457  0.00  0.00    -0.084 NA
ENDBRANCH   1   8
TORSDOF 2
ENDMDL
MODEL 4
REMARK VINA RESULT:      -5.0      2.213      4.946
REMARK  Name = *****
REMARK                            x       y       z     vdW  Elec       q    Type
REMARK                         _______ _______ _______ _____ _____    ______ ____
ROOT
ATOM      1  C   LIG    1       26.482 -19.699   4.362  0.00  0.00    +0.162 C 
ENDROOT
BRANCH   1   5
ATOM      2  C   LIG    1       22.868 -20.804   6.445  0.00  0.00    +0.000 A 
ATOM      3  C   LIG    1       22.796 -20.252   5.168  0.00  0.00    +0.000 A 
ATOM      4  C   LIG    1       23.964 -19.897   4.493  0.00  0.00    +0.004 A 
ATOM      5  C   LIG    1       25.218 -20.085   5.093  0.00  0.00    -0.036 A 
ATOM      6  C   LIG    1       25.279 -20.646   6.376  0.00  0.00    +0.004 A 
ATOM      7  C   LIG    1       24.109 -21.001   7.048  0.00  0.00    +0.000 A 
ENDBRANCH   1   5
BRANCH   1   8
ATOM      8  C   LIG    1       27.695 -19.694   5.262  0.00  0.00    +0.285 C 
ATOM      9  N   LIG    1       28.096 -20.820   5.944  0.00  0.00    -0.234 N 
ATOM     10  H   LIG    1       27.357 -21.453   6.234  0.00  0.00    +0.291 HD
ATOM     11  C   LIG    1       29.038 -20.396   6.954  0.00  0.00    +0.272 C 
ATOM     12  C   LIG    1       29.475 -19.038   6.396  0.00  0.00    +0.333 C 
ATOM     13  N   LIG    1       28.405 -18.610   5.450  0.00  0.00    -0.084 NA
ENDBRANCH   1   8
TORSDOF 2
ENDMDL
MODEL 5
REMARK VINA RESULT:      -4.9      1.395      2.217
REMARK  Name = *****
REMARK                            x       y       z     vdW  Elec       q    Type
REMARK                         _______ _______ _______ _____ _____    ______ ____
ROOT
ATOM      1  C   LIG    1       25.748 -20.012   4.588  0.00  0.00    +0.162 C 
ENDROOT
BRANCH   1   5
ATOM      2  C   LIG    1       29.413 -20.078   6.865  0.00  0.00    +0.000 A 
ATOM      3  C   LIG    1       29.188 -19.065   5.934  0.00  0.00    +0.000 A 
ATOM      4  C   LIG    1       28.002 -19.042   5.199  0.00  0.00    +0.004 A 
ATOM      5  C   LIG    1       27.031 -20.037   5.385  0.00  0.00    -0.036 A 
ATOM      6  C   LIG    1       27.265 -21.047   6.328  0.00  0.00    +0.004 A 
ATOM      7  C   LIG    1       28.452 -21.067   7.062  0.00  0.00    +0.000 A 
ENDBRANCH   1   5
BRANCH   1   8
ATOM      8  C   LIG    1       24.597 -20.658   5.322  0.00  0.00    +0.285 C 
ATOM      9  N   LIG    1       23.645 -21.405   4.665  0.00  0.00    -0.234 N 
ATOM     10  H   LIG    1       23.433 -21.120   3.714  0.00  0.00    +0.291 HD
ATOM     11  C   LIG    1       22.532 -21.572   5.570  0.00  0.00    +0.272 C 
ATOM     12  C   LIG    1       23.204 -21.291   6.917  0.00  0.00    +0.333 C 
ATOM     13  N   LIG    1       24.443 -20.517   6.615  0.00  0.00    -0.084 NA
ENDBRANCH   1   8
TORSDOF 2
ENDMDL
MODEL 6
REMARK VINA RESULT:      -4.4      4.108      5.935
REMARK  Name = *****
REMARK                            x       y       z     vdW  Elec       q    Type
REMARK                         _______ _______ _______ _____ _____    ______ ____
ROOT
ATOM      1  C   LIG    1       26.545 -16.635   3.367  0.00  0.00    +0.162 C 
ENDROOT
BRANCH   1   5
ATOM      2  C   LIG    1       24.449 -12.865   3.245  0.00  0.00    +0.000 A 
ATOM      3  C   LIG    1       23.997 -13.888   4.076  0.00  0.00    +0.000 A 
ATOM      4  C   LIG    1       24.676 -15.106   4.118  0.00  0.00    +0.004 A 
ATOM      5  C   LIG    1       25.812 -15.315   3.322  0.00  0.00    -0.036 A 
ATOM      6  C   LIG    1       26.261 -14.277   2.494  0.00  0.00    +0.004 A 
ATOM      7  C   LIG    1       25.581 -13.060   2.455  0.00  0.00    +0.000 A 
ENDBRANCH   1   5
BRANCH   1   8
ATOM      8  C   LIG    1       25.616 -17.808   3.567  0.00  0.00    +0.285 C 
ATOM      9  N   LIG    1       26.090 -19.072   3.836  0.00  0.00    -0.234 N 
ATOM     10  H   LIG    1       26.987 -19.309   3.423  0.00  0.00    +0.291 HD
ATOM     11  C   LIG    1       24.999 -19.994   3.622  0.00  0.00    +0.272 C 
ATOM     12  C   LIG    1       23.795 -19.052   3.722  0.00  0.00    +0.333 C 
ATOM     13  N   LIG    1       24.316 -17.677   3.470  0.00  0.00    -0.084 NA
ENDBRANCH   1   8
TORSDOF 2
ENDMDL
MODEL 7
REMARK VINA RESULT:      -4.4      3.692      5.142
REMARK  Name = *****
REMARK                            x       y       z     vdW  Elec       q    Type
REMARK                         _______ _______ _______ _____ _____    ______ ____
ROOT
ATOM      1  C   LIG    1       26.209 -17.399   2.881  0.00  0.00    +0.162 C 
ENDROOT
BRANCH   1   5
ATOM      2  C   LIG    1       25.835 -13.484   4.657  0.00  0.00    +0.000 A 
ATOM      3  C   LIG    1       27.098 -14.016   4.398  0.00  0.00    +0.000 A 
ATOM      4  C   LIG    1       27.219 -15.280   3.822  0.00  0.00    +0.004 A 
ATOM      5  C   LIG    1       26.077 -16.030   3.503  0.00  0.00    -0.036 A 
ATOM      6  C   LIG    1       24.812 -15.483   3.762  0.00  0.00    +0.004 A 
ATOM      7  C   LIG    1       24.694 -14.217   4.338  0.00  0.00    +0.000 A 
ENDBRANCH   1   5
BRANCH   1   8
ATOM      8  C   LIG    1       25.430 -18.455   3.629  0.00  0.00    +0.285 C 
ATOM      9  N   LIG    1       26.057 -19.428   4.374  0.00  0.00    -0.234 N 
ATOM     10  H   LIG    1       26.964 -19.733   4.036  0.00  0.00    +0.291 HD
ATOM     11  C   LIG    1       25.076 -20.451   4.654  0.00  0.00    +0.272 C 
ATOM     12  C   LIG    1       23.773 -19.677   4.433  0.00  0.00    +0.333 C 
ATOM     13  N   LIG    1       24.122 -18.502   3.583  0.00  0.00    -0.084 NA
ENDBRANCH   1   8
TORSDOF 2
ENDMDL
MODEL 8
REMARK VINA RESULT:      -4.3      5.306      7.248
REMARK  Name = *****
REMARK                            x       y       z     vdW  Elec       q    Type
REMARK                         _______ _______ _______ _____ _____    ______ ____
ROOT
ATOM      1  C   LIG    1       27.251 -14.651   3.344  0.00  0.00    +0.162 C 
ENDROOT
BRANCH   1   5
ATOM      2  C   LIG    1       23.871 -11.968   3.302  0.00  0.00    +0.000 A 
ATOM      3  C   LIG    1       24.257 -12.586   4.491  0.00  0.00    +0.000 A 
ATOM      4  C   LIG    1       25.351 -13.451   4.505  0.00  0.00    +0.004 A 
ATOM      5  C   LIG    1       26.067 -13.713   3.327  0.00  0.00    -0.036 A 
ATOM      6  C   LIG    1       25.674 -13.082   2.139  0.00  0.00    +0.004 A 
ATOM      7  C   LIG    1       24.580 -12.216   2.128  0.00  0.00    +0.000 A 
ENDBRANCH   1   5
BRANCH   1   8
ATOM      8  C   LIG    1       26.845 -16.094   3.531  0.00  0.00    +0.285 C 
ATOM      9  N   LIG    1       27.651 -16.995   4.188  0.00  0.00    -0.234 N 
ATOM     10  H   LIG    1       28.652 -16.846   4.099  0.00  0.00    +0.291 HD
ATOM     11  C   LIG    1       27.150 -18.316   3.888  0.00  0.00    +0.272 C 
ATOM     12  C   LIG    1       25.719 -17.994   3.446  0.00  0.00    +0.333 C 
ATOM     13  N   LIG    1       25.715 -16.554   3.055  0.00  0.00    -0.084 NA
ENDBRANCH   1   8
TORSDOF 2
ENDMDL
MODEL 9
REMARK VINA RESULT:      -4.1      4.522      6.382
REMARK  Name = *****
REMARK                            x       y       z     vdW  Elec       q    Type
REMARK                         _______ _______ _______ _____ _____    ______ ____
ROOT
ATOM      1  C   LIG    1       23.733 -14.662   4.204  0.00  0.00    +0.162 C 
ENDROOT
BRANCH   1   5
ATOM      2  C   LIG    1       23.274 -18.951   4.078  0.00  0.00    +0.000 A 
ATOM      3  C   LIG    1       24.458 -18.363   3.637  0.00  0.00    +0.000 A 
ATOM      4  C   LIG    1       24.608 -16.977   3.680  0.00  0.00    +0.004 A 
ATOM      5  C   LIG    1       23.570 -16.163   4.159  0.00  0.00    -0.036 A 
ATOM      6  C   LIG    1       22.385 -16.766   4.605  0.00  0.00    +0.004 A 
ATOM      7  C   LIG    1       22.239 -18.153   4.562  0.00  0.00    +0.000 A 
ENDBRANCH   1   5
BRANCH   1   8
ATOM      8  C   LIG    1       25.156 -14.225   3.949  0.00  0.00    +0.285 C 
ATOM      9  N   LIG    1       25.637 -14.028   2.675  0.00  0.00    -0.234 N 
ATOM     10  H   LIG    1       25.241 -14.620   1.952  0.00  0.00    +0.291 HD
ATOM     11  C   LIG    1       27.077 -13.966   2.766  0.00  0.00    +0.272 C 
ATOM     12  C   LIG    1       27.264 -13.634   4.249  0.00  0.00    +0.333 C 
ATOM     13  N   LIG    1       26.001 -14.037   4.932  0.00  0.00    -0.084 NA
ENDBRANCH   1   8
TORSDOF 2
ENDMDL
