MODEL 1
REMARK VINA RESULT:     -11.3      0.000      0.000
REMARK  Name = *****
REMARK                            x       y       z     vdW  Elec       q    Type
REMARK                         _______ _______ _______ _____ _____    ______ ____
ROOT
ATOM      1  C   LIG    1       24.550 -21.652   7.216  0.00  0.00    +0.213 C 
ENDROOT
BRANCH   1   2
ATOM      2  C   LIG    1       24.682 -23.150   6.891  0.00  0.00    -0.001 A 
ATOM      3  C   LIG    1       25.935 -23.795   6.898  0.00  0.00    +0.007 A 
ATOM      4  C   LIG    1       26.055 -25.157   6.607  0.00  0.00    +0.000 A 
ATOM      5  C   LIG    1       24.925 -25.906   6.297  0.00  0.00    +0.000 A 
ATOM      6  C   LIG    1       23.677 -25.292   6.271  0.00  0.00    +0.000 A 
ATOM      7  C   LIG    1       23.555 -23.930   6.570  0.00  0.00    +0.007 A 
ENDBRANCH   1   2
BRANCH   1   8
ATOM      8  C   LIG    1       24.198 -20.804   5.967  0.00  0.00    -0.001 A 
ATOM      9  C   LIG    1       22.981 -20.091   5.910  0.00  0.00    +0.007 A 
ATOM     10  C   LIG    1       22.649 -19.298   4.805  0.00  0.00    +0.000 A 
ATOM     11  C   LIG    1       23.518 -19.216   3.722  0.00  0.00    +0.000 A 
ATOM     12  C   LIG    1       24.710 -19.937   3.740  0.00  0.00    +0.000 A 
ATOM     13  C   LIG    1       25.043 -20.729   4.846  0.00  0.00    +0.007 A 
ENDBRANCH   1   8
BRANCH   1  14
ATOM     14  C   LIG    1       25.814 -21.104   7.985  0.00  0.00    +0.349 C 
ATOM     15  O   LIG    1       25.878 -20.710   9.149  0.00  0.00    -0.247 OA
BRANCH  14  16
ATOM     16  O   LIG    1       26.919 -21.177   7.168  0.00  0.00    -0.454 OA
BRANCH  16  20
ATOM     17  C   LIG    1       31.480 -20.388   8.685  0.00  0.00    +0.192 C 
ATOM     18  N   LIG    1       30.283 -19.653   8.064  0.00  0.00    +0.242 N 
ATOM     19  C   LIG    1       29.071 -20.599   8.095  0.00  0.00    +0.178 C 
ATOM     20  C   LIG    1       27.867 -20.091   7.286  0.00  0.00    +0.221 C 
ATOM     21  C   LIG    1       28.269 -19.663   5.874  0.00  0.00    +0.055 C 
ATOM     22  C   LIG    1       29.452 -18.707   5.875  0.00  0.00    +0.055 C 
ATOM     23  C   LIG    1       30.647 -19.284   6.621  0.00  0.00    +0.133 C 
ATOM     24  C   LIG    1       30.028 -18.404   8.911  0.00  0.00    +0.192 C 
ENDBRANCH  16  20
ENDBRANCH  14  16
ENDBRANCH   1  14
BRANCH   1  25
ATOM     25  O   LIG    1       23.461 -21.488   8.156  0.00  0.00    -0.370 OA
ATOM     26  H   LIG    1       23.450 -22.305   8.684  0.00  0.00    +0.212 HD
ENDBRANCH   1  25
TORSDOF 6
ENDMDL
MODEL 2
REMARK VINA RESULT:      -9.6      0.662      1.352
REMARK  Name = *****
REMARK                            x       y       z     vdW  Elec       q    Type
REMARK                         _______ _______ _______ _____ _____    ______ ____
ROOT
ATOM      1  C   LIG    1       24.437 -21.641   7.235  0.00  0.00    +0.213 C 
ENDROOT
BRANCH   1   2
ATOM      2  C   LIG    1       24.638 -23.131   6.907  0.00  0.00    -0.001 A 
ATOM      3  C   LIG    1       25.923 -23.708   6.874  0.00  0.00    +0.007 A 
ATOM      4  C   LIG    1       26.107 -25.062   6.579  0.00  0.00    +0.000 A 
ATOM      5  C   LIG    1       25.008 -25.871   6.306  0.00  0.00    +0.000 A 
ATOM      6  C   LIG    1       23.729 -25.324   6.321  0.00  0.00    +0.000 A 
ATOM      7  C   LIG    1       23.544 -23.971   6.622  0.00  0.00    +0.007 A 
ENDBRANCH   1   2
BRANCH   1   8
ATOM      8  C   LIG    1       24.155 -20.789   5.971  0.00  0.00    -0.001 A 
ATOM      9  C   LIG    1       22.978 -20.016   5.881  0.00  0.00    +0.007 A 
ATOM     10  C   LIG    1       22.711 -19.219   4.761  0.00  0.00    +0.000 A 
ATOM     11  C   LIG    1       23.607 -19.191   3.698  0.00  0.00    +0.000 A 
ATOM     12  C   LIG    1       24.760 -19.971   3.749  0.00  0.00    +0.000 A 
ATOM     13  C   LIG    1       25.028 -20.768   4.869  0.00  0.00    +0.007 A 
ENDBRANCH   1   8
BRANCH   1  14
ATOM     14  C   LIG    1       25.621 -21.066   8.105  0.00  0.00    +0.349 C 
ATOM     15  O   LIG    1       25.976 -21.422   9.227  0.00  0.00    -0.247 OA
BRANCH  14  16
ATOM     16  O   LIG    1       26.289 -20.097   7.392  0.00  0.00    -0.454 OA
BRANCH  16  20
ATOM     17  C   LIG    1       30.568 -18.226   8.776  0.00  0.00    +0.192 C 
ATOM     18  N   LIG    1       29.978 -19.360   7.924  0.00  0.00    +0.242 N 
ATOM     19  C   LIG    1       28.461 -19.134   7.807  0.00  0.00    +0.178 C 
ATOM     20  C   LIG    1       27.704 -20.319   7.191  0.00  0.00    +0.221 C 
ATOM     21  C   LIG    1       28.070 -21.642   7.864  0.00  0.00    +0.055 C 
ATOM     22  C   LIG    1       29.575 -21.853   7.941  0.00  0.00    +0.055 C 
ATOM     23  C   LIG    1       30.276 -20.689   8.629  0.00  0.00    +0.133 C 
ATOM     24  C   LIG    1       30.652 -19.294   6.552  0.00  0.00    +0.192 C 
ENDBRANCH  16  20
ENDBRANCH  14  16
ENDBRANCH   1  14
BRANCH   1  25
ATOM     25  O   LIG    1       23.274 -21.521   8.090  0.00  0.00    -0.370 OA
ATOM     26  H   LIG    1       22.905 -20.641   7.902  0.00  0.00    +0.212 HD
ENDBRANCH   1  25
TORSDOF 6
ENDMDL
MODEL 3
REMARK VINA RESULT:      -8.8      0.998      4.027
REMARK  Name = *****
REMARK                            x       y       z     vdW  Elec       q    Type
REMARK                         _______ _______ _______ _____ _____    ______ ____
ROOT
ATOM      1  C   LIG    1       25.702 -21.617   6.560  0.00  0.00    +0.213 C 
ENDROOT
BRANCH   1   2
ATOM      2  C   LIG    1       24.701 -20.725   5.804  0.00  0.00    -0.001 A 
ATOM      3  C   LIG    1       25.016 -20.167   4.550  0.00  0.00    +0.007 A 
ATOM      4  C   LIG    1       24.107 -19.359   3.861  0.00  0.00    +0.000 A 
ATOM      5  C   LIG    1       22.860 -19.085   4.415  0.00  0.00    +0.000 A 
ATOM      6  C   LIG    1       22.527 -19.613   5.658  0.00  0.00    +0.000 A 
ATOM      7  C   LIG    1       23.435 -20.428   6.344  0.00  0.00    +0.007 A 
ENDBRANCH   1   2
BRANCH   1   8
ATOM      8  C   LIG    1       25.294 -23.112   6.541  0.00  0.00    -0.001 A 
ATOM      9  C   LIG    1       23.934 -23.479   6.452  0.00  0.00    +0.007 A 
ATOM     10  C   LIG    1       23.540 -24.822   6.409  0.00  0.00    +0.000 A 
ATOM     11  C   LIG    1       24.497 -25.829   6.474  0.00  0.00    +0.000 A 
ATOM     12  C   LIG    1       25.843 -25.493   6.597  0.00  0.00    +0.000 A 
ATOM     13  C   LIG    1       26.238 -24.150   6.639  0.00  0.00    +0.007 A 
ENDBRANCH   1   8
BRANCH   1  14
ATOM     14  C   LIG    1       25.983 -21.081   8.016  0.00  0.00    +0.349 C 
ATOM     15  O   LIG    1       25.607 -21.562   9.084  0.00  0.00    -0.247 OA
BRANCH  14  16
ATOM     16  O   LIG    1       26.796 -19.972   7.951  0.00  0.00    -0.454 OA
BRANCH  16  20
ATOM     17  C   LIG    1       31.165 -17.946   8.683  0.00  0.00    +0.192 C 
ATOM     18  N   LIG    1       30.512 -19.184   8.050  0.00  0.00    +0.242 N 
ATOM     19  C   LIG    1       28.989 -18.970   8.038  0.00  0.00    +0.178 C 
ATOM     20  C   LIG    1       28.190 -20.226   7.659  0.00  0.00    +0.221 C 
ATOM     21  C   LIG    1       28.625 -21.445   8.472  0.00  0.00    +0.055 C 
ATOM     22  C   LIG    1       30.133 -21.649   8.445  0.00  0.00    +0.055 C 
ATOM     23  C   LIG    1       30.881 -20.405   8.901  0.00  0.00    +0.133 C 
ATOM     24  C   LIG    1       31.062 -19.310   6.628  0.00  0.00    +0.192 C 
ENDBRANCH  16  20
ENDBRANCH  14  16
ENDBRANCH   1  14
BRANCH   1  25
ATOM     25  O   LIG    1       26.983 -21.523   5.891  0.00  0.00    -0.370 OA
ATOM     26  H   LIG    1       26.887 -20.800   5.247  0.00  0.00    +0.212 HD
ENDBRANCH   1  25
TORSDOF 6
ENDMDL
MODEL 4
REMARK VINA RESULT:      -8.7      0.827      3.874
REMARK  Name = *****
REMARK                            x       y       z     vdW  Elec       q    Type
REMARK                         _______ _______ _______ _____ _____    ______ ____
ROOT
ATOM      1  C   LIG    1       25.534 -21.469   6.228  0.00  0.00    +0.213 C 
ENDROOT
BRANCH   1   2
ATOM      2  C   LIG    1       24.534 -20.534   5.525  0.00  0.00    -0.001 A 
ATOM      3  C   LIG    1       23.254 -20.293   6.062  0.00  0.00    +0.007 A 
ATOM      4  C   LIG    1       22.345 -19.441   5.425  0.00  0.00    +0.000 A 
ATOM      5  C   LIG    1       22.695 -18.814   4.234  0.00  0.00    +0.000 A 
ATOM      6  C   LIG    1       23.949 -19.043   3.677  0.00  0.00    +0.000 A 
ATOM      7  C   LIG    1       24.861 -19.890   4.317  0.00  0.00    +0.007 A 
ENDBRANCH   1   2
BRANCH   1   8
ATOM      8  C   LIG    1       25.007 -22.922   6.343  0.00  0.00    -0.001 A 
ATOM      9  C   LIG    1       23.628 -23.169   6.512  0.00  0.00    +0.007 A 
ATOM     10  C   LIG    1       23.124 -24.472   6.594  0.00  0.00    +0.000 A 
ATOM     11  C   LIG    1       23.989 -25.558   6.529  0.00  0.00    +0.000 A 
ATOM     12  C   LIG    1       25.358 -25.340   6.397  0.00  0.00    +0.000 A 
ATOM     13  C   LIG    1       25.865 -24.036   6.313  0.00  0.00    +0.007 A 
ENDBRANCH   1   8
BRANCH   1  14
ATOM     14  C   LIG    1       26.012 -20.883   7.613  0.00  0.00    +0.349 C 
ATOM     15  O   LIG    1       25.322 -20.383   8.500  0.00  0.00    -0.247 OA
BRANCH  14  16
ATOM     16  O   LIG    1       27.370 -21.060   7.745  0.00  0.00    -0.454 OA
BRANCH  16  20
ATOM     17  C   LIG    1       31.769 -19.465   9.100  0.00  0.00    +0.192 C 
ATOM     18  N   LIG    1       30.503 -19.001   8.364  0.00  0.00    +0.242 N 
ATOM     19  C   LIG    1       29.415 -20.071   8.557  0.00  0.00    +0.178 C 
ATOM     20  C   LIG    1       28.176 -19.861   7.675  0.00  0.00    +0.221 C 
ATOM     21  C   LIG    1       28.550 -19.633   6.210  0.00  0.00    +0.055 C 
ATOM     22  C   LIG    1       29.607 -18.551   6.046  0.00  0.00    +0.055 C 
ATOM     23  C   LIG    1       30.848 -18.841   6.878  0.00  0.00    +0.133 C 
ATOM     24  C   LIG    1       30.080 -17.668   8.984  0.00  0.00    +0.192 C 
ENDBRANCH  16  20
ENDBRANCH  14  16
ENDBRANCH   1  14
BRANCH   1  25
ATOM     25  O   LIG    1       26.740 -21.522   5.427  0.00  0.00    -0.370 OA
ATOM     26  H   LIG    1       27.400 -21.002   5.918  0.00  0.00    +0.212 HD
ENDBRANCH   1  25
TORSDOF 6
ENDMDL
