MODEL 1
REMARK VINA RESULT:      -8.0      0.000      0.000
REMARK  Name = *****
REMARK                            x       y       z     vdW  Elec       q    Type
REMARK                         _______ _______ _______ _____ _____    ______ ____
ROOT
ATOM      1  C   LIG    1       24.923 -20.746   5.705  0.00  0.00    +0.138 A 
ATOM      2  C   LIG    1       26.053 -20.036   5.212  0.00  0.00    -0.002 A 
ATOM      3  C   LIG    1       25.998 -19.407   3.841  0.00  0.00    +0.048 C 
ATOM      4  C   LIG    1       27.239 -19.972   5.999  0.00  0.00    -0.002 A 
ATOM      5  C   LIG    1       28.512 -19.371   5.451  0.00  0.00    +0.048 C 
ATOM      6  C   LIG    1       27.217 -20.484   7.309  0.00  0.00    +0.124 A 
ATOM      7  C   LIG    1       26.073 -21.150   7.763  0.00  0.00    +0.052 A 
ATOM      8  C   LIG    1       24.931 -21.327   6.976  0.00  0.00    -0.004 A 
ATOM      9  C   LIG    1       23.891 -22.247   7.549  0.00  0.00    +0.048 C 
ENDROOT
BRANCH   1  10
ATOM     10  O   LIG    1       23.899 -21.053   4.766  0.00  0.00    -0.425 OA
BRANCH  10  12
ATOM     11  C   LIG    1       22.517 -19.157   5.034  0.00  0.00    +0.136 C 
ATOM     12  C   LIG    1       22.557 -20.668   4.924  0.00  0.00    +0.309 C 
ATOM     13  O   LIG    1       21.591 -21.397   4.974  0.00  0.00    -0.251 OA
ENDBRANCH  10  12
ENDBRANCH   1  10
BRANCH   6  14
ATOM     14  O   LIG    1       28.340 -20.321   8.093  0.00  0.00    -0.489 OA
BRANCH  14  15
ATOM     15  C   LIG    1       29.078 -21.528   8.342  0.00  0.00    +0.261 C 
BRANCH  15  16
ATOM     16  C   LIG    1       30.571 -21.263   8.523  0.00  0.00    +0.166 C 
BRANCH  16  17
ATOM     17  O   LIG    1       31.039 -21.694   9.809  0.00  0.00    -0.387 OA
ATOM     18  H   LIG    1       30.772 -21.010  10.447  0.00  0.00    +0.210 HD
ENDBRANCH  16  17
BRANCH  16  19
ATOM     19  C   LIG    1       30.878 -19.758   8.364  0.00  0.00    +0.115 C 
BRANCH  19  20
ATOM     20  N   LIG    1       31.933 -19.268   9.281  0.00  0.00    -0.311 NA
ATOM     21  H   LIG    1       32.773 -19.087   8.728  0.00  0.00    +0.122 HD
BRANCH  20  22
ATOM     22  C   LIG    1       31.543 -18.017   9.961  0.00  0.00    +0.048 C 
ATOM     23  C   LIG    1       30.091 -17.632   9.665  0.00  0.00    +0.024 C 
ATOM     24  C   LIG    1       32.463 -16.871   9.518  0.00  0.00    +0.024 C 
ENDBRANCH  20  22
ENDBRANCH  19  20
ENDBRANCH  16  19
ENDBRANCH  15  16
ENDBRANCH  14  15
ENDBRANCH   6  14
TORSDOF 9
ENDMDL
MODEL 2
REMARK VINA RESULT:      -7.9      2.836      7.001
REMARK  Name = *****
REMARK                            x       y       z     vdW  Elec       q    Type
REMARK                         _______ _______ _______ _____ _____    ______ ____
ROOT
ATOM      1  C   LIG    1       29.978 -20.084   7.166  0.00  0.00    +0.138 A 
ATOM      2  C   LIG    1       29.031 -19.588   6.228  0.00  0.00    -0.002 A 
ATOM      3  C   LIG    1       29.377 -18.386   5.383  0.00  0.00    +0.048 C 
ATOM      4  C   LIG    1       27.749 -20.203   6.135  0.00  0.00    -0.002 A 
ATOM      5  C   LIG    1       26.657 -19.613   5.273  0.00  0.00    +0.048 C 
ATOM      6  C   LIG    1       27.502 -21.379   6.866  0.00  0.00    +0.124 A 
ATOM      7  C   LIG    1       28.475 -21.847   7.756  0.00  0.00    +0.052 A 
ATOM      8  C   LIG    1       29.700 -21.204   7.953  0.00  0.00    -0.004 A 
ATOM      9  C   LIG    1       30.523 -21.724   9.097  0.00  0.00    +0.048 C 
ENDROOT
BRANCH   1  10
ATOM     10  O   LIG    1       31.098 -19.252   7.446  0.00  0.00    -0.425 OA
BRANCH  10  12
ATOM     11  C   LIG    1       30.208 -17.698   8.985  0.00  0.00    +0.136 C 
ATOM     12  C   LIG    1       31.339 -18.666   8.700  0.00  0.00    +0.309 C 
ATOM     13  O   LIG    1       32.279 -18.877   9.434  0.00  0.00    -0.251 OA
ENDBRANCH  10  12
ENDBRANCH   1  10
BRANCH   6  14
ATOM     14  O   LIG    1       26.293 -22.019   6.685  0.00  0.00    -0.489 OA
BRANCH  14  15
ATOM     15  C   LIG    1       26.218 -23.334   7.258  0.00  0.00    +0.261 C 
BRANCH  15  16
ATOM     16  C   LIG    1       25.177 -24.208   6.561  0.00  0.00    +0.166 C 
BRANCH  16  17
ATOM     17  O   LIG    1       25.560 -24.526   5.215  0.00  0.00    -0.387 OA
ATOM     18  H   LIG    1       26.475 -24.852   5.255  0.00  0.00    +0.210 HD
ENDBRANCH  16  17
BRANCH  16  19
ATOM     19  C   LIG    1       23.806 -23.498   6.531  0.00  0.00    +0.115 C 
BRANCH  19  20
ATOM     20  N   LIG    1       23.698 -22.462   5.477  0.00  0.00    -0.311 NA
ATOM     21  H   LIG    1       23.254 -22.888   4.662  0.00  0.00    +0.122 HD
BRANCH  20  22
ATOM     22  C   LIG    1       22.879 -21.313   5.909  0.00  0.00    +0.048 C 
ATOM     23  C   LIG    1       22.872 -20.190   4.868  0.00  0.00    +0.024 C 
ATOM     24  C   LIG    1       23.412 -20.759   7.237  0.00  0.00    +0.024 C 
ENDBRANCH  20  22
ENDBRANCH  19  20
ENDBRANCH  16  19
ENDBRANCH  15  16
ENDBRANCH  14  15
ENDBRANCH   6  14
TORSDOF 9
ENDMDL
MODEL 3
REMARK VINA RESULT:      -7.7      1.227      1.271
REMARK  Name = *****
REMARK                            x       y       z     vdW  Elec       q    Type
REMARK                         _______ _______ _______ _____ _____    ______ ____
ROOT
ATOM      1  C   LIG    1       25.777 -21.078   5.955  0.00  0.00    +0.138 A 
ATOM      2  C   LIG    1       26.719 -20.110   5.508  0.00  0.00    -0.002 A 
ATOM      3  C   LIG    1       26.487 -19.393   4.201  0.00  0.00    +0.048 C 
ATOM      4  C   LIG    1       27.894 -19.869   6.277  0.00  0.00    -0.002 A 
ATOM      5  C   LIG    1       28.997 -18.972   5.763  0.00  0.00    +0.048 C 
ATOM      6  C   LIG    1       28.023 -20.483   7.536  0.00  0.00    +0.124 A 
ATOM      7  C   LIG    1       27.057 -21.407   7.948  0.00  0.00    +0.052 A 
ATOM      8  C   LIG    1       25.949 -21.750   7.168  0.00  0.00    -0.004 A 
ATOM      9  C   LIG    1       25.140 -22.911   7.674  0.00  0.00    +0.048 C 
ENDROOT
BRANCH   1  10
ATOM     10  O   LIG    1       24.804 -21.510   5.010  0.00  0.00    -0.425 OA
BRANCH  10  12
ATOM     11  C   LIG    1       22.939 -20.410   5.949  0.00  0.00    +0.136 C 
ATOM     12  C   LIG    1       23.666 -20.762   4.667  0.00  0.00    +0.309 C 
ATOM     13  O   LIG    1       23.308 -20.449   3.553  0.00  0.00    -0.251 OA
ENDBRANCH  10  12
ENDBRANCH   1  10
BRANCH   6  14
ATOM     14  O   LIG    1       29.117 -20.158   8.312  0.00  0.00    -0.489 OA
BRANCH  14  15
ATOM     15  C   LIG    1       30.093 -21.203   8.441  0.00  0.00    +0.261 C 
BRANCH  15  16
ATOM     16  C   LIG    1       31.510 -20.653   8.593  0.00  0.00    +0.166 C 
BRANCH  16  17
ATOM     17  O   LIG    1       32.292 -21.433   9.508  0.00  0.00    -0.387 OA
ATOM     18  H   LIG    1       32.020 -21.168  10.403  0.00  0.00    +0.210 HD
ENDBRANCH  16  17
BRANCH  16  19
ATOM     19  C   LIG    1       31.473 -19.192   9.092  0.00  0.00    +0.115 C 
BRANCH  19  20
ATOM     20  N   LIG    1       30.822 -19.035  10.414  0.00  0.00    -0.311 NA
ATOM     21  H   LIG    1       31.491 -19.320  11.131  0.00  0.00    +0.122 HD
BRANCH  20  22
ATOM     22  C   LIG    1       30.424 -17.638  10.675  0.00  0.00    +0.048 C 
ATOM     23  C   LIG    1       30.342 -16.814   9.388  0.00  0.00    +0.024 C 
ATOM     24  C   LIG    1       31.428 -16.976  11.628  0.00  0.00    +0.024 C 
ENDBRANCH  20  22
ENDBRANCH  19  20
ENDBRANCH  16  19
ENDBRANCH  15  16
ENDBRANCH  14  15
ENDBRANCH   6  14
TORSDOF 9
ENDMDL
MODEL 4
REMARK VINA RESULT:      -7.6      1.093      2.367
REMARK  Name = *****
REMARK                            x       y       z     vdW  Elec       q    Type
REMARK                         _______ _______ _______ _____ _____    ______ ____
ROOT
ATOM      1  C   LIG    1       24.829 -21.084   5.123  0.00  0.00    +0.138 A 
ATOM      2  C   LIG    1       24.903 -21.733   6.387  0.00  0.00    -0.002 A 
ATOM      3  C   LIG    1       23.870 -22.770   6.754  0.00  0.00    +0.048 C 
ATOM      4  C   LIG    1       25.923 -21.358   7.309  0.00  0.00    -0.002 A 
ATOM      5  C   LIG    1       25.944 -21.900   8.719  0.00  0.00    +0.048 C 
ATOM      6  C   LIG    1       26.924 -20.462   6.891  0.00  0.00    +0.124 A 
ATOM      7  C   LIG    1       26.826 -19.869   5.627  0.00  0.00    +0.052 A 
ATOM      8  C   LIG    1       25.777 -20.132   4.741  0.00  0.00    -0.004 A 
ATOM      9  C   LIG    1       25.723 -19.248   3.527  0.00  0.00    +0.048 C 
ENDROOT
BRANCH   1  10
ATOM     10  O   LIG    1       23.625 -21.257   4.384  0.00  0.00    -0.425 OA
BRANCH  10  12
ATOM     11  C   LIG    1       22.520 -19.301   5.108  0.00  0.00    +0.136 C 
ATOM     12  C   LIG    1       22.375 -20.779   4.810  0.00  0.00    +0.309 C 
ATOM     13  O   LIG    1       21.354 -21.419   4.931  0.00  0.00    -0.251 OA
ENDBRANCH  10  12
ENDBRANCH   1  10
BRANCH   6  14
ATOM     14  O   LIG    1       27.960 -20.189   7.759  0.00  0.00    -0.489 OA
BRANCH  14  15
ATOM     15  C   LIG    1       29.202 -20.834   7.435  0.00  0.00    +0.261 C 
BRANCH  15  16
ATOM     16  C   LIG    1       30.318 -19.830   7.156  0.00  0.00    +0.166 C 
BRANCH  16  17
ATOM     17  O   LIG    1       31.611 -20.365   7.472  0.00  0.00    -0.387 OA
ATOM     18  H   LIG    1       31.482 -20.993   8.204  0.00  0.00    +0.210 HD
ENDBRANCH  16  17
BRANCH  16  19
ATOM     19  C   LIG    1       30.102 -18.539   7.976  0.00  0.00    +0.115 C 
BRANCH  19  20
ATOM     20  N   LIG    1       31.342 -17.753   8.180  0.00  0.00    -0.311 NA
ATOM     21  H   LIG    1       31.209 -16.837   7.748  0.00  0.00    +0.122 HD
BRANCH  20  22
ATOM     22  C   LIG    1       31.646 -17.555   9.610  0.00  0.00    +0.048 C 
ATOM     23  C   LIG    1       30.387 -17.263  10.430  0.00  0.00    +0.024 C 
ATOM     24  C   LIG    1       32.633 -16.392   9.780  0.00  0.00    +0.024 C 
ENDBRANCH  20  22
ENDBRANCH  19  20
ENDBRANCH  16  19
ENDBRANCH  15  16
ENDBRANCH  14  15
ENDBRANCH   6  14
TORSDOF 9
ENDMDL
MODEL 5
REMARK VINA RESULT:      -7.5      1.573      2.724
REMARK  Name = *****
REMARK                            x       y       z     vdW  Elec       q    Type
REMARK                         _______ _______ _______ _____ _____    ______ ____
ROOT
ATOM      1  C   LIG    1       25.778 -21.043   5.724  0.00  0.00    +0.138 A 
ATOM      2  C   LIG    1       26.545 -21.655   6.755  0.00  0.00    -0.002 A 
ATOM      3  C   LIG    1       25.942 -22.774   7.568  0.00  0.00    +0.048 C 
ATOM      4  C   LIG    1       27.853 -21.168   7.039  0.00  0.00    -0.002 A 
ATOM      5  C   LIG    1       28.639 -21.676   8.225  0.00  0.00    +0.048 C 
ATOM      6  C   LIG    1       28.416 -20.193   6.195  0.00  0.00    +0.124 A 
ATOM      7  C   LIG    1       27.634 -19.639   5.175  0.00  0.00    +0.052 A 
ATOM      8  C   LIG    1       26.309 -20.016   4.940  0.00  0.00    -0.004 A 
ATOM      9  C   LIG    1       25.564 -19.166   3.949  0.00  0.00    +0.048 C 
ENDROOT
BRANCH   1  10
ATOM     10  O   LIG    1       24.387 -21.341   5.697  0.00  0.00    -0.425 OA
BRANCH  10  12
ATOM     11  C   LIG    1       22.518 -19.922   5.443  0.00  0.00    +0.136 C 
ATOM     12  C   LIG    1       23.424 -20.630   6.431  0.00  0.00    +0.309 C 
ATOM     13  O   LIG    1       23.322 -20.573   7.636  0.00  0.00    -0.251 OA
ENDBRANCH  10  12
ENDBRANCH   1  10
BRANCH   6  14
ATOM     14  O   LIG    1       29.721 -19.807   6.422  0.00  0.00    -0.489 OA
BRANCH  14  15
ATOM     15  C   LIG    1       29.866 -18.584   7.161  0.00  0.00    +0.261 C 
BRANCH  15  16
ATOM     16  C   LIG    1       30.425 -18.820   8.562  0.00  0.00    +0.166 C 
BRANCH  16  17
ATOM     17  O   LIG    1       29.519 -18.376   9.582  0.00  0.00    -0.387 OA
ATOM     18  H   LIG    1       29.442 -19.104  10.223  0.00  0.00    +0.210 HD
ENDBRANCH  16  17
BRANCH  16  19
ATOM     19  C   LIG    1       31.770 -18.083   8.740  0.00  0.00    +0.115 C 
BRANCH  19  20
ATOM     20  N   LIG    1       32.297 -18.139  10.124  0.00  0.00    -0.311 NA
ATOM     21  H   LIG    1       33.183 -18.649  10.104  0.00  0.00    +0.122 HD
BRANCH  20  22
ATOM     22  C   LIG    1       32.545 -16.794  10.680  0.00  0.00    +0.048 C 
ATOM     23  C   LIG    1       31.529 -16.425  11.764  0.00  0.00    +0.024 C 
ATOM     24  C   LIG    1       32.485 -15.746   9.561  0.00  0.00    +0.024 C 
ENDBRANCH  20  22
ENDBRANCH  19  20
ENDBRANCH  16  19
ENDBRANCH  15  16
ENDBRANCH  14  15
ENDBRANCH   6  14
TORSDOF 9
ENDMDL
MODEL 6
REMARK VINA RESULT:      -7.4      1.539      1.951
REMARK  Name = *****
REMARK                            x       y       z     vdW  Elec       q    Type
REMARK                         _______ _______ _______ _____ _____    ______ ____
ROOT
ATOM      1  C   LIG    1       25.919 -21.120   6.007  0.00  0.00    +0.138 A 
ATOM      2  C   LIG    1       26.621 -20.040   5.404  0.00  0.00    -0.002 A 
ATOM      3  C   LIG    1       25.951 -19.224   4.326  0.00  0.00    +0.048 C 
ATOM      4  C   LIG    1       27.967 -19.776   5.791  0.00  0.00    -0.002 A 
ATOM      5  C   LIG    1       28.804 -18.747   5.067  0.00  0.00    +0.048 C 
ATOM      6  C   LIG    1       28.520 -20.493   6.867  0.00  0.00    +0.124 A 
ATOM      7  C   LIG    1       27.781 -21.529   7.449  0.00  0.00    +0.052 A 
ATOM      8  C   LIG    1       26.500 -21.887   7.019  0.00  0.00    -0.004 A 
ATOM      9  C   LIG    1       25.952 -23.153   7.614  0.00  0.00    +0.048 C 
ENDROOT
BRANCH   1  10
ATOM     10  O   LIG    1       24.718 -21.540   5.368  0.00  0.00    -0.425 OA
BRANCH  10  12
ATOM     11  C   LIG    1       22.871 -20.086   5.591  0.00  0.00    +0.136 C 
ATOM     12  C   LIG    1       23.447 -21.439   5.957  0.00  0.00    +0.309 C 
ATOM     13  O   LIG    1       22.895 -22.270   6.644  0.00  0.00    -0.251 OA
ENDBRANCH  10  12
ENDBRANCH   1  10
BRANCH   6  14
ATOM     14  O   LIG    1       29.786 -20.154   7.296  0.00  0.00    -0.489 OA
BRANCH  14  15
ATOM     15  C   LIG    1       29.822 -19.205   8.373  0.00  0.00    +0.261 C 
BRANCH  15  16
ATOM     16  C   LIG    1       31.230 -18.668   8.622  0.00  0.00    +0.166 C 
BRANCH  16  17
ATOM     17  O   LIG    1       32.100 -19.676   9.157  0.00  0.00    -0.387 OA
ATOM     18  H   LIG    1       32.950 -19.586   8.693  0.00  0.00    +0.210 HD
ENDBRANCH  16  17
BRANCH  16  19
ATOM     19  C   LIG    1       31.190 -17.476   9.603  0.00  0.00    +0.115 C 
BRANCH  19  20
ATOM     20  N   LIG    1       31.921 -17.726  10.868  0.00  0.00    -0.311 NA
ATOM     21  H   LIG    1       32.365 -18.644  10.800  0.00  0.00    +0.122 HD
BRANCH  20  22
ATOM     22  C   LIG    1       32.971 -16.717  11.112  0.00  0.00    +0.048 C 
ATOM     23  C   LIG    1       32.733 -15.945  12.412  0.00  0.00    +0.024 C 
ATOM     24  C   LIG    1       33.024 -15.723   9.944  0.00  0.00    +0.024 C 
ENDBRANCH  20  22
ENDBRANCH  19  20
ENDBRANCH  16  19
ENDBRANCH  15  16
ENDBRANCH  14  15
ENDBRANCH   6  14
TORSDOF 9
ENDMDL
MODEL 7
REMARK VINA RESULT:      -7.3      3.578      7.595
REMARK  Name = *****
REMARK                            x       y       z     vdW  Elec       q    Type
REMARK                         _______ _______ _______ _____ _____    ______ ____
ROOT
ATOM      1  C   LIG    1       29.861 -20.145   7.135  0.00  0.00    +0.138 A 
ATOM      2  C   LIG    1       28.933 -19.637   6.184  0.00  0.00    -0.002 A 
ATOM      3  C   LIG    1       29.336 -18.491   5.288  0.00  0.00    +0.048 C 
ATOM      4  C   LIG    1       27.619 -20.184   6.125  0.00  0.00    -0.002 A 
ATOM      5  C   LIG    1       26.552 -19.571   5.247  0.00  0.00    +0.048 C 
ATOM      6  C   LIG    1       27.315 -21.314   6.905  0.00  0.00    +0.124 A 
ATOM      7  C   LIG    1       28.269 -21.798   7.807  0.00  0.00    +0.052 A 
ATOM      8  C   LIG    1       29.529 -21.216   7.969  0.00  0.00    -0.004 A 
ATOM      9  C   LIG    1       30.334 -21.734   9.128  0.00  0.00    +0.048 C 
ENDROOT
BRANCH   1  10
ATOM     10  O   LIG    1       31.027 -19.366   7.372  0.00  0.00    -0.425 OA
BRANCH  10  12
ATOM     11  C   LIG    1       30.263 -17.715   8.878  0.00  0.00    +0.136 C 
ATOM     12  C   LIG    1       31.324 -18.764   8.607  0.00  0.00    +0.309 C 
ATOM     13  O   LIG    1       32.257 -19.017   9.335  0.00  0.00    -0.251 OA
ENDBRANCH  10  12
ENDBRANCH   1  10
BRANCH   6  14
ATOM     14  O   LIG    1       26.071 -21.893   6.760  0.00  0.00    -0.489 OA
BRANCH  14  15
ATOM     15  C   LIG    1       26.044 -23.316   6.955  0.00  0.00    +0.261 C 
BRANCH  15  16
ATOM     16  C   LIG    1       25.264 -24.034   5.856  0.00  0.00    +0.166 C 
BRANCH  16  17
ATOM     17  O   LIG    1       24.795 -23.124   4.851  0.00  0.00    -0.387 OA
ATOM     18  H   LIG    1       23.824 -23.164   4.869  0.00  0.00    +0.210 HD
ENDBRANCH  16  17
BRANCH  16  19
ATOM     19  C   LIG    1       24.051 -24.780   6.452  0.00  0.00    +0.115 C 
BRANCH  19  20
ATOM     20  N   LIG    1       24.031 -26.227   6.133  0.00  0.00    -0.311 NA
ATOM     21  H   LIG    1       23.633 -26.338   5.199  0.00  0.00    +0.122 HD
BRANCH  20  22
ATOM     22  C   LIG    1       25.384 -26.816   6.137  0.00  0.00    +0.048 C 
ATOM     23  C   LIG    1       25.711 -27.514   4.814  0.00  0.00    +0.024 C 
ATOM     24  C   LIG    1       25.510 -27.832   7.281  0.00  0.00    +0.024 C 
ENDBRANCH  20  22
ENDBRANCH  19  20
ENDBRANCH  16  19
ENDBRANCH  15  16
ENDBRANCH  14  15
ENDBRANCH   6  14
TORSDOF 9
ENDMDL
MODEL 8
REMARK VINA RESULT:      -7.2      2.727      7.556
REMARK  Name = *****
REMARK                            x       y       z     vdW  Elec       q    Type
REMARK                         _______ _______ _______ _____ _____    ______ ____
ROOT
ATOM      1  C   LIG    1       29.418 -19.877   6.921  0.00  0.00    +0.138 A 
ATOM      2  C   LIG    1       28.684 -20.963   7.475  0.00  0.00    -0.002 A 
ATOM      3  C   LIG    1       29.275 -21.759   8.613  0.00  0.00    +0.048 C 
ATOM      4  C   LIG    1       27.423 -21.316   6.914  0.00  0.00    -0.002 A 
ATOM      5  C   LIG    1       26.684 -22.556   7.361  0.00  0.00    +0.048 C 
ATOM      6  C   LIG    1       26.862 -20.489   5.923  0.00  0.00    +0.124 A 
ATOM      7  C   LIG    1       27.608 -19.414   5.428  0.00  0.00    +0.052 A 
ATOM      8  C   LIG    1       28.895 -19.107   5.879  0.00  0.00    -0.004 A 
ATOM      9  C   LIG    1       29.622 -18.058   5.087  0.00  0.00    +0.048 C 
ENDROOT
BRANCH   1  10
ATOM     10  O   LIG    1       30.787 -19.773   7.295  0.00  0.00    -0.425 OA
BRANCH  10  12
ATOM     11  C   LIG    1       30.377 -17.945   8.732  0.00  0.00    +0.136 C 
ATOM     12  C   LIG    1       31.225 -19.178   8.489  0.00  0.00    +0.309 C 
ATOM     13  O   LIG    1       32.121 -19.561   9.208  0.00  0.00    -0.251 OA
ENDBRANCH  10  12
ENDBRANCH   1  10
BRANCH   6  14
ATOM     14  O   LIG    1       25.596 -20.786   5.465  0.00  0.00    -0.489 OA
BRANCH  14  15
ATOM     15  C   LIG    1       25.222 -20.112   4.252  0.00  0.00    +0.261 C 
BRANCH  15  16
ATOM     16  C   LIG    1       23.708 -19.977   4.111  0.00  0.00    +0.166 C 
BRANCH  16  17
ATOM     17  O   LIG    1       23.308 -18.614   3.907  0.00  0.00    -0.387 OA
ATOM     18  H   LIG    1       22.595 -18.434   4.543  0.00  0.00    +0.210 HD
ENDBRANCH  16  17
BRANCH  16  19
ATOM     19  C   LIG    1       22.995 -20.519   5.369  0.00  0.00    +0.115 C 
BRANCH  19  20
ATOM     20  N   LIG    1       22.779 -21.985   5.341  0.00  0.00    -0.311 NA
ATOM     21  H   LIG    1       23.581 -22.413   4.875  0.00  0.00    +0.122 HD
BRANCH  20  22
ATOM     22  C   LIG    1       22.668 -22.556   6.697  0.00  0.00    +0.048 C 
ATOM     23  C   LIG    1       23.327 -21.665   7.752  0.00  0.00    +0.024 C 
ATOM     24  C   LIG    1       23.323 -23.944   6.737  0.00  0.00    +0.024 C 
ENDBRANCH  20  22
ENDBRANCH  19  20
ENDBRANCH  16  19
ENDBRANCH  15  16
ENDBRANCH  14  15
ENDBRANCH   6  14
TORSDOF 9
ENDMDL
MODEL 9
REMARK VINA RESULT:      -6.8      2.637      7.392
REMARK  Name = *****
REMARK                            x       y       z     vdW  Elec       q    Type
REMARK                         _______ _______ _______ _____ _____    ______ ____
ROOT
ATOM      1  C   LIG    1       29.416 -19.951   7.033  0.00  0.00    +0.138 A 
ATOM      2  C   LIG    1       28.789 -21.057   7.671  0.00  0.00    -0.002 A 
ATOM      3  C   LIG    1       29.509 -21.785   8.781  0.00  0.00    +0.048 C 
ATOM      4  C   LIG    1       27.510 -21.495   7.220  0.00  0.00    -0.002 A 
ATOM      5  C   LIG    1       26.879 -22.758   7.756  0.00  0.00    +0.048 C 
ATOM      6  C   LIG    1       26.830 -20.731   6.254  0.00  0.00    +0.124 A 
ATOM      7  C   LIG    1       27.475 -19.633   5.673  0.00  0.00    +0.052 A 
ATOM      8  C   LIG    1       28.774 -19.244   6.014  0.00  0.00    -0.004 A 
ATOM      9  C   LIG    1       29.378 -18.182   5.140  0.00  0.00    +0.048 C 
ENDROOT
BRANCH   1  10
ATOM     10  O   LIG    1       30.802 -19.762   7.296  0.00  0.00    -0.425 OA
BRANCH  10  12
ATOM     11  C   LIG    1       30.529 -17.883   8.699  0.00  0.00    +0.136 C 
ATOM     12  C   LIG    1       31.298 -19.168   8.468  0.00  0.00    +0.309 C 
ATOM     13  O   LIG    1       32.185 -19.588   9.178  0.00  0.00    -0.251 OA
ENDBRANCH  10  12
ENDBRANCH   1  10
BRANCH   6  14
ATOM     14  O   LIG    1       25.551 -21.109   5.903  0.00  0.00    -0.489 OA
BRANCH  14  15
ATOM     15  C   LIG    1       24.529 -20.697   6.824  0.00  0.00    +0.261 C 
BRANCH  15  16
ATOM     16  C   LIG    1       23.241 -21.500   6.652  0.00  0.00    +0.166 C 
BRANCH  16  17
ATOM     17  O   LIG    1       23.498 -22.906   6.536  0.00  0.00    -0.387 OA
ATOM     18  H   LIG    1       22.780 -23.361   7.009  0.00  0.00    +0.210 HD
ENDBRANCH  16  17
BRANCH  16  19
ATOM     19  C   LIG    1       22.474 -21.031   5.397  0.00  0.00    +0.115 C 
BRANCH  19  20
ATOM     20  N   LIG    1       23.336 -20.866   4.203  0.00  0.00    -0.311 NA
ATOM     21  H   LIG    1       23.024 -21.532   3.494  0.00  0.00    +0.122 HD
BRANCH  20  22
ATOM     22  C   LIG    1       23.249 -19.506   3.637  0.00  0.00    +0.048 C 
ATOM     23  C   LIG    1       24.622 -18.836   3.539  0.00  0.00    +0.024 C 
ATOM     24  C   LIG    1       22.330 -18.635   4.505  0.00  0.00    +0.024 C 
ENDBRANCH  20  22
ENDBRANCH  19  20
ENDBRANCH  16  19
ENDBRANCH  15  16
ENDBRANCH  14  15
ENDBRANCH   6  14
TORSDOF 9
ENDMDL
