MODEL 1
REMARK VINA RESULT:      -4.2      0.000      0.000
REMARK  Name = *****
REMARK                            x       y       z     vdW  Elec       q    Type
REMARK                         _______ _______ _______ _____ _____    ______ ____
ROOT
ATOM      1  C   LIG    1       24.936 -12.064   3.198  0.00  0.00    +0.014 C 
ATOM      2  C   LIG    1       25.191 -13.482   3.792  0.00  0.00    -0.003 C 
ATOM      3  C   LIG    1       26.385 -13.338   4.779  0.00  0.00    +0.121 C 
ATOM      4  C   LIG    1       27.639 -13.794   4.019  0.00  0.00    +0.032 C 
ATOM      5  C   LIG    1       27.192 -14.042   2.579  0.00  0.00    +0.007 C 
ATOM      6  C   LIG    1       25.711 -14.438   2.683  0.00  0.00    +0.001 C 
ATOM      7  C   LIG    1       25.452 -15.976   2.859  0.00  0.00    +0.001 C 
ATOM      8  C   LIG    1       24.059 -16.296   3.469  0.00  0.00    +0.023 C 
ATOM      9  C   LIG    1       23.862 -17.754   3.883  0.00  0.00    -0.041 A 
ATOM     10  C   LIG    1       24.942 -18.651   3.978  0.00  0.00    -0.041 A 
ATOM     11  C   LIG    1       26.305 -18.280   3.480  0.00  0.00    +0.036 C 
ATOM     12  C   LIG    1       24.733 -19.936   4.505  0.00  0.00    +0.049 A 
ATOM     13  C   LIG    1       23.476 -20.324   4.937  0.00  0.00    +0.117 A 
ATOM     14  C   LIG    1       22.389 -19.467   4.816  0.00  0.00    +0.045 A 
ATOM     15  C   LIG    1       22.586 -18.194   4.278  0.00  0.00    +0.008 A 
ATOM     16  C   LIG    1       23.755 -15.417   4.694  0.00  0.00    +0.009 C 
ATOM     17  C   LIG    1       26.562 -16.780   3.561  0.00  0.00    +0.009 C 
ATOM     18  C   LIG    1       23.858 -13.935   4.393  0.00  0.00    +0.010 C 
ENDROOT
BRANCH   3  19
ATOM     19  O   LIG    1       26.230 -14.050   5.995  0.00  0.00    -0.391 OA
ATOM     20  H   LIG    1       26.473 -14.978   5.855  0.00  0.00    +0.210 HD
ENDBRANCH   3  19
BRANCH  13  21
ATOM     21  O   LIG    1       23.342 -21.566   5.484  0.00  0.00    -0.507 OA
ATOM     22  H   LIG    1       23.017 -22.170   4.798  0.00  0.00    +0.292 HD
ENDBRANCH  13  21
TORSDOF 2
ENDMDL
MODEL 2
REMARK VINA RESULT:      -2.6      1.306      6.224
REMARK  Name = *****
REMARK                            x       y       z     vdW  Elec       q    Type
REMARK                         _______ _______ _______ _____ _____    ______ ____
ROOT
ATOM      1  C   LIG    1       24.098 -21.572   3.256  0.00  0.00    +0.014 C 
ATOM      2  C   LIG    1       24.263 -20.202   3.982  0.00  0.00    -0.003 C 
ATOM      3  C   LIG    1       23.803 -20.424   5.452  0.00  0.00    +0.121 C 
ATOM      4  C   LIG    1       22.356 -19.920   5.539  0.00  0.00    +0.032 C 
ATOM      5  C   LIG    1       21.946 -19.565   4.111  0.00  0.00    +0.007 C 
ATOM      6  C   LIG    1       23.254 -19.171   3.406  0.00  0.00    +0.001 C 
ATOM      7  C   LIG    1       23.622 -17.648   3.508  0.00  0.00    +0.001 C 
ATOM      8  C   LIG    1       25.133 -17.367   3.269  0.00  0.00    +0.023 C 
ATOM      9  C   LIG    1       25.576 -15.942   3.598  0.00  0.00    -0.041 A 
ATOM     10  C   LIG    1       24.760 -15.059   4.329  0.00  0.00    -0.041 A 
ATOM     11  C   LIG    1       23.335 -15.400   4.642  0.00  0.00    +0.036 C 
ATOM     12  C   LIG    1       25.270 -13.816   4.734  0.00  0.00    +0.049 A 
ATOM     13  C   LIG    1       26.571 -13.454   4.427  0.00  0.00    +0.117 A 
ATOM     14  C   LIG    1       27.381 -14.294   3.672  0.00  0.00    +0.045 A 
ATOM     15  C   LIG    1       26.875 -15.526   3.252  0.00  0.00    +0.008 A 
ATOM     16  C   LIG    1       26.028 -18.332   4.065  0.00  0.00    +0.009 C 
ATOM     17  C   LIG    1       23.111 -16.903   4.755  0.00  0.00    +0.009 C 
ATOM     18  C   LIG    1       25.722 -19.788   3.777  0.00  0.00    +0.010 C 
ENDROOT
BRANCH   3  19
ATOM     19  O   LIG    1       24.626 -19.802   6.423  0.00  0.00    -0.391 OA
ATOM     20  H   LIG    1       24.090 -19.568   7.195  0.00  0.00    +0.210 HD
ENDBRANCH   3  19
BRANCH  13  21
ATOM     21  O   LIG    1       27.028 -12.255   4.887  0.00  0.00    -0.507 OA
ATOM     22  H   LIG    1       27.635 -11.883   4.228  0.00  0.00    +0.292 HD
ENDBRANCH  13  21
TORSDOF 2
ENDMDL
MODEL 3
REMARK VINA RESULT:      -1.7      1.481      1.979
REMARK  Name = *****
REMARK                            x       y       z     vdW  Elec       q    Type
REMARK                         _______ _______ _______ _____ _____    ______ ____
ROOT
ATOM      1  C   LIG    1       24.414 -12.498   2.546  0.00  0.00    +0.014 C 
ATOM      2  C   LIG    1       25.053 -13.588   3.459  0.00  0.00    -0.003 C 
ATOM      3  C   LIG    1       25.547 -12.856   4.740  0.00  0.00    +0.121 C 
ATOM      4  C   LIG    1       27.050 -12.606   4.549  0.00  0.00    +0.032 C 
ATOM      5  C   LIG    1       27.373 -13.044   3.121  0.00  0.00    +0.007 C 
ATOM      6  C   LIG    1       26.347 -14.141   2.799  0.00  0.00    +0.001 C 
ATOM      7  C   LIG    1       26.799 -15.596   3.177  0.00  0.00    +0.001 C 
ATOM      8  C   LIG    1       25.609 -16.585   3.335  0.00  0.00    +0.023 C 
ATOM      9  C   LIG    1       25.981 -17.939   3.937  0.00  0.00    -0.041 A 
ATOM     10  C   LIG    1       27.222 -18.159   4.563  0.00  0.00    -0.041 A 
ATOM     11  C   LIG    1       28.320 -17.142   4.488  0.00  0.00    +0.036 C 
ATOM     12  C   LIG    1       27.458 -19.371   5.231  0.00  0.00    +0.049 A 
ATOM     13  C   LIG    1       26.478 -20.348   5.286  0.00  0.00    +0.117 A 
ATOM     14  C   LIG    1       25.261 -20.167   4.641  0.00  0.00    +0.045 A 
ATOM     15  C   LIG    1       25.025 -18.971   3.961  0.00  0.00    +0.008 A 
ATOM     16  C   LIG    1       24.478 -15.987   4.190  0.00  0.00    +0.009 C 
ATOM     17  C   LIG    1       27.784 -15.722   4.354  0.00  0.00    +0.009 C 
ATOM     18  C   LIG    1       23.978 -14.660   3.655  0.00  0.00    +0.010 C 
ENDROOT
BRANCH   3  19
ATOM     19  O   LIG    1       25.288 -13.550   5.948  0.00  0.00    -0.391 OA
ATOM     20  H   LIG    1       24.862 -12.949   6.577  0.00  0.00    +0.210 HD
ENDBRANCH   3  19
BRANCH  13  21
ATOM     21  O   LIG    1       26.746 -21.485   5.989  0.00  0.00    -0.507 OA
ATOM     22  H   LIG    1       26.085 -22.155   5.753  0.00  0.00    +0.292 HD
ENDBRANCH  13  21
TORSDOF 2
ENDMDL
