MODEL 1
REMARK VINA RESULT:      12.0      0.000      0.000
REMARK  Name = *****
REMARK                            x       y       z     vdW  Elec       q    Type
REMARK                         _______ _______ _______ _____ _____    ______ ____
ROOT
ATOM      1  N   LIG    1       27.432 -17.501   3.440  0.00  0.00    -0.297 N 
ATOM      2  C   LIG    1       26.855 -16.422   2.612  0.00  0.00    +0.127 C 
ATOM      3  C   LIG    1       26.323 -15.277   3.505  0.00  0.00    +0.127 C 
ATOM      4  N   LIG    1       27.402 -14.795   4.378  0.00  0.00    -0.295 N 
ATOM      5  C   LIG    1       28.300 -13.784   3.992  0.00  0.00    +0.260 C 
ATOM      6  O   LIG    1       29.436 -13.745   4.456  0.00  0.00    -0.271 OA
ATOM      7  C   LIG    1       27.916 -15.868   5.252  0.00  0.00    +0.127 C 
ATOM      8  C   LIG    1       28.460 -17.039   4.400  0.00  0.00    +0.127 C 
ENDROOT
BRANCH   1  15
ATOM      9  C   LIG    1       21.944 -19.679   4.260  0.00  0.00    +0.164 A 
ATOM     10  C   LIG    1       22.282 -20.784   5.056  0.00  0.00    +0.162 A 
ATOM     11  C   LIG    1       23.620 -20.990   5.402  0.00  0.00    +0.062 A 
ATOM     12  C   LIG    1       24.627 -20.125   4.925  0.00  0.00    +0.044 A 
ATOM     13  C   LIG    1       24.290 -19.042   4.125  0.00  0.00    +0.082 A 
ATOM     14  N   LIG    1       25.201 -18.195   3.652  0.00  0.00    -0.214 NA
ATOM     15  C   LIG    1       26.491 -18.384   3.964  0.00  0.00    +0.220 A 
ATOM     16  N   LIG    1       26.907 -19.393   4.737  0.00  0.00    -0.199 NA
ATOM     17  C   LIG    1       25.991 -20.251   5.191  0.00  0.00    +0.129 A 
ATOM     18  C   LIG    1       22.958 -18.832   3.800  0.00  0.00    +0.078 A 
BRANCH  17  19
ATOM     19  N   LIG    1       26.501 -21.300   5.968  0.00  0.00    -0.343 N 
ATOM     20  H   LIG    1       25.789 -22.002   6.134  0.00  0.00    +0.144 HD
ATOM     21  H   LIG    1       27.277 -21.694   5.438  0.00  0.00    +0.144 HD
ENDBRANCH  17  19
BRANCH   9  23
ATOM     22  C   LIG    1       20.309 -18.427   3.073  0.00  0.00    +0.277 C 
ATOM     23  O   LIG    1       20.623 -19.529   3.918  0.00  0.00    -0.491 OA
ENDBRANCH   9  23
BRANCH  10  24
ATOM     24  O   LIG    1       21.258 -21.571   5.516  0.00  0.00    -0.491 OA
ATOM     25  C   LIG    1       20.070 -21.568   4.731  0.00  0.00    +0.277 C 
ENDBRANCH  10  24
ENDBRANCH   1  15
BRANCH   5  26
ATOM     26  C   LIG    1       27.754 -12.641   3.078  0.00  0.00    +0.296 C 
ATOM     27  O   LIG    1       26.919 -11.665   3.699  0.00  0.00    -0.472 OA
ATOM     28  C   LIG    1       25.633 -12.105   3.844  0.00  0.00    +0.163 A 
ATOM     29  C   LIG    1       25.100 -13.135   3.074  0.00  0.00    +0.162 A 
ATOM     30  C   LIG    1       23.813 -13.599   3.330  0.00  0.00    +0.049 A 
ATOM     31  C   LIG    1       23.058 -13.027   4.353  0.00  0.00    +0.004 A 
ATOM     32  C   LIG    1       23.575 -11.962   5.093  0.00  0.00    +0.004 A 
ATOM     33  O   LIG    1       25.785 -13.759   2.070  0.00  0.00    -0.484 OA
ATOM     34  C   LIG    1       24.860 -11.488   4.826  0.00  0.00    +0.049 A 
ATOM     35  C   LIG    1       27.063 -13.165   1.814  0.00  0.00    +0.283 C 
ENDBRANCH   5  26
TORSDOF 5
ENDMDL
