MODEL 1
REMARK VINA RESULT:       4.3      0.000      0.000
REMARK  Name = *****
REMARK                            x       y       z     vdW  Elec       q    Type
REMARK                         _______ _______ _______ _____ _____    ______ ____
ROOT
ATOM      1  C   LIG    1       23.631 -19.240   4.369  0.00  0.00    +0.145 C 
ATOM      2  C   LIG    1       22.992 -18.049   4.528  0.00  0.00    +0.076 C 
ATOM      3  S   LIG    1       22.612 -16.999   3.161  0.00  0.00    -0.107 S 
ATOM      4  C   LIG    1       22.866 -15.419   4.049  0.00  0.00    +0.093 C 
ATOM      5  C   LIG    1       22.242 -15.631   5.432  0.00  0.00    +0.094 C 
ATOM      6  S   LIG    1       22.614 -17.300   6.066  0.00  0.00    -0.114 S 
ENDROOT
BRANCH   4   7
ATOM      7  C   LIG    1       24.325 -14.964   3.990  0.00  0.00    -0.015 A 
ATOM      8  C   LIG    1       24.691 -13.638   4.311  0.00  0.00    +0.047 A 
ATOM      9 CL   LIG    1       23.529 -12.454   4.804  0.00  0.00    -0.083 Cl
ATOM     10  C   LIG    1       26.026 -13.215   4.254  0.00  0.00    +0.040 A 
ATOM     11  C   LIG    1       27.018 -14.103   3.862  0.00  0.00    +0.042 A 
ATOM     12 CL   LIG    1       28.657 -13.588   3.795  0.00  0.00    -0.084 Cl
ATOM     13  C   LIG    1       26.691 -15.409   3.527  0.00  0.00    +0.020 A 
ATOM     14  C   LIG    1       25.361 -15.835   3.594  0.00  0.00    +0.007 A 
ENDBRANCH   4   7
BRANCH   1  15
ATOM     15  N   LIG    1       24.088 -20.096   5.400  0.00  0.00    -0.296 N 
ATOM     16  C   LIG    1       25.377 -20.431   5.781  0.00  0.00    +0.204 A 
ATOM     17  N   LIG    1       25.425 -21.326   6.740  0.00  0.00    -0.244 NA
ATOM     18  C   LIG    1       24.126 -21.571   7.062  0.00  0.00    +0.130 A 
ATOM     19  C   LIG    1       23.289 -20.802   6.293  0.00  0.00    +0.113 A 
ENDBRANCH   1  15
BRANCH   1  21
ATOM     20  N   LIG    1       24.092 -20.057   1.990  0.00  0.00    -0.189 NA
ATOM     21  C   LIG    1       23.884 -19.689   3.061  0.00  0.00    +0.119 C 
ENDBRANCH   1  21
TORSDOF 3
ENDMDL
MODEL 2
REMARK VINA RESULT:       6.5      2.679      4.509
REMARK  Name = *****
REMARK                            x       y       z     vdW  Elec       q    Type
REMARK                         _______ _______ _______ _____ _____    ______ ____
ROOT
ATOM      1  C   LIG    1       22.771 -19.615   4.514  0.00  0.00    +0.145 C 
ATOM      2  C   LIG    1       23.904 -19.835   3.793  0.00  0.00    +0.076 C 
ATOM      3  S   LIG    1       25.470 -20.094   4.566  0.00  0.00    -0.107 S 
ATOM      4  C   LIG    1       26.464 -19.242   3.286  0.00  0.00    +0.093 C 
ATOM      5  C   LIG    1       25.854 -19.675   1.949  0.00  0.00    +0.094 C 
ATOM      6  S   LIG    1       24.033 -19.724   2.050  0.00  0.00    -0.114 S 
ENDROOT
BRANCH   4   7
ATOM      7  C   LIG    1       26.578 -17.742   3.564  0.00  0.00    -0.015 A 
ATOM      8  C   LIG    1       27.682 -17.210   4.266  0.00  0.00    +0.047 A 
ATOM      9 CL   LIG    1       28.976 -18.207   4.841  0.00  0.00    -0.083 Cl
ATOM     10  C   LIG    1       27.790 -15.838   4.528  0.00  0.00    +0.040 A 
ATOM     11  C   LIG    1       26.791 -14.972   4.104  0.00  0.00    +0.042 A 
ATOM     12 CL   LIG    1       26.922 -13.287   4.419  0.00  0.00    -0.084 Cl
ATOM     13  C   LIG    1       25.687 -15.463   3.423  0.00  0.00    +0.020 A 
ATOM     14  C   LIG    1       25.584 -16.831   3.153  0.00  0.00    +0.007 A 
ENDBRANCH   4   7
BRANCH   1  15
ATOM     15  N   LIG    1       21.496 -19.279   3.997  0.00  0.00    -0.296 N 
ATOM     16  C   LIG    1       20.331 -20.026   3.930  0.00  0.00    +0.204 A 
ATOM     17  N   LIG    1       19.351 -19.415   3.307  0.00  0.00    -0.244 NA
ATOM     18  C   LIG    1       19.845 -18.190   2.984  0.00  0.00    +0.130 A 
ATOM     19  C   LIG    1       21.135 -18.060   3.432  0.00  0.00    +0.113 A 
ENDBRANCH   1  15
BRANCH   1  21
ATOM     20  N   LIG    1       22.901 -19.801   7.061  0.00  0.00    -0.189 NA
ATOM     21  C   LIG    1       22.843 -19.717   5.914  0.00  0.00    +0.119 C 
ENDBRANCH   1  21
TORSDOF 3
ENDMDL
MODEL 3
REMARK VINA RESULT:       7.0      3.319      6.145
REMARK  Name = *****
REMARK                            x       y       z     vdW  Elec       q    Type
REMARK                         _______ _______ _______ _____ _____    ______ ____
ROOT
ATOM      1  C   LIG    1       22.978 -16.164   4.668  0.00  0.00    +0.145 C 
ATOM      2  C   LIG    1       22.731 -17.413   4.187  0.00  0.00    +0.076 C 
ATOM      3  S   LIG    1       22.047 -18.689   5.197  0.00  0.00    -0.107 S 
ATOM      4  C   LIG    1       22.978 -20.067   4.432  0.00  0.00    +0.093 C 
ATOM      5  C   LIG    1       22.959 -19.778   2.928  0.00  0.00    +0.094 C 
ATOM      6  S   LIG    1       23.199 -17.999   2.603  0.00  0.00    -0.114 S 
ENDROOT
BRANCH   4   7
ATOM      7  C   LIG    1       24.338 -20.271   5.100  0.00  0.00    -0.015 A 
ATOM      8  C   LIG    1       25.532 -19.851   4.471  0.00  0.00    +0.047 A 
ATOM      9 CL   LIG    1       25.535 -19.072   2.925  0.00  0.00    -0.083 Cl
ATOM     10  C   LIG    1       26.782 -20.039   5.076  0.00  0.00    +0.040 A 
ATOM     11  C   LIG    1       26.865 -20.662   6.315  0.00  0.00    +0.042 A 
ATOM     12 CL   LIG    1       28.396 -20.890   7.062  0.00  0.00    -0.084 Cl
ATOM     13  C   LIG    1       25.714 -21.098   6.954  0.00  0.00    +0.020 A 
ATOM     14  C   LIG    1       24.465 -20.901   6.355  0.00  0.00    +0.007 A 
ENDBRANCH   4   7
BRANCH   1  15
ATOM     15  N   LIG    1       23.630 -15.111   3.983  0.00  0.00    -0.296 N 
ATOM     16  C   LIG    1       23.123 -13.932   3.460  0.00  0.00    +0.204 A 
ATOM     17  N   LIG    1       24.015 -13.218   2.813  0.00  0.00    -0.244 NA
ATOM     18  C   LIG    1       25.181 -13.905   2.944  0.00  0.00    +0.130 A 
ATOM     19  C   LIG    1       24.988 -15.040   3.690  0.00  0.00    +0.113 A 
ENDBRANCH   1  15
BRANCH   1  21
ATOM     20  N   LIG    1       22.218 -15.612   7.046  0.00  0.00    -0.189 NA
ATOM     21  C   LIG    1       22.560 -15.861   5.976  0.00  0.00    +0.119 C 
ENDBRANCH   1  21
TORSDOF 3
ENDMDL
MODEL 4
REMARK VINA RESULT:       7.3      4.328      6.744
REMARK  Name = *****
REMARK                            x       y       z     vdW  Elec       q    Type
REMARK                         _______ _______ _______ _____ _____    ______ ____
ROOT
ATOM      1  C   LIG    1       24.961 -13.131   3.937  0.00  0.00    +0.145 C 
ATOM      2  C   LIG    1       26.123 -13.836   3.874  0.00  0.00    +0.076 C 
ATOM      3  S   LIG    1       26.602 -14.723   2.424  0.00  0.00    -0.107 S 
ATOM      4  C   LIG    1       27.407 -16.114   3.302  0.00  0.00    +0.093 C 
ATOM      5  C   LIG    1       28.179 -15.467   4.456  0.00  0.00    +0.094 C 
ATOM      6  S   LIG    1       27.207 -14.125   5.219  0.00  0.00    -0.114 S 
ENDROOT
BRANCH   4   7
ATOM      7  C   LIG    1       26.408 -17.220   3.645  0.00  0.00    -0.015 A 
ATOM      8  C   LIG    1       26.820 -18.395   4.313  0.00  0.00    +0.047 A 
ATOM      9 CL   LIG    1       28.461 -18.652   4.799  0.00  0.00    -0.083 Cl
ATOM     10  C   LIG    1       25.911 -19.414   4.626  0.00  0.00    +0.040 A 
ATOM     11  C   LIG    1       24.576 -19.285   4.266  0.00  0.00    +0.042 A 
ATOM     12 CL   LIG    1       23.456 -20.532   4.652  0.00  0.00    -0.084 Cl
ATOM     13  C   LIG    1       24.141 -18.151   3.597  0.00  0.00    +0.020 A 
ATOM     14  C   LIG    1       25.046 -17.129   3.294  0.00  0.00    +0.007 A 
ENDBRANCH   4   7
BRANCH   1  15
ATOM     15  N   LIG    1       24.426 -12.489   5.081  0.00  0.00    -0.296 N 
ATOM     16  C   LIG    1       23.128 -12.096   5.363  0.00  0.00    +0.204 A 
ATOM     17  N   LIG    1       23.010 -11.449   6.499  0.00  0.00    -0.244 NA
ATOM     18  C   LIG    1       24.259 -11.447   7.037  0.00  0.00    +0.130 A 
ATOM     19  C   LIG    1       25.135 -12.112   6.217  0.00  0.00    +0.113 A 
ENDBRANCH   1  15
BRANCH   1  21
ATOM     20  N   LIG    1       23.555 -12.921   1.812  0.00  0.00    -0.189 NA
ATOM     21  C   LIG    1       24.188 -13.015   2.769  0.00  0.00    +0.119 C 
ENDBRANCH   1  21
TORSDOF 3
ENDMDL
