MODEL 1
REMARK VINA RESULT:      28.8      0.000      0.000
REMARK  Name = *****
REMARK                            x       y       z     vdW  Elec       q    Type
REMARK                         _______ _______ _______ _____ _____    ______ ____
ROOT
ATOM      1  C   LIG    1       23.269 -31.827   9.458  0.00  0.00    +0.150 C 
ATOM      2  C   LIG    1       22.984 -30.752   8.342  0.00  0.00    +0.060 C 
ATOM      3  C   LIG    1       23.065 -29.334   8.899  0.00  0.00    +0.014 C 
ATOM      4  C   LIG    1       23.588 -30.996   6.905  0.00  0.00    +0.187 C 
ATOM      5  C   LIG    1       24.107 -29.738   6.091  0.00  0.00    +0.056 C 
ATOM      6  C   LIG    1       23.288 -29.597   4.796  0.00  0.00    +0.014 C 
ATOM      7  C   LIG    1       25.648 -29.728   5.869  0.00  0.00    +0.126 C 
ATOM      8  C   LIG    1       26.207 -28.604   4.927  0.00  0.00    +0.044 C 
ATOM      9  C   LIG    1       26.355 -29.204   3.506  0.00  0.00    +0.013 C 
ATOM     10  C   LIG    1       27.551 -27.951   5.393  0.00  0.00    +0.126 C 
ATOM     11  C   LIG    1       27.456 -26.706   6.348  0.00  0.00    +0.037 C 
ATOM     12  C   LIG    1       26.454 -25.647   5.884  0.00  0.00    +0.014 C 
ATOM     13  C   LIG    1       27.338 -27.076   7.807  0.00  0.00    -0.021 C 
ATOM     14  C   LIG    1       26.375 -26.800   8.711  0.00  0.00    -0.003 C 
ATOM     15  C   LIG    1       26.501 -27.361  10.037  0.00  0.00    +0.008 C 
ATOM     16  C   LIG    1       25.652 -27.538  11.072  0.00  0.00    +0.011 C 
ATOM     17  C   LIG    1       26.242 -28.383  12.152  0.00  0.00    +0.049 C 
ATOM     18  C   LIG    1       24.199 -27.104  11.111  0.00  0.00    +0.244 C 
ATOM     19  O   LIG    1       23.726 -26.497  10.143  0.00  0.00    -0.270 OA
ATOM     20  N   LIG    1       23.296 -27.511  12.075  0.00  0.00    -0.277 N 
ATOM     21  H   LIG    1       22.347 -27.474  11.714  0.00  0.00    +0.155 HD
ATOM     22  C   LIG    1       23.417 -28.051  13.338  0.00  0.00    +0.105 C 
ATOM     23  C   LIG    1       22.588 -29.001  13.807  0.00  0.00    +0.080 C 
ATOM     24  C   LIG    1       23.017 -29.775  14.996  0.00  0.00    +0.092 C 
ATOM     25  C   LIG    1       24.427 -29.708  15.350  0.00  0.00    +0.030 A 
ATOM     26  C   LIG    1       25.042 -28.464  15.271  0.00  0.00    +0.075 A 
ATOM     27  C   LIG    1       26.439 -28.333  15.440  0.00  0.00    +0.135 A 
ATOM     28  C   LIG    1       27.269 -29.451  15.290  0.00  0.00    +0.034 A 
ATOM     29  C   LIG    1       26.625 -30.638  14.970  0.00  0.00    +0.143 A 
ATOM     30  O   LIG    1       27.221 -31.662  14.258  0.00  0.00    -0.444 OA
ATOM     31  C   LIG    1       26.110 -32.362  13.560  0.00  0.00    +0.314 C 
ATOM     32  C   LIG    1       25.010 -32.113  14.591  0.00  0.00    +0.250 C 
ATOM     33  O   LIG    1       24.170 -32.889  14.983  0.00  0.00    -0.284 OA
ATOM     34  C   LIG    1       26.504 -33.825  13.434  0.00  0.00    +0.114 C 
ATOM     35  O   LIG    1       25.900 -31.762  12.261  0.00  0.00    -0.453 OA
ATOM     36  C   LIG    1       24.771 -32.084  11.540  0.00  0.00    +0.190 C 
ATOM     37  C   LIG    1       28.759 -29.319  15.196  0.00  0.00    +0.051 C 
ATOM     38  C   LIG    1       25.260 -30.796  15.142  0.00  0.00    +0.077 A 
ATOM     39  N   LIG    1       22.154 -30.617  15.485  0.00  0.00    -0.256 NA
ATOM     40  C   LIG    1       21.183 -30.767  14.346  0.00  0.00    +0.128 C 
ATOM     41  C   LIG    1       21.517 -32.115  13.708  0.00  0.00    +0.065 C 
ATOM     42  C   LIG    1       21.181 -33.253  14.678  0.00  0.00    +0.088 C 
ATOM     43  N   LIG    1       19.731 -33.341  14.921  0.00  0.00    -0.302 NA
ATOM     44  C   LIG    1       19.265 -32.069  15.497  0.00  0.00    +0.088 C 
ATOM     45  C   LIG    1       19.720 -30.766  14.803  0.00  0.00    +0.065 C 
ATOM     46  N   LIG    1       21.454 -29.656  13.386  0.00  0.00    -0.317 N 
ATOM     47  H   LIG    1       21.461 -29.928  12.406  0.00  0.00    +0.148 HD
ATOM     48  C   LIG    1       24.398 -27.486  14.347  0.00  0.00    +0.213 C 
ATOM     49  O   LIG    1       24.769 -26.318  14.339  0.00  0.00    -0.285 OA
ATOM     50  C   LIG    1       24.528 -31.593  10.305  0.00  0.00    +0.042 C 
ENDROOT
BRANCH   1  52
ATOM     51  C   LIG    1       21.194 -32.879  10.157  0.00  0.00    +0.194 C 
ATOM     52  O   LIG    1       22.171 -31.870  10.406  0.00  0.00    -0.375 OA
ENDBRANCH   1  52
BRANCH   7  53
ATOM     53  O   LIG    1       26.266 -29.716   7.152  0.00  0.00    -0.391 OA
ATOM     54  H   LIG    1       27.181 -29.408   7.043  0.00  0.00    +0.210 HD
ENDBRANCH   7  53
BRANCH  10  55
ATOM     55  O   LIG    1       28.332 -27.538   4.252  0.00  0.00    -0.391 OA
ATOM     56  H   LIG    1       27.942 -27.925   3.452  0.00  0.00    +0.210 HD
ENDBRANCH  10  55
BRANCH  27  57
ATOM     57  O   LIG    1       27.038 -27.099  15.488  0.00  0.00    -0.506 OA
ATOM     58  H   LIG    1       27.616 -27.047  16.281  0.00  0.00    +0.292 HD
ENDBRANCH  27  57
BRANCH   4  59
ATOM     59  O   LIG    1       24.511 -32.112   6.872  0.00  0.00    -0.461 OA
BRANCH  59  60
ATOM     60  C   LIG    1       24.511 -32.842   5.714  0.00  0.00    +0.304 C 
ATOM     61  O   LIG    1       25.493 -33.062   5.016  0.00  0.00    -0.251 OA
ATOM     62  C   LIG    1       23.145 -33.341   5.364  0.00  0.00    +0.136 C 
ENDBRANCH  59  60
ENDBRANCH   4  59
BRANCH  43  63
ATOM     63  C   LIG    1       19.043 -33.812  13.713  0.00  0.00    +0.087 C 
BRANCH  63  64
ATOM     64  C   LIG    1       17.802 -33.030  13.245  0.00  0.00    -0.003 C 
ATOM     65  C   LIG    1       16.486 -33.629  13.742  0.00  0.00    +0.008 C 
ATOM     66  C   LIG    1       17.809 -32.986  11.710  0.00  0.00    +0.008 C 
ENDBRANCH  63  64
ENDBRANCH  43  63
TORSDOF 8
ENDMDL
