MODEL 1
REMARK VINA RESULT:      -8.4      0.000      0.000
REMARK  Name = *****
REMARK                            x       y       z     vdW  Elec       q    Type
REMARK                         _______ _______ _______ _____ _____    ______ ____
ROOT
ATOM      1  N   LIG    1       25.145 -21.390   6.558  0.00  0.00    -0.298 N 
ATOM      2  C   LIG    1       26.525 -21.099   6.762  0.00  0.00    +0.048 A 
ATOM      3  C   LIG    1       27.259 -20.307   5.858  0.00  0.00    +0.034 A 
ATOM      4  C   LIG    1       28.638 -20.100   6.040  0.00  0.00    +0.017 A 
ATOM      5  C   LIG    1       29.304 -20.642   7.134  0.00  0.00    +0.001 A 
ATOM      6  C   LIG    1       28.584 -21.366   8.075  0.00  0.00    +0.002 A 
ATOM      7  S   LIG    1       26.550 -19.575   4.401  0.00  0.00    -0.086 S 
ATOM      8  C   LIG    1       24.809 -19.792   4.694  0.00  0.00    +0.034 A 
ATOM      9  C   LIG    1       23.951 -19.066   3.847  0.00  0.00    +0.017 A 
ATOM     10  C   LIG    1       22.573 -19.159   3.978  0.00  0.00    +0.001 A 
ATOM     11  C   LIG    1       22.041 -19.989   4.961  0.00  0.00    +0.002 A 
ATOM     12  C   LIG    1       22.892 -20.726   5.796  0.00  0.00    +0.024 A 
ATOM     13  C   LIG    1       27.211 -21.572   7.899  0.00  0.00    +0.024 A 
ATOM     14  C   LIG    1       24.294 -20.661   5.680  0.00  0.00    +0.048 A 
ENDROOT
BRANCH   1  15
ATOM     15  C   LIG    1       24.724 -22.783   6.887  0.00  0.00    +0.112 C 
BRANCH  15  16
ATOM     16  C   LIG    1       24.971 -23.799   5.754  0.00  0.00    +0.035 C 
BRANCH  16  17
ATOM     17  C   LIG    1       24.842 -25.254   6.226  0.00  0.00    +0.086 C 
BRANCH  17  22
ATOM     18  C   LIG    1       24.091 -29.942   6.116  0.00  0.00    +0.105 C 
ATOM     19  N   LIG    1       25.149 -28.937   6.063  0.00  0.00    -0.303 NA
ATOM     20  C   LIG    1       25.184 -28.146   7.308  0.00  0.00    +0.099 C 
ATOM     21  C   LIG    1       26.234 -27.011   7.249  0.00  0.00    +0.100 C 
ATOM     22  N   LIG    1       26.069 -26.070   6.115  0.00  0.00    -0.300 NA
ATOM     23  C   LIG    1       26.013 -26.892   4.875  0.00  0.00    +0.100 C 
ATOM     24  C   LIG    1       24.975 -28.048   4.899  0.00  0.00    +0.099 C 
ENDBRANCH  17  22
ENDBRANCH  16  17
ENDBRANCH  15  16
ENDBRANCH   1  15
TORSDOF 4
ENDMDL
MODEL 2
REMARK VINA RESULT:      -8.2      2.632      6.595
REMARK  Name = *****
REMARK                            x       y       z     vdW  Elec       q    Type
REMARK                         _______ _______ _______ _____ _____    ______ ____
ROOT
ATOM      1  N   LIG    1       25.356 -21.565   5.455  0.00  0.00    -0.298 N 
ATOM      2  C   LIG    1       24.957 -22.874   5.855  0.00  0.00    +0.048 A 
ATOM      3  C   LIG    1       23.624 -23.174   6.194  0.00  0.00    +0.034 A 
ATOM      4  C   LIG    1       23.272 -24.452   6.662  0.00  0.00    +0.017 A 
ATOM      5  C   LIG    1       24.223 -25.461   6.770  0.00  0.00    +0.001 A 
ATOM      6  C   LIG    1       25.529 -25.206   6.372  0.00  0.00    +0.002 A 
ATOM      7  S   LIG    1       22.309 -21.979   6.136  0.00  0.00    -0.086 S 
ATOM      8  C   LIG    1       23.065 -20.648   5.231  0.00  0.00    +0.034 A 
ATOM      9  C   LIG    1       22.190 -19.647   4.769  0.00  0.00    +0.017 A 
ATOM     10  C   LIG    1       22.666 -18.557   4.056  0.00  0.00    +0.001 A 
ATOM     11  C   LIG    1       24.031 -18.457   3.802  0.00  0.00    +0.002 A 
ATOM     12  C   LIG    1       24.908 -19.443   4.275  0.00  0.00    +0.024 A 
ATOM     13  C   LIG    1       25.883 -23.936   5.903  0.00  0.00    +0.024 A 
ATOM     14  C   LIG    1       24.456 -20.555   5.011  0.00  0.00    +0.048 A 
ENDROOT
BRANCH   1  15
ATOM     15  C   LIG    1       26.668 -21.098   5.988  0.00  0.00    +0.112 C 
BRANCH  15  16
ATOM     16  C   LIG    1       26.617 -20.622   7.454  0.00  0.00    +0.035 C 
BRANCH  16  17
ATOM     17  C   LIG    1       27.990 -20.177   7.979  0.00  0.00    +0.086 C 
BRANCH  17  22
ATOM     18  C   LIG    1       32.058 -17.892   8.862  0.00  0.00    +0.105 C 
ATOM     19  N   LIG    1       31.492 -18.991   8.084  0.00  0.00    -0.303 NA
ATOM     20  C   LIG    1       30.466 -18.494   7.146  0.00  0.00    +0.099 C 
ATOM     21  C   LIG    1       29.780 -19.645   6.371  0.00  0.00    +0.100 C 
ATOM     22  N   LIG    1       29.155 -20.684   7.224  0.00  0.00    -0.300 NA
ATOM     23  C   LIG    1       30.202 -21.150   8.174  0.00  0.00    +0.100 C 
ATOM     24  C   LIG    1       30.919 -20.023   8.967  0.00  0.00    +0.099 C 
ENDBRANCH  17  22
ENDBRANCH  16  17
ENDBRANCH  15  16
ENDBRANCH   1  15
TORSDOF 4
ENDMDL
MODEL 3
REMARK VINA RESULT:      -7.7      1.082      1.426
REMARK  Name = *****
REMARK                            x       y       z     vdW  Elec       q    Type
REMARK                         _______ _______ _______ _____ _____    ______ ____
ROOT
ATOM      1  N   LIG    1       25.602 -21.018   6.836  0.00  0.00    -0.298 N 
ATOM      2  C   LIG    1       26.930 -20.501   6.810  0.00  0.00    +0.048 A 
ATOM      3  C   LIG    1       27.436 -19.805   5.696  0.00  0.00    +0.034 A 
ATOM      4  C   LIG    1       28.774 -19.375   5.663  0.00  0.00    +0.017 A 
ATOM      5  C   LIG    1       29.622 -19.595   6.744  0.00  0.00    +0.001 A 
ATOM      6  C   LIG    1       29.123 -20.216   7.881  0.00  0.00    +0.002 A 
ATOM      7  S   LIG    1       26.480 -19.477   4.233  0.00  0.00    -0.086 S 
ATOM      8  C   LIG    1       24.834 -19.876   4.776  0.00  0.00    +0.034 A 
ATOM      9  C   LIG    1       23.791 -19.457   3.928  0.00  0.00    +0.017 A 
ATOM     10  C   LIG    1       22.466 -19.715   4.245  0.00  0.00    +0.001 A 
ATOM     11  C   LIG    1       22.172 -20.404   5.419  0.00  0.00    +0.002 A 
ATOM     12  C   LIG    1       23.208 -20.838   6.257  0.00  0.00    +0.024 A 
ATOM     13  C   LIG    1       27.791 -20.643   7.918  0.00  0.00    +0.024 A 
ATOM     14  C   LIG    1       24.564 -20.600   5.956  0.00  0.00    +0.048 A 
ENDROOT
BRANCH   1  15
ATOM     15  C   LIG    1       25.445 -22.365   7.457  0.00  0.00    +0.112 C 
BRANCH  15  16
ATOM     16  C   LIG    1       26.423 -23.426   6.912  0.00  0.00    +0.035 C 
BRANCH  16  17
ATOM     17  C   LIG    1       25.797 -24.826   6.842  0.00  0.00    +0.086 C 
BRANCH  17  22
ATOM     18  C   LIG    1       25.396 -29.359   5.485  0.00  0.00    +0.105 C 
ATOM     19  N   LIG    1       24.898 -28.016   5.199  0.00  0.00    -0.303 NA
ATOM     20  C   LIG    1       25.998 -27.131   4.768  0.00  0.00    +0.099 C 
ATOM     21  C   LIG    1       25.521 -25.676   4.545  0.00  0.00    +0.100 C 
ATOM     22  N   LIG    1       24.864 -25.050   5.718  0.00  0.00    -0.300 NA
ATOM     23  C   LIG    1       23.776 -25.972   6.147  0.00  0.00    +0.100 C 
ATOM     24  C   LIG    1       24.215 -27.445   6.375  0.00  0.00    +0.099 C 
ENDBRANCH  17  22
ENDBRANCH  16  17
ENDBRANCH  15  16
ENDBRANCH   1  15
TORSDOF 4
ENDMDL
MODEL 4
REMARK VINA RESULT:      -7.1      2.436      7.180
REMARK  Name = *****
REMARK                            x       y       z     vdW  Elec       q    Type
REMARK                         _______ _______ _______ _____ _____    ______ ____
ROOT
ATOM      1  N   LIG    1       25.075 -22.750   7.064  0.00  0.00    -0.298 N 
ATOM      2  C   LIG    1       24.232 -21.768   6.467  0.00  0.00    +0.048 A 
ATOM      3  C   LIG    1       23.856 -21.836   5.112  0.00  0.00    +0.034 A 
ATOM      4  C   LIG    1       23.089 -20.813   4.527  0.00  0.00    +0.017 A 
ATOM      5  C   LIG    1       22.654 -19.726   5.280  0.00  0.00    +0.001 A 
ATOM      6  C   LIG    1       22.953 -19.677   6.634  0.00  0.00    +0.002 A 
ATOM      7  S   LIG    1       24.362 -23.145   4.022  0.00  0.00    -0.086 S 
ATOM      8  C   LIG    1       25.013 -24.342   5.166  0.00  0.00    +0.034 A 
ATOM      9  C   LIG    1       25.247 -25.626   4.641  0.00  0.00    +0.017 A 
ATOM     10  C   LIG    1       25.758 -26.640   5.438  0.00  0.00    +0.001 A 
ATOM     11  C   LIG    1       26.045 -26.373   6.773  0.00  0.00    +0.002 A 
ATOM     12  C   LIG    1       25.829 -25.090   7.296  0.00  0.00    +0.024 A 
ATOM     13  C   LIG    1       23.714 -20.695   7.221  0.00  0.00    +0.024 A 
ATOM     14  C   LIG    1       25.321 -24.038   6.509  0.00  0.00    +0.048 A 
ENDROOT
BRANCH   1  15
ATOM     15  C   LIG    1       26.100 -22.229   8.015  0.00  0.00    +0.112 C 
BRANCH  15  16
ATOM     16  C   LIG    1       27.027 -21.155   7.413  0.00  0.00    +0.035 C 
BRANCH  16  17
ATOM     17  C   LIG    1       28.322 -20.972   8.219  0.00  0.00    +0.086 C 
BRANCH  17  22
ATOM     18  C   LIG    1       31.358 -17.406   9.002  0.00  0.00    +0.105 C 
ATOM     19  N   LIG    1       31.193 -18.640   8.240  0.00  0.00    -0.303 NA
ATOM     20  C   LIG    1       30.039 -18.541   7.326  0.00  0.00    +0.099 C 
ATOM     21  C   LIG    1       29.780 -19.866   6.569  0.00  0.00    +0.100 C 
ATOM     22  N   LIG    1       29.574 -21.049   7.439  0.00  0.00    -0.300 NA
ATOM     23  C   LIG    1       30.738 -21.113   8.366  0.00  0.00    +0.100 C 
ATOM     24  C   LIG    1       31.034 -19.798   9.139  0.00  0.00    +0.099 C 
ENDBRANCH  17  22
ENDBRANCH  16  17
ENDBRANCH  15  16
ENDBRANCH   1  15
TORSDOF 4
ENDMDL
MODEL 5
REMARK VINA RESULT:      -6.5      1.426      4.131
REMARK  Name = *****
REMARK                            x       y       z     vdW  Elec       q    Type
REMARK                         _______ _______ _______ _____ _____    ______ ____
ROOT
ATOM      1  N   LIG    1       26.482 -21.272   6.520  0.00  0.00    -0.298 N 
ATOM      2  C   LIG    1       25.785 -20.832   5.358  0.00  0.00    +0.048 A 
ATOM      3  C   LIG    1       26.196 -19.701   4.628  0.00  0.00    +0.034 A 
ATOM      4  C   LIG    1       25.446 -19.241   3.532  0.00  0.00    +0.017 A 
ATOM      5  C   LIG    1       24.299 -19.911   3.119  0.00  0.00    +0.001 A 
ATOM      6  C   LIG    1       23.917 -21.070   3.780  0.00  0.00    +0.002 A 
ATOM      7  S   LIG    1       27.621 -18.727   5.056  0.00  0.00    -0.086 S 
ATOM      8  C   LIG    1       28.436 -19.774   6.241  0.00  0.00    +0.034 A 
ATOM      9  C   LIG    1       29.755 -19.412   6.572  0.00  0.00    +0.017 A 
ATOM     10  C   LIG    1       30.489 -20.151   7.488  0.00  0.00    +0.001 A 
ATOM     11  C   LIG    1       29.902 -21.262   8.087  0.00  0.00    +0.002 A 
ATOM     12  C   LIG    1       28.583 -21.616   7.773  0.00  0.00    +0.024 A 
ATOM     13  C   LIG    1       24.663 -21.533   4.871  0.00  0.00    +0.024 A 
ATOM     14  C   LIG    1       27.809 -20.879   6.854  0.00  0.00    +0.048 A 
ENDROOT
BRANCH   1  15
ATOM     15  C   LIG    1       25.626 -21.746   7.647  0.00  0.00    +0.112 C 
BRANCH  15  16
ATOM     16  C   LIG    1       24.843 -23.038   7.340  0.00  0.00    +0.035 C 
BRANCH  16  17
ATOM     17  C   LIG    1       25.741 -24.283   7.321  0.00  0.00    +0.086 C 
BRANCH  17  22
ATOM     18  C   LIG    1       24.082 -28.643   6.433  0.00  0.00    +0.105 C 
ATOM     19  N   LIG    1       24.836 -27.546   5.832  0.00  0.00    -0.303 NA
ATOM     20  C   LIG    1       26.075 -27.285   6.590  0.00  0.00    +0.099 C 
ATOM     21  C   LIG    1       26.852 -26.067   6.035  0.00  0.00    +0.100 C 
ATOM     22  N   LIG    1       26.075 -24.805   5.980  0.00  0.00    -0.300 NA
ATOM     23  C   LIG    1       24.822 -25.101   5.232  0.00  0.00    +0.100 C 
ATOM     24  C   LIG    1       24.016 -26.322   5.756  0.00  0.00    +0.099 C 
ENDBRANCH  17  22
ENDBRANCH  16  17
ENDBRANCH  15  16
ENDBRANCH   1  15
TORSDOF 4
ENDMDL
MODEL 6
REMARK VINA RESULT:      -6.1      4.075      9.679
REMARK  Name = *****
REMARK                            x       y       z     vdW  Elec       q    Type
REMARK                         _______ _______ _______ _____ _____    ______ ____
ROOT
ATOM      1  N   LIG    1       24.625 -30.964   7.130  0.00  0.00    -0.298 N 
ATOM      2  C   LIG    1       25.590 -31.779   6.469  0.00  0.00    +0.048 A 
ATOM      3  C   LIG    1       26.709 -32.302   7.145  0.00  0.00    +0.034 A 
ATOM      4  C   LIG    1       27.687 -33.037   6.452  0.00  0.00    +0.017 A 
ATOM      5  C   LIG    1       27.557 -33.296   5.092  0.00  0.00    +0.001 A 
ATOM      6  C   LIG    1       26.425 -32.852   4.423  0.00  0.00    +0.002 A 
ATOM      7  S   LIG    1       27.024 -32.027   8.872  0.00  0.00    -0.086 S 
ATOM      8  C   LIG    1       25.469 -31.362   9.425  0.00  0.00    +0.034 A 
ATOM      9  C   LIG    1       25.294 -31.294  10.820  0.00  0.00    +0.017 A 
ATOM     10  C   LIG    1       24.124 -30.790  11.368  0.00  0.00    +0.001 A 
ATOM     11  C   LIG    1       23.116 -30.342  10.519  0.00  0.00    +0.002 A 
ATOM     12  C   LIG    1       23.294 -30.392   9.130  0.00  0.00    +0.024 A 
ATOM     13  C   LIG    1       25.447 -32.122   5.109  0.00  0.00    +0.024 A 
ATOM     14  C   LIG    1       24.475 -30.889   8.544  0.00  0.00    +0.048 A 
ENDROOT
BRANCH   1  15
ATOM     15  C   LIG    1       24.113 -29.804   6.344  0.00  0.00    +0.112 C 
BRANCH  15  16
ATOM     16  C   LIG    1       24.763 -28.456   6.717  0.00  0.00    +0.035 C 
BRANCH  16  17
ATOM     17  C   LIG    1       24.387 -27.329   5.745  0.00  0.00    +0.086 C 
BRANCH  17  22
ATOM     18  C   LIG    1       24.928 -22.841   7.199  0.00  0.00    +0.105 C 
ATOM     19  N   LIG    1       25.512 -23.853   6.324  0.00  0.00    -0.303 NA
ATOM     20  C   LIG    1       24.551 -24.261   5.280  0.00  0.00    +0.099 C 
ATOM     21  C   LIG    1       25.106 -25.400   4.390  0.00  0.00    +0.100 C 
ATOM     22  N   LIG    1       25.525 -26.616   5.127  0.00  0.00    -0.300 NA
ATOM     23  C   LIG    1       26.474 -26.175   6.186  0.00  0.00    +0.100 C 
ATOM     24  C   LIG    1       25.955 -25.028   7.097  0.00  0.00    +0.099 C 
ENDBRANCH  17  22
ENDBRANCH  16  17
ENDBRANCH  15  16
ENDBRANCH   1  15
TORSDOF 4
ENDMDL
MODEL 7
REMARK VINA RESULT:      -5.8      7.868      8.768
REMARK  Name = *****
REMARK                            x       y       z     vdW  Elec       q    Type
REMARK                         _______ _______ _______ _____ _____    ______ ____
ROOT
ATOM      1  N   LIG    1       25.695 -28.285  13.226  0.00  0.00    -0.298 N 
ATOM      2  C   LIG    1       26.627 -27.545  14.010  0.00  0.00    +0.048 A 
ATOM      3  C   LIG    1       26.366 -26.225  14.426  0.00  0.00    +0.034 A 
ATOM      4  C   LIG    1       27.335 -25.489  15.130  0.00  0.00    +0.017 A 
ATOM      5  C   LIG    1       28.560 -26.056  15.464  0.00  0.00    +0.001 A 
ATOM      6  C   LIG    1       28.809 -27.379  15.126  0.00  0.00    +0.002 A 
ATOM      7  S   LIG    1       24.859 -25.361  14.046  0.00  0.00    -0.086 S 
ATOM      8  C   LIG    1       23.821 -26.680  13.456  0.00  0.00    +0.034 A 
ATOM      9  C   LIG    1       22.454 -26.373  13.331  0.00  0.00    +0.017 A 
ATOM     10  C   LIG    1       21.548 -27.320  12.876  0.00  0.00    +0.001 A 
ATOM     11  C   LIG    1       22.010 -28.589  12.535  0.00  0.00    +0.002 A 
ATOM     12  C   LIG    1       23.374 -28.893  12.642  0.00  0.00    +0.024 A 
ATOM     13  C   LIG    1       27.847 -28.117  14.427  0.00  0.00    +0.024 A 
ATOM     14  C   LIG    1       24.318 -27.949  13.091  0.00  0.00    +0.048 A 
ENDROOT
BRANCH   1  15
ATOM     15  C   LIG    1       26.285 -29.122  12.141  0.00  0.00    +0.112 C 
BRANCH  15  16
ATOM     16  C   LIG    1       26.631 -28.336  10.860  0.00  0.00    +0.035 C 
BRANCH  16  17
ATOM     17  C   LIG    1       26.489 -29.186   9.589  0.00  0.00    +0.086 C 
BRANCH  17  22
ATOM     18  C   LIG    1       25.569 -31.135   5.357  0.00  0.00    +0.105 C 
ATOM     19  N   LIG    1       25.136 -31.136   6.752  0.00  0.00    -0.303 NA
ATOM     20  C   LIG    1       24.659 -29.799   7.153  0.00  0.00    +0.099 C 
ATOM     21  C   LIG    1       24.278 -29.742   8.652  0.00  0.00    +0.100 C 
ATOM     22  N   LIG    1       25.360 -30.140   9.585  0.00  0.00    -0.300 NA
ATOM     23  C   LIG    1       25.839 -31.479   9.144  0.00  0.00    +0.100 C 
ATOM     24  C   LIG    1       26.225 -31.578   7.643  0.00  0.00    +0.099 C 
ENDBRANCH  17  22
ENDBRANCH  16  17
ENDBRANCH  15  16
ENDBRANCH   1  15
TORSDOF 4
ENDMDL
MODEL 8
REMARK VINA RESULT:      -5.8      4.383      9.288
REMARK  Name = *****
REMARK                            x       y       z     vdW  Elec       q    Type
REMARK                         _______ _______ _______ _____ _____    ______ ____
ROOT
ATOM      1  N   LIG    1       24.824 -30.586   9.494  0.00  0.00    -0.298 N 
ATOM      2  C   LIG    1       25.403 -29.726  10.472  0.00  0.00    +0.048 A 
ATOM      3  C   LIG    1       24.650 -29.206  11.543  0.00  0.00    +0.034 A 
ATOM      4  C   LIG    1       25.223 -28.297  12.449  0.00  0.00    +0.017 A 
ATOM      5  C   LIG    1       26.556 -27.916  12.333  0.00  0.00    +0.001 A 
ATOM      6  C   LIG    1       27.335 -28.473  11.328  0.00  0.00    +0.002 A 
ATOM      7  S   LIG    1       22.931 -29.578  11.800  0.00  0.00    -0.086 S 
ATOM      8  C   LIG    1       22.683 -30.944  10.687  0.00  0.00    +0.034 A 
ATOM      9  C   LIG    1       21.482 -31.659  10.854  0.00  0.00    +0.017 A 
ATOM     10  C   LIG    1       21.177 -32.741  10.041  0.00  0.00    +0.001 A 
ATOM     11  C   LIG    1       22.075 -33.114   9.046  0.00  0.00    +0.002 A 
ATOM     12  C   LIG    1       23.265 -32.395   8.866  0.00  0.00    +0.024 A 
ATOM     13  C   LIG    1       26.769 -29.381  10.425  0.00  0.00    +0.024 A 
ATOM     14  C   LIG    1       23.597 -31.285   9.668  0.00  0.00    +0.048 A 
ENDROOT
BRANCH   1  15
ATOM     15  C   LIG    1       25.260 -30.348   8.087  0.00  0.00    +0.112 C 
BRANCH  15  16
ATOM     16  C   LIG    1       24.550 -29.165   7.401  0.00  0.00    +0.035 C 
BRANCH  16  17
ATOM     17  C   LIG    1       25.458 -27.935   7.254  0.00  0.00    +0.086 C 
BRANCH  17  22
ATOM     18  C   LIG    1       24.391 -23.326   6.839  0.00  0.00    +0.105 C 
ATOM     19  N   LIG    1       24.841 -24.485   6.072  0.00  0.00    -0.303 NA
ATOM     20  C   LIG    1       23.826 -25.556   6.097  0.00  0.00    +0.099 C 
ATOM     21  C   LIG    1       24.310 -26.835   5.371  0.00  0.00    +0.100 C 
ATOM     22  N   LIG    1       25.583 -27.397   5.883  0.00  0.00    -0.300 NA
ATOM     23  C   LIG    1       26.581 -26.292   5.869  0.00  0.00    +0.100 C 
ATOM     24  C   LIG    1       26.129 -24.989   6.583  0.00  0.00    +0.099 C 
ENDBRANCH  17  22
ENDBRANCH  16  17
ENDBRANCH  15  16
ENDBRANCH   1  15
TORSDOF 4
ENDMDL
MODEL 9
REMARK VINA RESULT:      -5.8      3.845      9.187
REMARK  Name = *****
REMARK                            x       y       z     vdW  Elec       q    Type
REMARK                         _______ _______ _______ _____ _____    ______ ____
ROOT
ATOM      1  N   LIG    1       25.580 -29.974   7.025  0.00  0.00    -0.298 N 
ATOM      2  C   LIG    1       25.605 -29.747   8.432  0.00  0.00    +0.048 A 
ATOM      3  C   LIG    1       24.873 -30.550   9.328  0.00  0.00    +0.034 A 
ATOM      4  C   LIG    1       24.852 -30.257  10.703  0.00  0.00    +0.017 A 
ATOM      5  C   LIG    1       25.579 -29.189  11.217  0.00  0.00    +0.001 A 
ATOM      6  C   LIG    1       26.365 -28.430  10.361  0.00  0.00    +0.002 A 
ATOM      7  S   LIG    1       23.874 -31.927   8.812  0.00  0.00    -0.086 S 
ATOM      8  C   LIG    1       24.402 -32.152   7.129  0.00  0.00    +0.034 A 
ATOM      9  C   LIG    1       23.997 -33.351   6.515  0.00  0.00    +0.017 A 
ATOM     10  C   LIG    1       24.346 -33.634   5.202  0.00  0.00    +0.001 A 
ATOM     11  C   LIG    1       25.103 -32.710   4.488  0.00  0.00    +0.002 A 
ATOM     12  C   LIG    1       25.494 -31.506   5.090  0.00  0.00    +0.024 A 
ATOM     13  C   LIG    1       26.392 -28.719   8.992  0.00  0.00    +0.024 A 
ATOM     14  C   LIG    1       25.146 -31.186   6.418  0.00  0.00    +0.048 A 
ENDROOT
BRANCH   1  15
ATOM     15  C   LIG    1       25.532 -28.749   6.174  0.00  0.00    +0.112 C 
BRANCH  15  16
ATOM     16  C   LIG    1       24.140 -28.090   6.101  0.00  0.00    +0.035 C 
BRANCH  16  17
ATOM     17  C   LIG    1       24.210 -26.556   6.124  0.00  0.00    +0.086 C 
BRANCH  17  22
ATOM     18  C   LIG    1       24.857 -21.928   6.969  0.00  0.00    +0.105 C 
ATOM     19  N   LIG    1       25.422 -23.064   6.245  0.00  0.00    -0.303 NA
ATOM     20  C   LIG    1       24.461 -23.584   5.254  0.00  0.00    +0.099 C 
ATOM     21  C   LIG    1       24.993 -24.846   4.532  0.00  0.00    +0.100 C 
ATOM     22  N   LIG    1       25.372 -25.962   5.431  0.00  0.00    -0.300 NA
ATOM     23  C   LIG    1       26.322 -25.407   6.434  0.00  0.00    +0.100 C 
ATOM     24  C   LIG    1       25.826 -24.134   7.175  0.00  0.00    +0.099 C 
ENDBRANCH  17  22
ENDBRANCH  16  17
ENDBRANCH  15  16
ENDBRANCH   1  15
TORSDOF 4
ENDMDL
