MODEL 1
REMARK VINA RESULT:      -8.1      0.000      0.000
REMARK  Name = *****
REMARK                            x       y       z     vdW  Elec       q    Type
REMARK                         _______ _______ _______ _____ _____    ______ ____
ROOT
ATOM      1  C   LIG    1       27.003 -20.911   8.251  0.00  0.00    -0.021 C 
ATOM      2  C   LIG    1       26.184 -21.380   7.283  0.00  0.00    -0.035 C 
ATOM      3  C   LIG    1       25.328 -22.618   7.482  0.00  0.00    +0.059 C 
ATOM      4  C   LIG    1       23.816 -22.263   7.619  0.00  0.00    +0.085 C 
ATOM      5  C   LIG    1       22.915 -23.423   7.274  0.00  0.00    -0.011 C 
ATOM      6  C   LIG    1       23.327 -24.459   6.502  0.00  0.00    +0.009 C 
ATOM      7  C   LIG    1       24.664 -24.509   5.948  0.00  0.00    +0.051 C 
ATOM      8  S   LIG    1       23.180 -20.812   6.654  0.00  0.00    -0.116 S 
ATOM      9  C   LIG    1       24.598 -20.339   5.673  0.00  0.00    +0.016 A 
ATOM     10  C   LIG    1       24.362 -19.572   4.523  0.00  0.00    +0.015 A 
ATOM     11  C   LIG    1       25.417 -19.194   3.690  0.00  0.00    +0.001 A 
ATOM     12  C   LIG    1       26.713 -19.610   3.980  0.00  0.00    +0.001 A 
ATOM     13  C   LIG    1       26.961 -20.355   5.134  0.00  0.00    +0.009 A 
ATOM     14  C   LIG    1       25.616 -23.675   6.428  0.00  0.00    -0.005 C 
ATOM     15  C   LIG    1       25.916 -20.674   6.017  0.00  0.00    -0.008 A 
ENDROOT
BRANCH   7  16
ATOM     16  C   LIG    1       24.967 -25.526   4.872  0.00  0.00    +0.417 C 
ATOM     17  F   LIG    1       26.199 -26.077   5.034  0.00  0.00    -0.166 F 
ATOM     18  F   LIG    1       24.951 -24.965   3.634  0.00  0.00    -0.166 F 
ATOM     19  F   LIG    1       24.082 -26.557   4.846  0.00  0.00    -0.166 F 
ENDBRANCH   7  16
BRANCH   1  20
ATOM     20  C   LIG    1       27.807 -19.627   8.270  0.00  0.00    +0.043 C 
BRANCH  20  21
ATOM     21  C   LIG    1       29.326 -19.903   8.247  0.00  0.00    +0.088 C 
BRANCH  21  25
ATOM     22  N   LIG    1       31.441 -17.328   9.912  0.00  0.00    -0.298 NA
ATOM     23  C   LIG    1       30.037 -17.126   9.506  0.00  0.00    +0.100 C 
ATOM     24  C   LIG    1       29.695 -17.504   8.047  0.00  0.00    +0.100 C 
ATOM     25  N   LIG    1       30.145 -18.846   7.622  0.00  0.00    -0.300 NA
ATOM     26  C   LIG    1       31.588 -18.932   7.914  0.00  0.00    +0.100 C 
ATOM     27  C   LIG    1       32.000 -18.583   9.366  0.00  0.00    +0.100 C 
BRANCH  22  28
ATOM     28  C   LIG    1       31.582 -17.312  11.392  0.00  0.00    +0.112 C 
BRANCH  28  29
ATOM     29  C   LIG    1       32.231 -16.059  12.024  0.00  0.00    +0.171 C 
BRANCH  29  30
ATOM     30  O   LIG    1       31.354 -15.394  12.932  0.00  0.00    -0.394 OA
ATOM     31  H   LIG    1       30.973 -14.635  12.459  0.00  0.00    +0.209 HD
ENDBRANCH  29  30
ENDBRANCH  28  29
ENDBRANCH  22  28
ENDBRANCH  21  25
ENDBRANCH  20  21
ENDBRANCH   1  20
TORSDOF 7
ENDMDL
MODEL 2
REMARK VINA RESULT:      -7.5      5.893      8.899
REMARK  Name = *****
REMARK                            x       y       z     vdW  Elec       q    Type
REMARK                         _______ _______ _______ _____ _____    ______ ____
ROOT
ATOM      1  C   LIG    1       24.710 -23.752   5.179  0.00  0.00    -0.021 C 
ATOM      2  C   LIG    1       24.809 -22.430   5.445  0.00  0.00    -0.035 C 
ATOM      3  C   LIG    1       24.059 -21.386   4.637  0.00  0.00    +0.059 C 
ATOM      4  C   LIG    1       22.890 -20.752   5.450  0.00  0.00    +0.085 C 
ATOM      5  C   LIG    1       22.492 -19.394   4.927  0.00  0.00    -0.011 C 
ATOM      6  C   LIG    1       23.326 -18.628   4.180  0.00  0.00    +0.009 C 
ATOM      7  C   LIG    1       24.665 -19.067   3.847  0.00  0.00    +0.051 C 
ATOM      8  S   LIG    1       23.122 -20.552   7.280  0.00  0.00    -0.116 S 
ATOM      9  C   LIG    1       24.820 -21.056   7.520  0.00  0.00    +0.016 A 
ATOM     10  C   LIG    1       25.464 -20.623   8.688  0.00  0.00    +0.015 A 
ATOM     11  C   LIG    1       26.800 -20.950   8.927  0.00  0.00    +0.001 A 
ATOM     12  C   LIG    1       27.514 -21.681   7.984  0.00  0.00    +0.001 A 
ATOM     13  C   LIG    1       26.877 -22.134   6.828  0.00  0.00    +0.009 A 
ATOM     14  C   LIG    1       25.003 -20.366   4.024  0.00  0.00    -0.005 C 
ATOM     15  C   LIG    1       25.513 -21.876   6.617  0.00  0.00    -0.008 A 
ENDROOT
BRANCH   7  16
ATOM     16  C   LIG    1       25.635 -18.063   3.270  0.00  0.00    +0.417 C 
ATOM     17  F   LIG    1       25.977 -18.372   1.992  0.00  0.00    -0.166 F 
ATOM     18  F   LIG    1       26.792 -18.018   3.983  0.00  0.00    -0.166 F 
ATOM     19  F   LIG    1       25.143 -16.797   3.245  0.00  0.00    -0.166 F 
ENDBRANCH   7  16
BRANCH   1  20
ATOM     20  C   LIG    1       25.270 -24.919   5.965  0.00  0.00    +0.043 C 
BRANCH  20  21
ATOM     21  C   LIG    1       24.526 -26.235   5.642  0.00  0.00    +0.088 C 
BRANCH  21  25
ATOM     22  N   LIG    1       25.075 -29.393   7.539  0.00  0.00    -0.298 NA
ATOM     23  C   LIG    1       25.918 -28.187   7.655  0.00  0.00    +0.100 C 
ATOM     24  C   LIG    1       26.431 -27.591   6.324  0.00  0.00    +0.100 C 
ATOM     25  N   LIG    1       25.396 -27.375   5.291  0.00  0.00    -0.300 NA
ATOM     26  C   LIG    1       24.688 -28.656   5.112  0.00  0.00    +0.100 C 
ATOM     27  C   LIG    1       24.131 -29.302   6.405  0.00  0.00    +0.100 C 
BRANCH  22  28
ATOM     28  C   LIG    1       24.329 -29.653   8.798  0.00  0.00    +0.112 C 
BRANCH  28  29
ATOM     29  C   LIG    1       23.683 -31.049   8.959  0.00  0.00    +0.171 C 
BRANCH  29  30
ATOM     30  O   LIG    1       22.318 -30.971   9.364  0.00  0.00    -0.394 OA
ATOM     31  H   LIG    1       21.806 -30.671   8.594  0.00  0.00    +0.209 HD
ENDBRANCH  29  30
ENDBRANCH  28  29
ENDBRANCH  22  28
ENDBRANCH  21  25
ENDBRANCH  20  21
ENDBRANCH   1  20
TORSDOF 7
ENDMDL
MODEL 3
REMARK VINA RESULT:      -7.3      5.478      8.632
REMARK  Name = *****
REMARK                            x       y       z     vdW  Elec       q    Type
REMARK                         _______ _______ _______ _____ _____    ______ ____
ROOT
ATOM      1  C   LIG    1       25.218 -24.171   5.587  0.00  0.00    -0.021 C 
ATOM      2  C   LIG    1       25.158 -22.833   5.769  0.00  0.00    -0.035 C 
ATOM      3  C   LIG    1       24.231 -21.949   4.953  0.00  0.00    +0.059 C 
ATOM      4  C   LIG    1       23.039 -21.417   5.804  0.00  0.00    +0.085 C 
ATOM      5  C   LIG    1       22.435 -20.159   5.231  0.00  0.00    -0.011 C 
ATOM      6  C   LIG    1       23.115 -19.344   4.387  0.00  0.00    +0.009 C 
ATOM      7  C   LIG    1       24.479 -19.630   3.991  0.00  0.00    +0.051 C 
ATOM      8  S   LIG    1       23.348 -21.068   7.599  0.00  0.00    -0.116 S 
ATOM      9  C   LIG    1       25.109 -21.335   7.755  0.00  0.00    +0.016 A 
ATOM     10  C   LIG    1       25.758 -20.747   8.850  0.00  0.00    +0.015 A 
ATOM     11  C   LIG    1       27.136 -20.884   9.019  0.00  0.00    +0.001 A 
ATOM     12  C   LIG    1       27.885 -21.579   8.073  0.00  0.00    +0.001 A 
ATOM     13  C   LIG    1       27.246 -22.185   6.991  0.00  0.00    +0.009 A 
ATOM     14  C   LIG    1       24.995 -20.859   4.220  0.00  0.00    -0.005 C 
ATOM     15  C   LIG    1       25.849 -22.117   6.856  0.00  0.00    -0.008 A 
ENDROOT
BRANCH   7  16
ATOM     16  C   LIG    1       25.274 -18.550   3.294  0.00  0.00    +0.417 C 
ATOM     17  F   LIG    1       24.600 -17.370   3.266  0.00  0.00    -0.166 F 
ATOM     18  F   LIG    1       25.538 -18.877   2.001  0.00  0.00    -0.166 F 
ATOM     19  F   LIG    1       26.470 -18.299   3.886  0.00  0.00    -0.166 F 
ENDBRANCH   7  16
BRANCH   1  20
ATOM     20  C   LIG    1       25.971 -25.203   6.400  0.00  0.00    +0.043 C 
BRANCH  20  21
ATOM     21  C   LIG    1       26.094 -26.547   5.646  0.00  0.00    +0.088 C 
BRANCH  21  25
ATOM     22  N   LIG    1       25.045 -29.959   6.712  0.00  0.00    -0.298 NA
ATOM     23  C   LIG    1       25.673 -29.641   5.415  0.00  0.00    +0.100 C 
ATOM     24  C   LIG    1       25.029 -28.482   4.619  0.00  0.00    +0.100 C 
ATOM     25  N   LIG    1       24.815 -27.235   5.384  0.00  0.00    -0.300 NA
ATOM     26  C   LIG    1       24.051 -27.595   6.593  0.00  0.00    +0.100 C 
ATOM     27  C   LIG    1       24.649 -28.739   7.449  0.00  0.00    +0.100 C 
BRANCH  22  28
ATOM     28  C   LIG    1       25.941 -30.792   7.555  0.00  0.00    +0.112 C 
BRANCH  28  29
ATOM     29  C   LIG    1       26.117 -30.364   9.031  0.00  0.00    +0.171 C 
BRANCH  29  30
ATOM     30  O   LIG    1       27.349 -29.681   9.254  0.00  0.00    -0.394 OA
ATOM     31  H   LIG    1       27.138 -28.738   9.368  0.00  0.00    +0.209 HD
ENDBRANCH  29  30
ENDBRANCH  28  29
ENDBRANCH  22  28
ENDBRANCH  21  25
ENDBRANCH  20  21
ENDBRANCH   1  20
TORSDOF 7
ENDMDL
MODEL 4
REMARK VINA RESULT:      -6.6      6.424      9.280
REMARK  Name = *****
REMARK                            x       y       z     vdW  Elec       q    Type
REMARK                         _______ _______ _______ _____ _____    ______ ____
ROOT
ATOM      1  C   LIG    1       25.315 -28.015   7.045  0.00  0.00    -0.021 C 
ATOM      2  C   LIG    1       25.215 -28.952   8.015  0.00  0.00    -0.035 C 
ATOM      3  C   LIG    1       24.259 -30.127   7.907  0.00  0.00    +0.059 C 
ATOM      4  C   LIG    1       25.015 -31.468   7.658  0.00  0.00    +0.085 C 
ATOM      5  C   LIG    1       24.209 -32.672   8.079  0.00  0.00    -0.011 C 
ATOM      6  C   LIG    1       23.195 -32.592   8.975  0.00  0.00    +0.009 C 
ATOM      7  C   LIG    1       22.828 -31.336   9.597  0.00  0.00    +0.051 C 
ATOM      8  S   LIG    1       26.688 -31.671   8.432  0.00  0.00    -0.116 S 
ATOM      9  C   LIG    1       26.845 -30.194   9.426  0.00  0.00    +0.016 A 
ATOM     10  C   LIG    1       27.775 -30.216  10.476  0.00  0.00    +0.015 A 
ATOM     11  C   LIG    1       27.928 -29.111  11.315  0.00  0.00    +0.001 A 
ATOM     12  C   LIG    1       27.128 -27.988  11.135  0.00  0.00    +0.001 A 
ATOM     13  C   LIG    1       26.215 -27.947  10.081  0.00  0.00    +0.009 A 
ATOM     14  C   LIG    1       23.293 -30.176   9.079  0.00  0.00    -0.005 C 
ATOM     15  C   LIG    1       26.109 -29.024   9.185  0.00  0.00    -0.008 A 
ENDROOT
BRANCH   7  16
ATOM     16  C   LIG    1       21.898 -31.360  10.788  0.00  0.00    +0.417 C 
ATOM     17  F   LIG    1       20.597 -31.447  10.407  0.00  0.00    -0.166 F 
ATOM     18  F   LIG    1       22.011 -30.229  11.534  0.00  0.00    -0.166 F 
ATOM     19  F   LIG    1       22.128 -32.405  11.625  0.00  0.00    -0.166 F 
ENDBRANCH   7  16
BRANCH   1  20
ATOM     20  C   LIG    1       26.303 -26.874   6.930  0.00  0.00    +0.043 C 
BRANCH  20  21
ATOM     21  C   LIG    1       25.612 -25.501   7.089  0.00  0.00    +0.088 C 
BRANCH  21  25
ATOM     22  N   LIG    1       24.030 -22.200   6.398  0.00  0.00    -0.298 NA
ATOM     23  C   LIG    1       23.414 -23.273   7.201  0.00  0.00    +0.100 C 
ATOM     24  C   LIG    1       23.385 -24.674   6.547  0.00  0.00    +0.100 C 
ATOM     25  N   LIG    1       24.678 -25.142   6.004  0.00  0.00    -0.300 NA
ATOM     26  C   LIG    1       25.170 -24.092   5.092  0.00  0.00    +0.100 C 
ATOM     27  C   LIG    1       25.242 -22.664   5.689  0.00  0.00    +0.100 C 
BRANCH  22  28
ATOM     28  C   LIG    1       24.358 -21.018   7.239  0.00  0.00    +0.112 C 
BRANCH  28  29
ATOM     29  C   LIG    1       25.790 -20.942   7.818  0.00  0.00    +0.171 C 
BRANCH  29  30
ATOM     30  O   LIG    1       25.807 -21.067   9.239  0.00  0.00    -0.394 OA
ATOM     31  H   LIG    1       25.005 -20.632   9.575  0.00  0.00    +0.209 HD
ENDBRANCH  29  30
ENDBRANCH  28  29
ENDBRANCH  22  28
ENDBRANCH  21  25
ENDBRANCH  20  21
ENDBRANCH   1  20
TORSDOF 7
ENDMDL
MODEL 5
REMARK VINA RESULT:      -6.3     10.213     12.821
REMARK  Name = *****
REMARK                            x       y       z     vdW  Elec       q    Type
REMARK                         _______ _______ _______ _____ _____    ______ ____
ROOT
ATOM      1  C   LIG    1       23.676 -32.268  11.444  0.00  0.00    -0.021 C 
ATOM      2  C   LIG    1       23.918 -31.018  11.899  0.00  0.00    -0.035 C 
ATOM      3  C   LIG    1       23.234 -30.463  13.136  0.00  0.00    +0.059 C 
ATOM      4  C   LIG    1       24.219 -30.339  14.337  0.00  0.00    +0.085 C 
ATOM      5  C   LIG    1       23.761 -29.330  15.360  0.00  0.00    -0.011 C 
ATOM      6  C   LIG    1       22.888 -28.336  15.061  0.00  0.00    +0.009 C 
ATOM      7  C   LIG    1       22.349 -28.175  13.727  0.00  0.00    +0.051 C 
ATOM      8  S   LIG    1       25.989 -29.926  13.963  0.00  0.00    -0.116 S 
ATOM      9  C   LIG    1       25.959 -29.627  12.201  0.00  0.00    +0.016 A 
ATOM     10  C   LIG    1       27.008 -28.874  11.654  0.00  0.00    +0.015 A 
ATOM     11  C   LIG    1       27.035 -28.573  10.292  0.00  0.00    +0.001 A 
ATOM     12  C   LIG    1       25.993 -28.990   9.469  0.00  0.00    +0.001 A 
ATOM     13  C   LIG    1       24.955 -29.757   9.999  0.00  0.00    +0.009 A 
ATOM     14  C   LIG    1       22.475 -29.182  12.832  0.00  0.00    -0.005 C 
ATOM     15  C   LIG    1       24.960 -30.130  11.353  0.00  0.00    -0.008 A 
ENDROOT
BRANCH   7  16
ATOM     16  C   LIG    1       21.622 -26.894  13.387  0.00  0.00    +0.417 C 
ATOM     17  F   LIG    1       22.477 -25.932  12.951  0.00  0.00    -0.166 F 
ATOM     18  F   LIG    1       20.978 -26.382  14.469  0.00  0.00    -0.166 F 
ATOM     19  F   LIG    1       20.687 -27.052  12.414  0.00  0.00    -0.166 F 
ENDBRANCH   7  16
BRANCH   1  20
ATOM     20  C   LIG    1       24.368 -33.018  10.325  0.00  0.00    +0.043 C 
BRANCH  20  21
ATOM     21  C   LIG    1       23.539 -32.990   9.021  0.00  0.00    +0.088 C 
BRANCH  21  25
ATOM     22  N   LIG    1       25.125 -31.884   5.837  0.00  0.00    -0.298 NA
ATOM     23  C   LIG    1       23.691 -32.192   5.997  0.00  0.00    +0.100 C 
ATOM     24  C   LIG    1       23.362 -33.551   6.657  0.00  0.00    +0.100 C 
ATOM     25  N   LIG    1       24.071 -33.824   7.925  0.00  0.00    -0.300 NA
ATOM     26  C   LIG    1       25.511 -33.647   7.662  0.00  0.00    +0.100 C 
ATOM     27  C   LIG    1       25.916 -32.298   7.016  0.00  0.00    +0.100 C 
BRANCH  22  28
ATOM     28  C   LIG    1       25.340 -30.439   5.566  0.00  0.00    +0.112 C 
BRANCH  28  29
ATOM     29  C   LIG    1       24.316 -29.450   6.170  0.00  0.00    +0.171 C 
BRANCH  29  30
ATOM     30  O   LIG    1       23.222 -29.197   5.290  0.00  0.00    -0.394 OA
ATOM     31  H   LIG    1       22.567 -29.900   5.435  0.00  0.00    +0.209 HD
ENDBRANCH  29  30
ENDBRANCH  28  29
ENDBRANCH  22  28
ENDBRANCH  21  25
ENDBRANCH  20  21
ENDBRANCH   1  20
TORSDOF 7
ENDMDL
MODEL 6
REMARK VINA RESULT:      -6.3      8.247     11.486
REMARK  Name = *****
REMARK                            x       y       z     vdW  Elec       q    Type
REMARK                         _______ _______ _______ _____ _____    ______ ____
ROOT
ATOM      1  C   LIG    1       23.144 -30.693   9.860  0.00  0.00    -0.021 C 
ATOM      2  C   LIG    1       23.425 -30.155  11.068  0.00  0.00    -0.035 C 
ATOM      3  C   LIG    1       22.358 -29.953  12.129  0.00  0.00    +0.059 C 
ATOM      4  C   LIG    1       22.520 -30.953  13.313  0.00  0.00    +0.085 C 
ATOM      5  C   LIG    1       21.870 -30.459  14.582  0.00  0.00    -0.011 C 
ATOM      6  C   LIG    1       21.607 -29.146  14.801  0.00  0.00    +0.009 C 
ATOM      7  C   LIG    1       21.948 -28.131  13.826  0.00  0.00    +0.051 C 
ATOM      8  S   LIG    1       24.241 -31.465  13.781  0.00  0.00    -0.116 S 
ATOM      9  C   LIG    1       25.257 -30.438  12.729  0.00  0.00    +0.016 A 
ATOM     10  C   LIG    1       26.591 -30.237  13.113  0.00  0.00    +0.015 A 
ATOM     11  C   LIG    1       27.434 -29.421  12.358  0.00  0.00    +0.001 A 
ATOM     12  C   LIG    1       26.942 -28.767  11.233  0.00  0.00    +0.001 A 
ATOM     13  C   LIG    1       25.623 -28.976  10.830  0.00  0.00    +0.009 A 
ATOM     14  C   LIG    1       22.264 -28.500  12.563  0.00  0.00    -0.005 C 
ATOM     15  C   LIG    1       24.790 -29.857  11.540  0.00  0.00    -0.008 A 
ENDROOT
BRANCH   7  16
ATOM     16  C   LIG    1       21.900 -26.679  14.243  0.00  0.00    +0.417 C 
ATOM     17  F   LIG    1       20.633 -26.281  14.531  0.00  0.00    -0.166 F 
ATOM     18  F   LIG    1       22.350 -25.859  13.257  0.00  0.00    -0.166 F 
ATOM     19  F   LIG    1       22.650 -26.414  15.345  0.00  0.00    -0.166 F 
ENDBRANCH   7  16
BRANCH   1  20
ATOM     20  C   LIG    1       24.101 -31.090   8.756  0.00  0.00    +0.043 C 
BRANCH  20  21
ATOM     21  C   LIG    1       24.063 -30.089   7.579  0.00  0.00    +0.088 C 
BRANCH  21  25
ATOM     22  N   LIG    1       25.084 -27.124   5.567  0.00  0.00    -0.298 NA
ATOM     23  C   LIG    1       24.551 -28.379   5.002  0.00  0.00    +0.100 C 
ATOM     24  C   LIG    1       25.234 -29.680   5.482  0.00  0.00    +0.100 C 
ATOM     25  N   LIG    1       25.370 -29.816   6.948  0.00  0.00    -0.300 NA
ATOM     26  C   LIG    1       26.045 -28.599   7.435  0.00  0.00    +0.100 C 
ATOM     27  C   LIG    1       25.403 -27.257   7.006  0.00  0.00    +0.100 C 
BRANCH  22  28
ATOM     28  C   LIG    1       24.140 -25.995   5.360  0.00  0.00    +0.112 C 
BRANCH  28  29
ATOM     29  C   LIG    1       24.063 -24.928   6.477  0.00  0.00    +0.171 C 
BRANCH  29  30
ATOM     30  O   LIG    1       22.830 -24.210   6.456  0.00  0.00    -0.394 OA
ATOM     31  H   LIG    1       22.971 -23.414   5.917  0.00  0.00    +0.209 HD
ENDBRANCH  29  30
ENDBRANCH  28  29
ENDBRANCH  22  28
ENDBRANCH  21  25
ENDBRANCH  20  21
ENDBRANCH   1  20
TORSDOF 7
ENDMDL
MODEL 7
REMARK VINA RESULT:      -6.3      8.077     10.106
REMARK  Name = *****
REMARK                            x       y       z     vdW  Elec       q    Type
REMARK                         _______ _______ _______ _____ _____    ______ ____
ROOT
ATOM      1  C   LIG    1       26.035 -30.269  11.241  0.00  0.00    -0.021 C 
ATOM      2  C   LIG    1       25.288 -30.448  10.129  0.00  0.00    -0.035 C 
ATOM      3  C   LIG    1       25.891 -30.409   8.736  0.00  0.00    +0.059 C 
ATOM      4  C   LIG    1       25.942 -31.824   8.085  0.00  0.00    +0.085 C 
ATOM      5  C   LIG    1       26.007 -31.767   6.579  0.00  0.00    -0.011 C 
ATOM      6  C   LIG    1       25.598 -30.683   5.874  0.00  0.00    +0.009 C 
ATOM      7  C   LIG    1       25.058 -29.510   6.530  0.00  0.00    +0.051 C 
ATOM      8  S   LIG    1       24.578 -33.013   8.497  0.00  0.00    -0.116 S 
ATOM      9  C   LIG    1       23.465 -32.012   9.475  0.00  0.00    +0.016 A 
ATOM     10  C   LIG    1       22.136 -32.444   9.588  0.00  0.00    +0.015 A 
ATOM     11  C   LIG    1       21.203 -31.696  10.307  0.00  0.00    +0.001 A 
ATOM     12  C   LIG    1       21.581 -30.491  10.890  0.00  0.00    +0.001 A 
ATOM     13  C   LIG    1       22.906 -30.063  10.802  0.00  0.00    +0.009 A 
ATOM     14  C   LIG    1       25.225 -29.357   7.864  0.00  0.00    -0.005 C 
ATOM     15  C   LIG    1       23.868 -30.847  10.146  0.00  0.00    -0.008 A 
ENDROOT
BRANCH   7  16
ATOM     16  C   LIG    1       24.357 -28.467   5.691  0.00  0.00    +0.417 C 
ATOM     17  F   LIG    1       23.974 -27.397   6.436  0.00  0.00    -0.166 F 
ATOM     18  F   LIG    1       23.231 -28.962   5.114  0.00  0.00    -0.166 F 
ATOM     19  F   LIG    1       25.131 -27.981   4.685  0.00  0.00    -0.166 F 
ENDBRANCH   7  16
BRANCH   1  20
ATOM     20  C   LIG    1       25.624 -30.416  12.691  0.00  0.00    +0.043 C 
BRANCH  20  21
ATOM     21  C   LIG    1       25.735 -29.078  13.455  0.00  0.00    +0.088 C 
BRANCH  21  25
ATOM     22  N   LIG    1       26.632 -25.643  14.582  0.00  0.00    -0.298 NA
ATOM     23  C   LIG    1       26.096 -25.975  13.248  0.00  0.00    +0.100 C 
ATOM     24  C   LIG    1       26.816 -27.117  12.496  0.00  0.00    +0.100 C 
ATOM     25  N   LIG    1       27.012 -28.359  13.274  0.00  0.00    -0.300 NA
ATOM     26  C   LIG    1       27.688 -27.981  14.529  0.00  0.00    +0.100 C 
ATOM     27  C   LIG    1       27.009 -26.853  15.345  0.00  0.00    +0.100 C 
BRANCH  22  28
ATOM     28  C   LIG    1       25.664 -24.832  15.366  0.00  0.00    +0.112 C 
BRANCH  28  29
ATOM     29  C   LIG    1       25.945 -23.315  15.479  0.00  0.00    +0.171 C 
BRANCH  29  30
ATOM     30  O   LIG    1       25.461 -22.589  14.350  0.00  0.00    -0.394 OA
ATOM     31  H   LIG    1       24.499 -22.720  14.316  0.00  0.00    +0.209 HD
ENDBRANCH  29  30
ENDBRANCH  28  29
ENDBRANCH  22  28
ENDBRANCH  21  25
ENDBRANCH  20  21
ENDBRANCH   1  20
TORSDOF 7
ENDMDL
MODEL 8
REMARK VINA RESULT:      -6.2      8.448     11.664
REMARK  Name = *****
REMARK                            x       y       z     vdW  Elec       q    Type
REMARK                         _______ _______ _______ _____ _____    ______ ____
ROOT
ATOM      1  C   LIG    1       24.548 -31.139  10.349  0.00  0.00    -0.021 C 
ATOM      2  C   LIG    1       24.361 -30.349  11.430  0.00  0.00    -0.035 C 
ATOM      3  C   LIG    1       23.021 -30.255  12.138  0.00  0.00    +0.059 C 
ATOM      4  C   LIG    1       23.049 -30.960  13.528  0.00  0.00    +0.085 C 
ATOM      5  C   LIG    1       21.982 -30.444  14.461  0.00  0.00    -0.011 C 
ATOM      6  C   LIG    1       21.402 -29.228  14.300  0.00  0.00    +0.009 C 
ATOM      7  C   LIG    1       21.783 -28.341  13.221  0.00  0.00    +0.051 C 
ATOM      8  S   LIG    1       24.637 -30.915  14.486  0.00  0.00    -0.116 S 
ATOM      9  C   LIG    1       25.671 -29.854  13.487  0.00  0.00    +0.016 A 
ATOM     10  C   LIG    1       26.771 -29.249  14.110  0.00  0.00    +0.015 A 
ATOM     11  C   LIG    1       27.604 -28.381  13.401  0.00  0.00    +0.001 A 
ATOM     12  C   LIG    1       27.322 -28.082  12.072  0.00  0.00    +0.001 A 
ATOM     13  C   LIG    1       26.242 -28.694  11.437  0.00  0.00    +0.009 A 
ATOM     14  C   LIG    1       22.510 -28.824  12.187  0.00  0.00    -0.005 C 
ATOM     15  C   LIG    1       25.445 -29.627  12.120  0.00  0.00    -0.008 A 
ENDROOT
BRANCH   7  16
ATOM     16  C   LIG    1       21.320 -26.903  13.265  0.00  0.00    +0.417 C 
ATOM     17  F   LIG    1       22.321 -26.043  12.941  0.00  0.00    -0.166 F 
ATOM     18  F   LIG    1       20.892 -26.553  14.507  0.00  0.00    -0.166 F 
ATOM     19  F   LIG    1       20.295 -26.645  12.411  0.00  0.00    -0.166 F 
ENDBRANCH   7  16
BRANCH   1  20
ATOM     20  C   LIG    1       25.837 -31.454   9.619  0.00  0.00    +0.043 C 
BRANCH  20  21
ATOM     21  C   LIG    1       25.925 -30.712   8.267  0.00  0.00    +0.088 C 
BRANCH  21  25
ATOM     22  N   LIG    1       24.996 -28.422   5.479  0.00  0.00    -0.298 NA
ATOM     23  C   LIG    1       24.666 -28.192   6.899  0.00  0.00    +0.100 C 
ATOM     24  C   LIG    1       23.991 -29.371   7.636  0.00  0.00    +0.100 C 
ATOM     25  N   LIG    1       24.670 -30.677   7.490  0.00  0.00    -0.300 NA
ATOM     26  C   LIG    1       24.835 -30.920   6.045  0.00  0.00    +0.100 C 
ATOM     27  C   LIG    1       25.522 -29.784   5.247  0.00  0.00    +0.100 C 
BRANCH  22  28
ATOM     28  C   LIG    1       25.966 -27.413   4.980  0.00  0.00    +0.112 C 
BRANCH  28  29
ATOM     29  C   LIG    1       25.751 -25.948   5.428  0.00  0.00    +0.171 C 
BRANCH  29  30
ATOM     30  O   LIG    1       24.785 -25.272   4.625  0.00  0.00    -0.394 OA
ATOM     31  H   LIG    1       24.039 -25.044   5.205  0.00  0.00    +0.209 HD
ENDBRANCH  29  30
ENDBRANCH  28  29
ENDBRANCH  22  28
ENDBRANCH  21  25
ENDBRANCH  20  21
ENDBRANCH   1  20
TORSDOF 7
ENDMDL
MODEL 9
REMARK VINA RESULT:      -6.1      8.534     11.781
REMARK  Name = *****
REMARK                            x       y       z     vdW  Elec       q    Type
REMARK                         _______ _______ _______ _____ _____    ______ ____
ROOT
ATOM      1  C   LIG    1       22.740 -30.406  10.235  0.00  0.00    -0.021 C 
ATOM      2  C   LIG    1       22.588 -29.935  11.493  0.00  0.00    -0.035 C 
ATOM      3  C   LIG    1       21.234 -29.886  12.179  0.00  0.00    +0.059 C 
ATOM      4  C   LIG    1       21.117 -30.952  13.310  0.00  0.00    +0.085 C 
ATOM      5  C   LIG    1       20.069 -30.596  14.335  0.00  0.00    -0.011 C 
ATOM      6  C   LIG    1       19.633 -29.325  14.518  0.00  0.00    +0.009 C 
ATOM      7  C   LIG    1       20.161 -28.222  13.742  0.00  0.00    +0.051 C 
ATOM      8  S   LIG    1       22.652 -31.366  14.266  0.00  0.00    -0.116 S 
ATOM      9  C   LIG    1       23.843 -30.197  13.626  0.00  0.00    +0.016 A 
ATOM     10  C   LIG    1       24.971 -29.926  14.413  0.00  0.00    +0.015 A 
ATOM     11  C   LIG    1       25.927 -28.999  13.994  0.00  0.00    +0.001 A 
ATOM     12  C   LIG    1       25.744 -28.307  12.801  0.00  0.00    +0.001 A 
ATOM     13  C   LIG    1       24.636 -28.584  12.001  0.00  0.00    +0.009 A 
ATOM     14  C   LIG    1       20.880 -28.477  12.625  0.00  0.00    -0.005 C 
ATOM     15  C   LIG    1       23.710 -29.570  12.378  0.00  0.00    -0.008 A 
ENDROOT
BRANCH   7  16
ATOM     16  C   LIG    1       19.855 -26.810  14.187  0.00  0.00    +0.417 C 
ATOM     17  F   LIG    1       20.877 -26.279  14.908  0.00  0.00    -0.166 F 
ATOM     18  F   LIG    1       18.752 -26.762  14.980  0.00  0.00    -0.166 F 
ATOM     19  F   LIG    1       19.629 -25.960  13.151  0.00  0.00    -0.166 F 
ENDBRANCH   7  16
BRANCH   1  20
ATOM     20  C   LIG    1       24.021 -30.653   9.466  0.00  0.00    +0.043 C 
BRANCH  20  21
ATOM     21  C   LIG    1       23.997 -29.969   8.081  0.00  0.00    +0.088 C 
BRANCH  21  25
ATOM     22  N   LIG    1       25.178 -27.332   5.729  0.00  0.00    -0.298 NA
ATOM     23  C   LIG    1       24.562 -28.608   5.318  0.00  0.00    +0.100 C 
ATOM     24  C   LIG    1       25.168 -29.884   5.946  0.00  0.00    +0.100 C 
ATOM     25  N   LIG    1       25.311 -29.855   7.418  0.00  0.00    -0.300 NA
ATOM     26  C   LIG    1       26.066 -28.634   7.755  0.00  0.00    +0.100 C 
ATOM     27  C   LIG    1       25.503 -27.313   7.172  0.00  0.00    +0.100 C 
BRANCH  22  28
ATOM     28  C   LIG    1       24.304 -26.178   5.393  0.00  0.00    +0.112 C 
BRANCH  28  29
ATOM     29  C   LIG    1       24.183 -25.055   6.450  0.00  0.00    +0.171 C 
BRANCH  29  30
ATOM     30  O   LIG    1       22.894 -24.443   6.446  0.00  0.00    -0.394 OA
ATOM     31  H   LIG    1       22.345 -24.924   7.089  0.00  0.00    +0.209 HD
ENDBRANCH  29  30
ENDBRANCH  28  29
ENDBRANCH  22  28
ENDBRANCH  21  25
ENDBRANCH  20  21
ENDBRANCH   1  20
TORSDOF 7
ENDMDL
