MODEL 1
REMARK VINA RESULT:      -8.6      0.000      0.000
REMARK  Name = *****
REMARK                            x       y       z     vdW  Elec       q    Type
REMARK                         _______ _______ _______ _____ _____    ______ ____
ROOT
ATOM      1  C   LIG    1       25.954 -21.233   6.490  0.00  0.00    +0.128 C 
ENDROOT
BRANCH   1   2
ATOM      2  C   LIG    1       24.836 -20.491   5.688  0.00  0.00    +0.022 A 
ATOM      3  C   LIG    1       23.544 -20.329   6.240  0.00  0.00    +0.132 A 
ATOM      4  F   LIG    1       23.270 -20.833   7.453  0.00  0.00    -0.205 F 
ATOM      5  C   LIG    1       22.520 -19.648   5.581  0.00  0.00    +0.077 A 
ATOM      6  C   LIG    1       22.779 -19.082   4.346  0.00  0.00    +0.126 A 
ATOM      7  F   LIG    1       21.818 -18.394   3.714  0.00  0.00    -0.205 F 
ATOM      8  C   LIG    1       24.031 -19.210   3.760  0.00  0.00    +0.039 A 
ATOM      9  C   LIG    1       25.050 -19.917   4.419  0.00  0.00    +0.012 A 
ENDBRANCH   1   2
BRANCH   1  10
ATOM     10  C   LIG    1       25.377 -22.649   7.030  0.00  0.00    +0.092 C 
ATOM     11  C   LIG    1       25.746 -22.815   8.531  0.00  0.00    +0.027 C 
BRANCH  10  16
ATOM     12  C   LIG    1       24.443 -27.825   5.448  0.00  0.00    +0.007 C 
ATOM     13  C   LIG    1       25.223 -26.722   5.507  0.00  0.00    -0.074 C 
ATOM     14  C   LIG    1       25.189 -25.616   4.496  0.00  0.00    +0.045 C 
ATOM     15  C   LIG    1       24.817 -24.292   5.190  0.00  0.00    +0.089 C 
ATOM     16  N   LIG    1       25.704 -23.935   6.320  0.00  0.00    -0.296 NA
ATOM     17  C   LIG    1       25.754 -25.084   7.277  0.00  0.00    +0.089 C 
ATOM     18  C   LIG    1       26.148 -26.424   6.643  0.00  0.00    +0.045 C 
ENDBRANCH  10  16
ENDBRANCH   1  10
BRANCH   1  19
ATOM     19  O   LIG    1       27.005 -21.428   5.517  0.00  0.00    -0.381 OA
ATOM     20  H   LIG    1       27.367 -20.545   5.312  0.00  0.00    +0.211 HD
ENDBRANCH   1  19
BRANCH   1  21
ATOM     21  C   LIG    1       26.583 -20.326   7.589  0.00  0.00    +0.186 C 
BRANCH  21  22
ATOM     22  N   LIG    1       28.029 -20.307   7.667  0.00  0.00    -0.249 N 
ATOM     23  N   LIG    1       28.697 -21.376   8.145  0.00  0.00    -0.158 NA
ATOM     24  C   LIG    1       29.953 -20.924   8.142  0.00  0.00    +0.244 A 
ATOM     25  N   LIG    1       30.103 -19.618   7.775  0.00  0.00    -0.223 NA
ATOM     26  C   LIG    1       28.870 -19.245   7.512  0.00  0.00    +0.219 A 
ENDBRANCH  21  22
ENDBRANCH   1  21
TORSDOF 6
ENDMDL
MODEL 2
REMARK VINA RESULT:      -8.5      1.625      5.233
REMARK  Name = *****
REMARK                            x       y       z     vdW  Elec       q    Type
REMARK                         _______ _______ _______ _____ _____    ______ ____
ROOT
ATOM      1  C   LIG    1       24.738 -22.854   6.333  0.00  0.00    +0.128 C 
ENDROOT
BRANCH   1   2
ATOM      2  C   LIG    1       24.127 -21.613   5.605  0.00  0.00    +0.022 A 
ATOM      3  C   LIG    1       23.151 -20.814   6.245  0.00  0.00    +0.132 A 
ATOM      4  F   LIG    1       22.730 -21.136   7.478  0.00  0.00    -0.205 F 
ATOM      5  C   LIG    1       22.597 -19.678   5.654  0.00  0.00    +0.077 A 
ATOM      6  C   LIG    1       23.036 -19.294   4.400  0.00  0.00    +0.126 A 
ATOM      7  F   LIG    1       22.541 -18.186   3.831  0.00  0.00    -0.205 F 
ATOM      8  C   LIG    1       23.994 -20.042   3.729  0.00  0.00    +0.039 A 
ATOM      9  C   LIG    1       24.529 -21.198   4.320  0.00  0.00    +0.012 A 
ENDBRANCH   1   2
BRANCH   1  10
ATOM     10  C   LIG    1       25.883 -22.359   7.369  0.00  0.00    +0.092 C 
ATOM     11  C   LIG    1       25.252 -21.383   8.402  0.00  0.00    +0.027 C 
BRANCH  10  16
ATOM     12  C   LIG    1       29.834 -18.548   7.194  0.00  0.00    +0.007 C 
ATOM     13  C   LIG    1       29.260 -19.687   6.746  0.00  0.00    -0.074 C 
ATOM     14  C   LIG    1       29.562 -21.049   7.292  0.00  0.00    +0.045 C 
ATOM     15  C   LIG    1       28.272 -21.682   7.849  0.00  0.00    +0.089 C 
ATOM     16  N   LIG    1       27.164 -21.749   6.868  0.00  0.00    -0.296 NA
ATOM     17  C   LIG    1       26.932 -20.382   6.307  0.00  0.00    +0.089 C 
ATOM     18  C   LIG    1       28.179 -19.717   5.713  0.00  0.00    +0.045 C 
ENDBRANCH  10  16
ENDBRANCH   1  10
BRANCH   1  19
ATOM     19  O   LIG    1       23.612 -23.435   7.029  0.00  0.00    -0.381 OA
ATOM     20  H   LIG    1       23.975 -24.080   7.665  0.00  0.00    +0.211 HD
ENDBRANCH   1  19
BRANCH   1  21
ATOM     21  C   LIG    1       25.201 -23.949   5.327  0.00  0.00    +0.186 C 
BRANCH  21  22
ATOM     22  N   LIG    1       25.149 -25.321   5.791  0.00  0.00    -0.249 N 
ATOM     23  N   LIG    1       24.003 -26.025   5.704  0.00  0.00    -0.158 NA
ATOM     24  C   LIG    1       24.347 -27.163   6.310  0.00  0.00    +0.244 A 
ATOM     25  N   LIG    1       25.602 -27.184   6.846  0.00  0.00    -0.223 NA
ATOM     26  C   LIG    1       26.073 -25.998   6.531  0.00  0.00    +0.219 A 
ENDBRANCH  21  22
ENDBRANCH   1  21
TORSDOF 6
ENDMDL
MODEL 3
REMARK VINA RESULT:      -8.4      2.726      6.564
REMARK  Name = *****
REMARK                            x       y       z     vdW  Elec       q    Type
REMARK                         _______ _______ _______ _____ _____    ______ ____
ROOT
ATOM      1  C   LIG    1       25.241 -22.828   6.438  0.00  0.00    +0.128 C 
ENDROOT
BRANCH   1   2
ATOM      2  C   LIG    1       25.389 -24.361   6.173  0.00  0.00    +0.022 A 
ATOM      3  C   LIG    1       25.095 -24.901   4.899  0.00  0.00    +0.132 A 
ATOM      4  F   LIG    1       24.668 -24.094   3.916  0.00  0.00    -0.205 F 
ATOM      5  C   LIG    1       25.240 -26.256   4.600  0.00  0.00    +0.077 A 
ATOM      6  C   LIG    1       25.717 -27.110   5.579  0.00  0.00    +0.126 A 
ATOM      7  F   LIG    1       25.896 -28.408   5.299  0.00  0.00    -0.205 F 
ATOM      8  C   LIG    1       26.022 -26.631   6.845  0.00  0.00    +0.039 A 
ATOM      9  C   LIG    1       25.849 -25.270   7.146  0.00  0.00    +0.012 A 
ENDBRANCH   1   2
BRANCH   1  10
ATOM     10  C   LIG    1       26.356 -22.360   7.519  0.00  0.00    +0.092 C 
ATOM     11  C   LIG    1       25.678 -21.482   8.608  0.00  0.00    +0.027 C 
BRANCH  10  16
ATOM     12  C   LIG    1       30.084 -18.327   7.551  0.00  0.00    +0.007 C 
ATOM     13  C   LIG    1       29.594 -19.489   7.064  0.00  0.00    -0.074 C 
ATOM     14  C   LIG    1       29.954 -20.841   7.599  0.00  0.00    +0.045 C 
ATOM     15  C   LIG    1       28.683 -21.556   8.097  0.00  0.00    +0.089 C 
ATOM     16  N   LIG    1       27.617 -21.669   7.076  0.00  0.00    -0.296 NA
ATOM     17  C   LIG    1       27.327 -20.308   6.528  0.00  0.00    +0.089 C 
ATOM     18  C   LIG    1       28.554 -19.562   5.991  0.00  0.00    +0.045 C 
ENDBRANCH  10  16
ENDBRANCH   1  10
BRANCH   1  19
ATOM     19  O   LIG    1       25.477 -22.229   5.144  0.00  0.00    -0.381 OA
ATOM     20  H   LIG    1       26.256 -21.649   5.240  0.00  0.00    +0.211 HD
ENDBRANCH   1  19
BRANCH   1  21
ATOM     21  C   LIG    1       23.778 -22.438   6.803  0.00  0.00    +0.186 C 
BRANCH  21  22
ATOM     22  N   LIG    1       23.144 -21.439   5.967  0.00  0.00    -0.249 N 
ATOM     23  N   LIG    1       23.456 -20.136   6.111  0.00  0.00    -0.158 NA
ATOM     24  C   LIG    1       22.607 -19.566   5.253  0.00  0.00    +0.244 A 
ATOM     25  N   LIG    1       21.729 -20.418   4.648  0.00  0.00    -0.223 NA
ATOM     26  C   LIG    1       22.069 -21.587   5.141  0.00  0.00    +0.219 A 
ENDBRANCH  21  22
ENDBRANCH   1  21
TORSDOF 6
ENDMDL
MODEL 4
REMARK VINA RESULT:      -8.3      1.175      1.508
REMARK  Name = *****
REMARK                            x       y       z     vdW  Elec       q    Type
REMARK                         _______ _______ _______ _____ _____    ______ ____
ROOT
ATOM      1  C   LIG    1       25.603 -21.179   6.438  0.00  0.00    +0.128 C 
ENDROOT
BRANCH   1   2
ATOM      2  C   LIG    1       24.504 -20.360   5.687  0.00  0.00    +0.022 A 
ATOM      3  C   LIG    1       24.845 -19.545   4.583  0.00  0.00    +0.132 A 
ATOM      4  F   LIG    1       26.125 -19.460   4.187  0.00  0.00    -0.205 F 
ATOM      5  C   LIG    1       23.899 -18.819   3.858  0.00  0.00    +0.077 A 
ATOM      6  C   LIG    1       22.566 -18.915   4.212  0.00  0.00    +0.126 A 
ATOM      7  F   LIG    1       21.640 -18.253   3.506  0.00  0.00    -0.205 F 
ATOM      8  C   LIG    1       22.177 -19.703   5.288  0.00  0.00    +0.039 A 
ATOM      9  C   LIG    1       23.138 -20.411   6.027  0.00  0.00    +0.012 A 
ENDBRANCH   1   2
BRANCH   1  10
ATOM     10  C   LIG    1       24.932 -22.501   7.094  0.00  0.00    +0.092 C 
ATOM     11  C   LIG    1       25.477 -22.691   8.538  0.00  0.00    +0.027 C 
BRANCH  10  16
ATOM     12  C   LIG    1       24.948 -27.987   6.827  0.00  0.00    +0.007 C 
ATOM     13  C   LIG    1       25.047 -26.769   6.250  0.00  0.00    -0.074 C 
ATOM     14  C   LIG    1       23.880 -25.999   5.710  0.00  0.00    +0.045 C 
ATOM     15  C   LIG    1       23.766 -24.649   6.443  0.00  0.00    +0.089 C 
ATOM     16  N   LIG    1       24.998 -23.830   6.389  0.00  0.00    -0.296 NA
ATOM     17  C   LIG    1       26.146 -24.650   6.885  0.00  0.00    +0.089 C 
ATOM     18  C   LIG    1       26.324 -25.995   6.168  0.00  0.00    +0.045 C 
ENDBRANCH  10  16
ENDBRANCH   1  10
BRANCH   1  19
ATOM     19  O   LIG    1       26.546 -21.526   5.399  0.00  0.00    -0.381 OA
ATOM     20  H   LIG    1       26.486 -20.828   4.719  0.00  0.00    +0.211 HD
ENDBRANCH   1  19
BRANCH   1  21
ATOM     21  C   LIG    1       26.408 -20.295   7.436  0.00  0.00    +0.186 C 
BRANCH  21  22
ATOM     22  N   LIG    1       27.852 -20.386   7.366  0.00  0.00    -0.249 N 
ATOM     23  N   LIG    1       28.517 -21.260   8.148  0.00  0.00    -0.158 NA
ATOM     24  C   LIG    1       29.785 -20.963   7.856  0.00  0.00    +0.244 A 
ATOM     25  N   LIG    1       29.957 -19.905   7.010  0.00  0.00    -0.223 NA
ATOM     26  C   LIG    1       28.723 -19.542   6.743  0.00  0.00    +0.219 A 
ENDBRANCH  21  22
ENDBRANCH   1  21
TORSDOF 6
ENDMDL
MODEL 5
REMARK VINA RESULT:      -8.3      1.747      5.302
REMARK  Name = *****
REMARK                            x       y       z     vdW  Elec       q    Type
REMARK                         _______ _______ _______ _____ _____    ______ ____
ROOT
ATOM      1  C   LIG    1       24.677 -22.364   6.352  0.00  0.00    +0.128 C 
ENDROOT
BRANCH   1   2
ATOM      2  C   LIG    1       24.029 -21.119   5.664  0.00  0.00    +0.022 A 
ATOM      3  C   LIG    1       24.639 -20.523   4.536  0.00  0.00    +0.132 A 
ATOM      4  F   LIG    1       25.794 -21.018   4.064  0.00  0.00    -0.205 F 
ATOM      5  C   LIG    1       24.087 -19.431   3.866  0.00  0.00    +0.077 A 
ATOM      6  C   LIG    1       22.877 -18.920   4.301  0.00  0.00    +0.126 A 
ATOM      7  F   LIG    1       22.314 -17.895   3.648  0.00  0.00    -0.205 F 
ATOM      8  C   LIG    1       22.235 -19.470   5.402  0.00  0.00    +0.039 A 
ATOM      9  C   LIG    1       22.810 -20.553   6.086  0.00  0.00    +0.012 A 
ENDBRANCH   1   2
BRANCH   1  10
ATOM     10  C   LIG    1       25.808 -21.867   7.403  0.00  0.00    +0.092 C 
ATOM     11  C   LIG    1       25.235 -20.704   8.261  0.00  0.00    +0.027 C 
BRANCH  10  16
ATOM     12  C   LIG    1       30.341 -18.766   7.354  0.00  0.00    +0.007 C 
ATOM     13  C   LIG    1       29.592 -19.784   6.874  0.00  0.00    -0.074 C 
ATOM     14  C   LIG    1       29.655 -21.189   7.391  0.00  0.00    +0.045 C 
ATOM     15  C   LIG    1       28.270 -21.609   7.920  0.00  0.00    +0.089 C 
ATOM     16  N   LIG    1       27.180 -21.469   6.928  0.00  0.00    -0.296 NA
ATOM     17  C   LIG    1       27.186 -20.071   6.397  0.00  0.00    +0.089 C 
ATOM     18  C   LIG    1       28.534 -19.611   5.830  0.00  0.00    +0.045 C 
ENDBRANCH  10  16
ENDBRANCH   1  10
BRANCH   1  19
ATOM     19  O   LIG    1       23.570 -23.000   7.029  0.00  0.00    -0.381 OA
ATOM     20  H   LIG    1       23.191 -22.335   7.635  0.00  0.00    +0.211 HD
ENDBRANCH   1  19
BRANCH   1  21
ATOM     21  C   LIG    1       25.172 -23.412   5.312  0.00  0.00    +0.186 C 
BRANCH  21  22
ATOM     22  N   LIG    1       25.155 -24.799   5.730  0.00  0.00    -0.249 N 
ATOM     23  N   LIG    1       24.034 -25.536   5.595  0.00  0.00    -0.158 NA
ATOM     24  C   LIG    1       24.402 -26.682   6.171  0.00  0.00    +0.244 A 
ATOM     25  N   LIG    1       25.646 -26.681   6.732  0.00  0.00    -0.223 NA
ATOM     26  C   LIG    1       26.085 -25.471   6.466  0.00  0.00    +0.219 A 
ENDBRANCH  21  22
ENDBRANCH   1  21
TORSDOF 6
ENDMDL
MODEL 6
REMARK VINA RESULT:      -7.8      2.531      6.177
REMARK  Name = *****
REMARK                            x       y       z     vdW  Elec       q    Type
REMARK                         _______ _______ _______ _____ _____    ______ ____
ROOT
ATOM      1  C   LIG    1       25.474 -21.814   6.581  0.00  0.00    +0.128 C 
ENDROOT
BRANCH   1   2
ATOM      2  C   LIG    1       25.138 -23.339   6.524  0.00  0.00    +0.022 A 
ATOM      3  C   LIG    1       23.794 -23.778   6.502  0.00  0.00    +0.132 A 
ATOM      4  F   LIG    1       22.799 -22.878   6.550  0.00  0.00    -0.205 F 
ATOM      5  C   LIG    1       23.438 -25.124   6.420  0.00  0.00    +0.077 A 
ATOM      6  C   LIG    1       24.438 -26.076   6.328  0.00  0.00    +0.126 A 
ATOM      7  F   LIG    1       24.116 -27.371   6.212  0.00  0.00    -0.205 F 
ATOM      8  C   LIG    1       25.774 -25.699   6.344  0.00  0.00    +0.039 A 
ATOM      9  C   LIG    1       26.123 -24.343   6.452  0.00  0.00    +0.012 A 
ENDBRANCH   1   2
BRANCH   1  10
ATOM     10  C   LIG    1       26.616 -21.558   7.704  0.00  0.00    +0.092 C 
ATOM     11  C   LIG    1       26.105 -20.503   8.725  0.00  0.00    +0.027 C 
BRANCH  10  16
ATOM     12  C   LIG    1       31.234 -18.597   7.971  0.00  0.00    +0.007 C 
ATOM     13  C   LIG    1       30.478 -19.574   7.421  0.00  0.00    -0.074 C 
ATOM     14  C   LIG    1       30.477 -20.997   7.888  0.00  0.00    +0.045 C 
ATOM     15  C   LIG    1       29.058 -21.393   8.340  0.00  0.00    +0.089 C 
ATOM     16  N   LIG    1       28.019 -21.185   7.306  0.00  0.00    -0.296 NA
ATOM     17  C   LIG    1       28.089 -19.770   6.828  0.00  0.00    +0.089 C 
ATOM     18  C   LIG    1       29.475 -19.331   6.339  0.00  0.00    +0.045 C 
ENDBRANCH  10  16
ENDBRANCH   1  10
BRANCH   1  19
ATOM     19  O   LIG    1       25.964 -21.518   5.254  0.00  0.00    -0.381 OA
ATOM     20  H   LIG    1       25.893 -20.551   5.136  0.00  0.00    +0.211 HD
ENDBRANCH   1  19
BRANCH   1  21
ATOM     21  C   LIG    1       24.195 -20.941   6.745  0.00  0.00    +0.186 C 
BRANCH  21  22
ATOM     22  N   LIG    1       23.749 -20.215   5.573  0.00  0.00    -0.249 N 
ATOM     23  N   LIG    1       24.639 -19.820   4.640  0.00  0.00    -0.158 NA
ATOM     24  C   LIG    1       23.859 -19.123   3.811  0.00  0.00    +0.244 A 
ATOM     25  N   LIG    1       22.560 -18.985   4.209  0.00  0.00    -0.223 NA
ATOM     26  C   LIG    1       22.528 -19.656   5.339  0.00  0.00    +0.219 A 
ENDBRANCH  21  22
ENDBRANCH   1  21
TORSDOF 6
ENDMDL
MODEL 7
REMARK VINA RESULT:      -7.6      1.555      5.527
REMARK  Name = *****
REMARK                            x       y       z     vdW  Elec       q    Type
REMARK                         _______ _______ _______ _____ _____    ______ ____
ROOT
ATOM      1  C   LIG    1       25.784 -21.251   7.462  0.00  0.00    +0.128 C 
ENDROOT
BRANCH   1   2
ATOM      2  C   LIG    1       24.918 -20.680   6.293  0.00  0.00    +0.022 A 
ATOM      3  C   LIG    1       23.531 -20.464   6.467  0.00  0.00    +0.132 A 
ATOM      4  F   LIG    1       22.950 -20.769   7.637  0.00  0.00    -0.205 F 
ATOM      5  C   LIG    1       22.718 -19.928   5.467  0.00  0.00    +0.077 A 
ATOM      6  C   LIG    1       23.290 -19.564   4.262  0.00  0.00    +0.126 A 
ATOM      7  F   LIG    1       22.532 -19.015   3.304  0.00  0.00    -0.205 F 
ATOM      8  C   LIG    1       24.648 -19.753   4.041  0.00  0.00    +0.039 A 
ATOM      9  C   LIG    1       25.455 -20.316   5.042  0.00  0.00    +0.012 A 
ENDBRANCH   1   2
BRANCH   1  10
ATOM     10  C   LIG    1       27.348 -21.216   7.037  0.00  0.00    +0.092 C 
ATOM     11  C   LIG    1       28.110 -22.345   7.788  0.00  0.00    +0.027 C 
BRANCH  10  16
ATOM     12  C   LIG    1       31.902 -18.290   7.972  0.00  0.00    +0.007 C 
ATOM     13  C   LIG    1       30.581 -18.379   7.695  0.00  0.00    -0.074 C 
ATOM     14  C   LIG    1       30.019 -18.460   6.309  0.00  0.00    +0.045 C 
ATOM     15  C   LIG    1       29.223 -19.770   6.148  0.00  0.00    +0.089 C 
ATOM     16  N   LIG    1       28.152 -19.949   7.154  0.00  0.00    -0.296 NA
ATOM     17  C   LIG    1       28.743 -19.806   8.521  0.00  0.00    +0.089 C 
ATOM     18  C   LIG    1       29.523 -18.505   8.744  0.00  0.00    +0.045 C 
ENDBRANCH  10  16
ENDBRANCH   1  10
BRANCH   1  19
ATOM     19  O   LIG    1       25.517 -20.351   8.562  0.00  0.00    -0.381 OA
ATOM     20  H   LIG    1       25.672 -19.446   8.230  0.00  0.00    +0.211 HD
ENDBRANCH   1  19
BRANCH   1  21
ATOM     21  C   LIG    1       25.272 -22.641   7.942  0.00  0.00    +0.186 C 
BRANCH  21  22
ATOM     22  N   LIG    1       24.949 -23.606   6.911  0.00  0.00    -0.249 N 
ATOM     23  N   LIG    1       23.690 -24.069   6.785  0.00  0.00    -0.158 NA
ATOM     24  C   LIG    1       23.839 -24.978   5.819  0.00  0.00    +0.244 A 
ATOM     25  N   LIG    1       25.122 -25.174   5.395  0.00  0.00    -0.223 NA
ATOM     26  C   LIG    1       25.804 -24.318   6.123  0.00  0.00    +0.219 A 
ENDBRANCH  21  22
ENDBRANCH   1  21
TORSDOF 6
ENDMDL
MODEL 8
REMARK VINA RESULT:      -7.5      2.785      4.521
REMARK  Name = *****
REMARK                            x       y       z     vdW  Elec       q    Type
REMARK                         _______ _______ _______ _____ _____    ______ ____
ROOT
ATOM      1  C   LIG    1       24.934 -21.455   6.674  0.00  0.00    +0.128 C 
ENDROOT
BRANCH   1   2
ATOM      2  C   LIG    1       26.326 -20.752   6.791  0.00  0.00    +0.022 A 
ATOM      3  C   LIG    1       26.786 -20.275   8.040  0.00  0.00    +0.132 A 
ATOM      4  F   LIG    1       26.015 -20.409   9.130  0.00  0.00    -0.205 F 
ATOM      5  C   LIG    1       28.032 -19.669   8.206  0.00  0.00    +0.077 A 
ATOM      6  C   LIG    1       28.870 -19.551   7.112  0.00  0.00    +0.126 A 
ATOM      7  F   LIG    1       30.085 -19.005   7.260  0.00  0.00    -0.205 F 
ATOM      8  C   LIG    1       28.467 -20.005   5.864  0.00  0.00    +0.039 A 
ATOM      9  C   LIG    1       27.202 -20.591   5.700  0.00  0.00    +0.012 A 
ENDBRANCH   1   2
BRANCH   1  10
ATOM     10  C   LIG    1       25.032 -22.945   7.305  0.00  0.00    +0.092 C 
ATOM     11  C   LIG    1       26.250 -23.016   8.268  0.00  0.00    +0.027 C 
BRANCH  10  16
ATOM     12  C   LIG    1       24.907 -28.333   6.245  0.00  0.00    +0.007 C 
ATOM     13  C   LIG    1       25.039 -27.047   5.850  0.00  0.00    -0.074 C 
ATOM     14  C   LIG    1       23.895 -26.177   5.428  0.00  0.00    +0.045 C 
ATOM     15  C   LIG    1       23.813 -24.945   6.350  0.00  0.00    +0.089 C 
ATOM     16  N   LIG    1       25.066 -24.159   6.415  0.00  0.00    -0.296 NA
ATOM     17  C   LIG    1       26.190 -25.072   6.785  0.00  0.00    +0.089 C 
ATOM     18  C   LIG    1       26.336 -26.302   5.881  0.00  0.00    +0.045 C 
ENDBRANCH  10  16
ENDBRANCH   1  10
BRANCH   1  19
ATOM     19  O   LIG    1       24.055 -20.610   7.450  0.00  0.00    -0.381 OA
ATOM     20  H   LIG    1       23.771 -19.884   6.863  0.00  0.00    +0.211 HD
ENDBRANCH   1  19
BRANCH   1  21
ATOM     21  C   LIG    1       24.373 -21.398   5.223  0.00  0.00    +0.186 C 
BRANCH  21  22
ATOM     22  N   LIG    1       23.742 -20.159   4.818  0.00  0.00    -0.249 N 
ATOM     23  N   LIG    1       22.498 -19.860   5.241  0.00  0.00    -0.158 NA
ATOM     24  C   LIG    1       22.262 -18.723   4.583  0.00  0.00    +0.244 A 
ATOM     25  N   LIG    1       23.240 -18.338   3.713  0.00  0.00    -0.223 NA
ATOM     26  C   LIG    1       24.147 -19.279   3.858  0.00  0.00    +0.219 A 
ENDBRANCH  21  22
ENDBRANCH   1  21
TORSDOF 6
ENDMDL
MODEL 9
REMARK VINA RESULT:      -7.3      2.367      5.644
REMARK  Name = *****
REMARK                            x       y       z     vdW  Elec       q    Type
REMARK                         _______ _______ _______ _____ _____    ______ ____
ROOT
ATOM      1  C   LIG    1       25.497 -22.974   6.954  0.00  0.00    +0.128 C 
ENDROOT
BRANCH   1   2
ATOM      2  C   LIG    1       25.505 -24.460   6.468  0.00  0.00    +0.022 A 
ATOM      3  C   LIG    1       25.212 -24.776   5.121  0.00  0.00    +0.132 A 
ATOM      4  F   LIG    1       24.905 -23.794   4.258  0.00  0.00    -0.205 F 
ATOM      5  C   LIG    1       25.236 -26.080   4.627  0.00  0.00    +0.077 A 
ATOM      6  C   LIG    1       25.587 -27.112   5.479  0.00  0.00    +0.126 A 
ATOM      7  F   LIG    1       25.650 -28.367   5.014  0.00  0.00    -0.205 F 
ATOM      8  C   LIG    1       25.886 -26.856   6.810  0.00  0.00    +0.039 A 
ATOM      9  C   LIG    1       25.836 -25.543   7.305  0.00  0.00    +0.012 A 
ENDBRANCH   1   2
BRANCH   1  10
ATOM     10  C   LIG    1       24.003 -22.365   6.791  0.00  0.00    +0.092 C 
ATOM     11  C   LIG    1       22.965 -23.520   6.882  0.00  0.00    +0.027 C 
BRANCH  10  16
ATOM     12  C   LIG    1       22.192 -17.795   4.340  0.00  0.00    +0.007 C 
ATOM     13  C   LIG    1       22.638 -19.071   4.297  0.00  0.00    -0.074 C 
ATOM     14  C   LIG    1       24.083 -19.452   4.190  0.00  0.00    +0.045 C 
ATOM     15  C   LIG    1       24.486 -20.302   5.410  0.00  0.00    +0.089 C 
ATOM     16  N   LIG    1       23.646 -21.505   5.609  0.00  0.00    -0.296 NA
ATOM     17  C   LIG    1       22.210 -21.089   5.655  0.00  0.00    +0.089 C 
ATOM     18  C   LIG    1       21.747 -20.263   4.448  0.00  0.00    +0.045 C 
ENDBRANCH  10  16
ENDBRANCH   1  10
BRANCH   1  19
ATOM     19  O   LIG    1       25.881 -23.064   8.344  0.00  0.00    -0.381 OA
ATOM     20  H   LIG    1       25.144 -23.500   8.813  0.00  0.00    +0.211 HD
ENDBRANCH   1  19
BRANCH   1  21
ATOM     21  C   LIG    1       26.619 -22.133   6.277  0.00  0.00    +0.186 C 
BRANCH  21  22
ATOM     22  N   LIG    1       27.494 -21.389   7.159  0.00  0.00    -0.249 N 
ATOM     23  N   LIG    1       27.023 -20.330   7.848  0.00  0.00    -0.158 NA
ATOM     24  C   LIG    1       28.135 -19.884   8.438  0.00  0.00    +0.244 A 
ATOM     25  N   LIG    1       29.281 -20.542   8.096  0.00  0.00    -0.223 NA
ATOM     26  C   LIG    1       28.851 -21.464   7.264  0.00  0.00    +0.219 A 
ENDBRANCH  21  22
ENDBRANCH   1  21
TORSDOF 6
ENDMDL
