MODEL 1
REMARK VINA RESULT:      -9.2      0.000      0.000
REMARK  Name = *****
REMARK                            x       y       z     vdW  Elec       q    Type
REMARK                         _______ _______ _______ _____ _____    ______ ____
ROOT
ATOM      1  N   LIG    1       26.748 -20.931   6.947  0.00  0.00    -0.084 NA
ATOM      2  C   LIG    1       25.715 -21.425   6.326  0.00  0.00    +0.118 A 
ATOM      3  C   LIG    1       24.961 -20.538   5.406  0.00  0.00    +0.011 A 
ATOM      4  C   LIG    1       23.593 -20.294   5.595  0.00  0.00    -0.016 A 
ATOM      5  C   LIG    1       22.949 -19.408   4.721  0.00  0.00    +0.008 A 
ATOM      6  C   LIG    1       23.641 -18.821   3.657  0.00  0.00    +0.001 A 
ATOM      7  C   LIG    1       24.994 -19.093   3.467  0.00  0.00    +0.001 A 
ATOM      8  C   LIG    1       22.809 -20.878   6.693  0.00  0.00    +0.009 A 
ATOM      9  C   LIG    1       22.938 -22.118   7.178  0.00  0.00    +0.009 A 
ATOM     10  C   LIG    1       23.911 -23.131   6.742  0.00  0.00    -0.016 A 
ATOM     11  C   LIG    1       23.513 -24.477   6.741  0.00  0.00    +0.008 A 
ATOM     12  C   LIG    1       24.415 -25.493   6.411  0.00  0.00    +0.001 A 
ATOM     13  C   LIG    1       25.734 -25.181   6.092  0.00  0.00    +0.001 A 
ATOM     14  C   LIG    1       26.146 -23.851   6.085  0.00  0.00    +0.010 A 
ATOM     15  C   LIG    1       25.661 -19.941   4.349  0.00  0.00    +0.010 A 
ATOM     16  C   LIG    1       25.240 -22.830   6.412  0.00  0.00    +0.011 A 
ENDROOT
BRANCH   1  17
ATOM     17  O   LIG    1       27.303 -21.847   7.855  0.00  0.00    -0.392 OA
BRANCH  17  18
ATOM     18  C   LIG    1       28.719 -21.654   7.919  0.00  0.00    +0.277 C 
BRANCH  18  19
ATOM     19  C   LIG    1       29.079 -20.244   7.428  0.00  0.00    +0.124 C 
BRANCH  19  21
ATOM     20  C   LIG    1       30.282 -18.322   8.258  0.00  0.00    +0.101 C 
ATOM     21  N   LIG    1       29.199 -19.262   8.519  0.00  0.00    -0.316 NA
ATOM     22  H   LIG    1       28.314 -18.754   8.583  0.00  0.00    +0.122 HD
ENDBRANCH  19  21
ENDBRANCH  18  19
ENDBRANCH  17  18
ENDBRANCH   1  17
TORSDOF 4
ENDMDL
MODEL 2
REMARK VINA RESULT:      -8.2      2.486      5.110
REMARK  Name = *****
REMARK                            x       y       z     vdW  Elec       q    Type
REMARK                         _______ _______ _______ _____ _____    ______ ____
ROOT
ATOM      1  N   LIG    1       24.395 -23.117   4.927  0.00  0.00    -0.084 NA
ATOM      2  C   LIG    1       24.619 -21.924   5.400  0.00  0.00    +0.118 A 
ATOM      3  C   LIG    1       23.767 -20.809   4.919  0.00  0.00    +0.011 A 
ATOM      4  C   LIG    1       24.329 -19.683   4.298  0.00  0.00    -0.016 A 
ATOM      5  C   LIG    1       23.466 -18.687   3.821  0.00  0.00    +0.008 A 
ATOM      6  C   LIG    1       22.084 -18.789   4.002  0.00  0.00    +0.001 A 
ATOM      7  C   LIG    1       21.542 -19.901   4.644  0.00  0.00    +0.001 A 
ATOM      8  C   LIG    1       25.772 -19.517   4.075  0.00  0.00    +0.009 A 
ATOM      9  C   LIG    1       26.745 -19.884   4.917  0.00  0.00    +0.009 A 
ATOM     10  C   LIG    1       26.573 -20.560   6.212  0.00  0.00    -0.016 A 
ATOM     11  C   LIG    1       27.456 -20.236   7.253  0.00  0.00    +0.008 A 
ATOM     12  C   LIG    1       27.393 -20.899   8.482  0.00  0.00    +0.001 A 
ATOM     13  C   LIG    1       26.455 -21.908   8.685  0.00  0.00    +0.001 A 
ATOM     14  C   LIG    1       25.569 -22.242   7.663  0.00  0.00    +0.010 A 
ATOM     15  C   LIG    1       22.380 -20.921   5.090  0.00  0.00    +0.010 A 
ATOM     16  C   LIG    1       25.629 -21.573   6.431  0.00  0.00    +0.011 A 
ENDROOT
BRANCH   1  17
ATOM     17  O   LIG    1       25.334 -24.051   5.392  0.00  0.00    -0.392 OA
BRANCH  17  18
ATOM     18  C   LIG    1       25.012 -25.346   4.878  0.00  0.00    +0.277 C 
BRANCH  18  19
ATOM     19  C   LIG    1       24.302 -26.178   5.956  0.00  0.00    +0.124 C 
BRANCH  19  21
ATOM     20  C   LIG    1       25.341 -28.278   5.372  0.00  0.00    +0.101 C 
ATOM     21  N   LIG    1       24.076 -27.577   5.556  0.00  0.00    -0.316 NA
ATOM     22  H   LIG    1       23.538 -28.033   6.296  0.00  0.00    +0.122 HD
ENDBRANCH  19  21
ENDBRANCH  18  19
ENDBRANCH  17  18
ENDBRANCH   1  17
TORSDOF 4
ENDMDL
MODEL 3
REMARK VINA RESULT:      -7.3      2.395      5.255
REMARK  Name = *****
REMARK                            x       y       z     vdW  Elec       q    Type
REMARK                         _______ _______ _______ _____ _____    ______ ____
ROOT
ATOM      1  N   LIG    1       24.749 -21.317   4.080  0.00  0.00    -0.084 NA
ATOM      2  C   LIG    1       25.052 -21.843   5.233  0.00  0.00    +0.118 A 
ATOM      3  C   LIG    1       24.672 -23.255   5.479  0.00  0.00    +0.011 A 
ATOM      4  C   LIG    1       23.845 -23.605   6.558  0.00  0.00    -0.016 A 
ATOM      5  C   LIG    1       23.482 -24.951   6.707  0.00  0.00    +0.008 A 
ATOM      6  C   LIG    1       23.971 -25.927   5.835  0.00  0.00    +0.001 A 
ATOM      7  C   LIG    1       24.813 -25.568   4.784  0.00  0.00    +0.001 A 
ATOM      8  C   LIG    1       23.295 -22.628   7.508  0.00  0.00    +0.009 A 
ATOM      9  C   LIG    1       23.933 -21.553   7.986  0.00  0.00    +0.009 A 
ATOM     10  C   LIG    1       25.289 -21.109   7.629  0.00  0.00    -0.016 A 
ATOM     11  C   LIG    1       26.077 -20.515   8.627  0.00  0.00    +0.008 A 
ATOM     12  C   LIG    1       27.344 -20.003   8.332  0.00  0.00    +0.001 A 
ATOM     13  C   LIG    1       27.838 -20.064   7.031  0.00  0.00    +0.001 A 
ATOM     14  C   LIG    1       27.071 -20.652   6.029  0.00  0.00    +0.010 A 
ATOM     15  C   LIG    1       25.153 -24.230   4.595  0.00  0.00    +0.010 A 
ATOM     16  C   LIG    1       25.801 -21.170   6.325  0.00  0.00    +0.011 A 
ENDROOT
BRANCH   1  17
ATOM     17  O   LIG    1       25.079 -19.954   4.021  0.00  0.00    -0.392 OA
BRANCH  17  18
ATOM     18  C   LIG    1       24.054 -19.247   3.317  0.00  0.00    +0.277 C 
BRANCH  18  19
ATOM     19  C   LIG    1       23.070 -18.619   4.316  0.00  0.00    +0.124 C 
BRANCH  19  21
ATOM     20  C   LIG    1       21.665 -20.548   4.680  0.00  0.00    +0.101 C 
ATOM     21  N   LIG    1       22.556 -19.580   5.307  0.00  0.00    -0.316 NA
ATOM     22  H   LIG    1       23.357 -20.068   5.716  0.00  0.00    +0.122 HD
ENDBRANCH  19  21
ENDBRANCH  18  19
ENDBRANCH  17  18
ENDBRANCH   1  17
TORSDOF 4
ENDMDL
MODEL 4
REMARK VINA RESULT:      -7.1      2.343      5.324
REMARK  Name = *****
REMARK                            x       y       z     vdW  Elec       q    Type
REMARK                         _______ _______ _______ _____ _____    ______ ____
ROOT
ATOM      1  N   LIG    1       26.205 -23.664   6.514  0.00  0.00    -0.084 NA
ATOM      2  C   LIG    1       25.999 -22.376   6.525  0.00  0.00    +0.118 A 
ATOM      3  C   LIG    1       27.072 -21.502   7.057  0.00  0.00    +0.011 A 
ATOM      4  C   LIG    1       26.832 -20.635   8.134  0.00  0.00    -0.016 A 
ATOM      5  C   LIG    1       27.901 -19.870   8.623  0.00  0.00    +0.008 A 
ATOM      6  C   LIG    1       29.161 -19.933   8.021  0.00  0.00    +0.001 A 
ATOM      7  C   LIG    1       29.378 -20.779   6.936  0.00  0.00    +0.001 A 
ATOM      8  C   LIG    1       25.532 -20.524   8.812  0.00  0.00    +0.009 A 
ATOM      9  C   LIG    1       24.333 -20.572   8.221  0.00  0.00    +0.009 A 
ATOM     10  C   LIG    1       24.069 -20.783   6.790  0.00  0.00    -0.016 A 
ATOM     11  C   LIG    1       22.980 -20.115   6.210  0.00  0.00    +0.008 A 
ATOM     12  C   LIG    1       22.631 -20.334   4.873  0.00  0.00    +0.001 A 
ATOM     13  C   LIG    1       23.357 -21.237   4.100  0.00  0.00    +0.001 A 
ATOM     14  C   LIG    1       24.442 -21.907   4.659  0.00  0.00    +0.010 A 
ATOM     15  C   LIG    1       28.338 -21.577   6.461  0.00  0.00    +0.010 A 
ATOM     16  C   LIG    1       24.795 -21.684   5.999  0.00  0.00    +0.011 A 
ENDROOT
BRANCH   1  17
ATOM     17  O   LIG    1       25.074 -24.372   6.078  0.00  0.00    -0.392 OA
BRANCH  17  18
ATOM     18  C   LIG    1       25.488 -25.487   5.283  0.00  0.00    +0.277 C 
BRANCH  18  19
ATOM     19  C   LIG    1       26.408 -26.402   6.104  0.00  0.00    +0.124 C 
BRANCH  19  21
ATOM     20  C   LIG    1       24.470 -27.835   5.945  0.00  0.00    +0.101 C 
ATOM     21  N   LIG    1       25.901 -27.780   6.222  0.00  0.00    -0.316 NA
ATOM     22  H   LIG    1       26.402 -28.358   5.543  0.00  0.00    +0.122 HD
ENDBRANCH  19  21
ENDBRANCH  18  19
ENDBRANCH  17  18
ENDBRANCH   1  17
TORSDOF 4
ENDMDL
MODEL 5
REMARK VINA RESULT:      -6.6      2.214      4.775
REMARK  Name = *****
REMARK                            x       y       z     vdW  Elec       q    Type
REMARK                         _______ _______ _______ _____ _____    ______ ____
ROOT
ATOM      1  N   LIG    1       25.200 -21.178   4.183  0.00  0.00    -0.084 NA
ATOM      2  C   LIG    1       25.316 -21.684   5.379  0.00  0.00    +0.118 A 
ATOM      3  C   LIG    1       24.747 -23.031   5.626  0.00  0.00    +0.011 A 
ATOM      4  C   LIG    1       23.776 -23.236   6.618  0.00  0.00    -0.016 A 
ATOM      5  C   LIG    1       23.241 -24.524   6.769  0.00  0.00    +0.008 A 
ATOM      6  C   LIG    1       23.700 -25.586   5.985  0.00  0.00    +0.001 A 
ATOM      7  C   LIG    1       24.683 -25.373   5.022  0.00  0.00    +0.001 A 
ATOM      8  C   LIG    1       23.251 -22.162   7.473  0.00  0.00    +0.009 A 
ATOM      9  C   LIG    1       23.958 -21.148   7.983  0.00  0.00    +0.009 A 
ATOM     10  C   LIG    1       25.387 -20.879   7.762  0.00  0.00    -0.016 A 
ATOM     11  C   LIG    1       26.132 -20.336   8.821  0.00  0.00    +0.008 A 
ATOM     12  C   LIG    1       27.475 -19.987   8.650  0.00  0.00    +0.001 A 
ATOM     13  C   LIG    1       28.091 -20.161   7.413  0.00  0.00    +0.001 A 
ATOM     14  C   LIG    1       27.368 -20.699   6.352  0.00  0.00    +0.010 A 
ATOM     15  C   LIG    1       25.198 -24.093   4.829  0.00  0.00    +0.010 A 
ATOM     16  C   LIG    1       26.021 -21.054   6.524  0.00  0.00    +0.011 A 
ENDROOT
BRANCH   1  17
ATOM     17  O   LIG    1       25.693 -19.865   4.119  0.00  0.00    -0.392 OA
BRANCH  17  18
ATOM     18  C   LIG    1       24.616 -18.965   3.845  0.00  0.00    +0.277 C 
BRANCH  18  19
ATOM     19  C   LIG    1       25.153 -17.699   3.160  0.00  0.00    +0.124 C 
BRANCH  19  21
ATOM     20  C   LIG    1       26.900 -16.085   3.574  0.00  0.00    +0.101 C 
ATOM     21  N   LIG    1       26.597 -17.496   3.366  0.00  0.00    -0.316 NA
ATOM     22  H   LIG    1       26.875 -18.030   4.192  0.00  0.00    +0.122 HD
ENDBRANCH  19  21
ENDBRANCH  18  19
ENDBRANCH  17  18
ENDBRANCH   1  17
TORSDOF 4
ENDMDL
MODEL 6
REMARK VINA RESULT:      -6.3      5.749      9.360
REMARK  Name = *****
REMARK                            x       y       z     vdW  Elec       q    Type
REMARK                         _______ _______ _______ _____ _____    ______ ____
ROOT
ATOM      1  N   LIG    1       24.313 -28.732   5.842  0.00  0.00    -0.084 NA
ATOM      2  C   LIG    1       24.776 -29.637   6.658  0.00  0.00    +0.118 A 
ATOM      3  C   LIG    1       24.975 -31.012   6.138  0.00  0.00    +0.011 A 
ATOM      4  C   LIG    1       24.330 -32.109   6.728  0.00  0.00    -0.016 A 
ATOM      5  C   LIG    1       24.520 -33.376   6.159  0.00  0.00    +0.008 A 
ATOM      6  C   LIG    1       25.368 -33.549   5.062  0.00  0.00    +0.001 A 
ATOM      7  C   LIG    1       26.022 -32.454   4.502  0.00  0.00    +0.001 A 
ATOM      8  C   LIG    1       23.424 -31.995   7.880  0.00  0.00    +0.009 A 
ATOM      9  C   LIG    1       23.581 -31.172   8.923  0.00  0.00    +0.009 A 
ATOM     10  C   LIG    1       24.662 -30.192   9.111  0.00  0.00    -0.016 A 
ATOM     11  C   LIG    1       25.136 -29.967  10.412  0.00  0.00    +0.008 A 
ATOM     12  C   LIG    1       26.107 -28.993  10.665  0.00  0.00    +0.001 A 
ATOM     13  C   LIG    1       26.610 -28.219   9.622  0.00  0.00    +0.001 A 
ATOM     14  C   LIG    1       26.152 -28.430   8.324  0.00  0.00    +0.010 A 
ATOM     15  C   LIG    1       25.815 -31.180   5.029  0.00  0.00    +0.010 A 
ATOM     16  C   LIG    1       25.181 -29.410   8.069  0.00  0.00    +0.011 A 
ENDROOT
BRANCH   1  17
ATOM     17  O   LIG    1       24.084 -27.508   6.491  0.00  0.00    -0.392 OA
BRANCH  17  18
ATOM     18  C   LIG    1       24.372 -26.432   5.594  0.00  0.00    +0.277 C 
BRANCH  18  19
ATOM     19  C   LIG    1       24.402 -25.103   6.362  0.00  0.00    +0.124 C 
BRANCH  19  21
ATOM     20  C   LIG    1       23.190 -23.068   6.829  0.00  0.00    +0.101 C 
ATOM     21  N   LIG    1       23.073 -24.483   6.502  0.00  0.00    -0.316 NA
ATOM     22  H   LIG    1       22.582 -24.588   5.610  0.00  0.00    +0.122 HD
ENDBRANCH  19  21
ENDBRANCH  18  19
ENDBRANCH  17  18
ENDBRANCH   1  17
TORSDOF 4
ENDMDL
