MODEL 1
REMARK VINA RESULT:      -8.5      0.000      0.000
REMARK  Name = *****
REMARK                            x       y       z     vdW  Elec       q    Type
REMARK                         _______ _______ _______ _____ _____    ______ ____
ROOT
ATOM      1  C   LIG    1       26.298 -20.857   6.195  0.00  0.00    +0.124 A 
ATOM      2  C   LIG    1       26.829 -21.805   7.065  0.00  0.00    +0.069 A 
ATOM      3 CL   LIG    1       25.919 -23.100   7.758  0.00  0.00    -0.082 Cl
ATOM      4  C   LIG    1       28.183 -21.728   7.424  0.00  0.00    +0.045 A 
ATOM      5  C   LIG    1       29.042 -20.728   6.925  0.00  0.00    +0.043 A 
ATOM      6  C   LIG    1       28.477 -19.755   6.063  0.00  0.00    +0.082 A 
ATOM      7  C   LIG    1       27.118 -19.836   5.699  0.00  0.00    +0.046 A 
ENDROOT
BRANCH   1   8
ATOM      8  S   LIG    1       24.600 -20.880   5.720  0.00  0.00    +0.057 S 
ATOM      9  O   LIG    1       23.773 -20.928   6.904  0.00  0.00    -0.153 OA
ATOM     10  O   LIG    1       24.387 -19.896   4.684  0.00  0.00    -0.153 OA
BRANCH   8  11
ATOM     11  N   LIG    1       24.441 -22.357   4.941  0.00  0.00    -0.203 NA
ATOM     12  H   LIG    1       24.761 -23.107   5.556  0.00  0.00    +0.144 HD
ATOM     13  H   LIG    1       23.485 -22.475   4.605  0.00  0.00    +0.144 HD
ENDBRANCH   8  11
ENDBRANCH   1   8
BRANCH   5  14
ATOM     14  N   LIG    1       30.364 -20.634   7.390  0.00  0.00    -0.336 N 
ATOM     15  H   LIG    1       30.940 -21.392   7.000  0.00  0.00    +0.146 HD
BRANCH  14  16
ATOM     16  C   LIG    1       30.622 -20.445   8.819  0.00  0.00    +0.176 C 
BRANCH  16  17
ATOM     17  C   LIG    1       30.843 -19.022   9.214  0.00  0.00    +0.122 A 
ATOM     18  O   LIG    1       32.100 -18.704   9.642  0.00  0.00    -0.466 OA
ATOM     19  C   LIG    1       32.093 -17.385   9.959  0.00  0.00    +0.195 A 
ATOM     20  C   LIG    1       30.850 -16.843   9.735  0.00  0.00    +0.041 A 
ATOM     21  C   LIG    1       30.038 -17.901   9.255  0.00  0.00    +0.046 A 
ENDBRANCH  16  17
ENDBRANCH  14  16
ENDBRANCH   5  14
BRANCH   6  22
ATOM     22  C   LIG    1       29.231 -18.612   5.468  0.00  0.00    +0.339 C 
ATOM     23  O   LIG    1       30.357 -18.273   5.786  0.00  0.00    -0.245 OA
BRANCH  22  24
ATOM     24  O   LIG    1       28.561 -17.928   4.523  0.00  0.00    -0.477 OA
ATOM     25  H   LIG    1       29.231 -17.295   4.184  0.00  0.00    +0.295 HD
ENDBRANCH  22  24
ENDBRANCH   6  22
TORSDOF 7
ENDMDL
MODEL 2
REMARK VINA RESULT:      -8.1      2.417      3.390
REMARK  Name = *****
REMARK                            x       y       z     vdW  Elec       q    Type
REMARK                         _______ _______ _______ _____ _____    ______ ____
ROOT
ATOM      1  C   LIG    1       27.932 -21.178   7.302  0.00  0.00    +0.124 A 
ATOM      2  C   LIG    1       28.260 -20.149   6.424  0.00  0.00    +0.069 A 
ATOM      3 CL   LIG    1       27.183 -19.514   5.232  0.00  0.00    -0.082 Cl
ATOM      4  C   LIG    1       29.538 -19.574   6.484  0.00  0.00    +0.045 A 
ATOM      5  C   LIG    1       30.511 -19.989   7.415  0.00  0.00    +0.043 A 
ATOM      6  C   LIG    1       30.169 -21.057   8.281  0.00  0.00    +0.082 A 
ATOM      7  C   LIG    1       28.883 -21.631   8.224  0.00  0.00    +0.046 A 
ENDROOT
BRANCH   1   8
ATOM      8  S   LIG    1       26.352 -21.962   7.266  0.00  0.00    +0.057 S 
ATOM      9  O   LIG    1       25.409 -21.107   6.583  0.00  0.00    -0.153 OA
ATOM     10  O   LIG    1       26.524 -23.349   6.900  0.00  0.00    -0.153 OA
BRANCH   8  11
ATOM     11  N   LIG    1       25.909 -22.002   8.884  0.00  0.00    -0.203 NA
ATOM     12  H   LIG    1       26.668 -21.631   9.458  0.00  0.00    +0.144 HD
ATOM     13  H   LIG    1       25.017 -21.525   9.015  0.00  0.00    +0.144 HD
ENDBRANCH   8  11
ENDBRANCH   1   8
BRANCH   5  14
ATOM     14  N   LIG    1       31.808 -19.451   7.372  0.00  0.00    -0.336 N 
ATOM     15  H   LIG    1       32.487 -20.110   7.773  0.00  0.00    +0.146 HD
BRANCH  14  16
ATOM     16  C   LIG    1       32.044 -18.083   7.840  0.00  0.00    +0.176 C 
BRANCH  16  17
ATOM     17  C   LIG    1       31.416 -17.775   9.159  0.00  0.00    +0.122 A 
ATOM     18  O   LIG    1       32.138 -18.120  10.266  0.00  0.00    -0.466 OA
ATOM     19  C   LIG    1       31.400 -17.772  11.350  0.00  0.00    +0.195 A 
ATOM     20  C   LIG    1       30.212 -17.200  10.960  0.00  0.00    +0.041 A 
ATOM     21  C   LIG    1       30.218 -17.204   9.542  0.00  0.00    +0.046 A 
ENDBRANCH  16  17
ENDBRANCH  14  16
ENDBRANCH   5  14
BRANCH   6  22
ATOM     22  C   LIG    1       31.084 -21.643   9.305  0.00  0.00    +0.339 C 
ATOM     23  O   LIG    1       32.279 -21.417   9.389  0.00  0.00    -0.245 OA
BRANCH  22  24
ATOM     24  O   LIG    1       30.495 -22.491  10.168  0.00  0.00    -0.477 OA
ATOM     25  H   LIG    1       29.948 -21.900  10.729  0.00  0.00    +0.295 HD
ENDBRANCH  22  24
ENDBRANCH   6  22
TORSDOF 7
ENDMDL
MODEL 3
REMARK VINA RESULT:      -8.0      3.144      6.950
REMARK  Name = *****
REMARK                            x       y       z     vdW  Elec       q    Type
REMARK                         _______ _______ _______ _____ _____    ______ ____
ROOT
ATOM      1  C   LIG    1       29.080 -19.708   7.337  0.00  0.00    +0.124 A 
ATOM      2  C   LIG    1       28.812 -19.308   6.031  0.00  0.00    +0.069 A 
ATOM      3 CL   LIG    1       29.940 -18.472   5.024  0.00  0.00    -0.082 Cl
ATOM      4  C   LIG    1       27.555 -19.581   5.471  0.00  0.00    +0.045 A 
ATOM      5  C   LIG    1       26.545 -20.264   6.177  0.00  0.00    +0.043 A 
ATOM      6  C   LIG    1       26.825 -20.639   7.514  0.00  0.00    +0.082 A 
ATOM      7  C   LIG    1       28.090 -20.368   8.075  0.00  0.00    +0.046 A 
ENDROOT
BRANCH   1   8
ATOM      8  S   LIG    1       30.629 -19.376   8.111  0.00  0.00    +0.057 S 
ATOM      9  O   LIG    1       31.700 -19.735   7.211  0.00  0.00    -0.153 OA
ATOM     10  O   LIG    1       30.570 -18.079   8.744  0.00  0.00    -0.153 OA
BRANCH   8  11
ATOM     11  N   LIG    1       30.660 -20.467   9.385  0.00  0.00    -0.203 NA
ATOM     12  H   LIG    1       29.860 -21.099   9.318  0.00  0.00    +0.144 HD
ATOM     13  H   LIG    1       31.563 -20.943   9.417  0.00  0.00    +0.144 HD
ENDBRANCH   8  11
ENDBRANCH   1   8
BRANCH   5  14
ATOM     14  N   LIG    1       25.271 -20.428   5.609  0.00  0.00    -0.336 N 
ATOM     15  H   LIG    1       24.539 -20.320   6.323  0.00  0.00    +0.146 HD
BRANCH  14  16
ATOM     16  C   LIG    1       25.004 -21.574   4.736  0.00  0.00    +0.176 C 
BRANCH  16  17
ATOM     17  C   LIG    1       24.528 -22.791   5.459  0.00  0.00    +0.122 A 
ATOM     18  O   LIG    1       23.400 -22.639   6.213  0.00  0.00    -0.466 OA
ATOM     19  C   LIG    1       23.140 -23.840   6.790  0.00  0.00    +0.195 A 
ATOM     20  C   LIG    1       24.081 -24.768   6.413  0.00  0.00    +0.041 A 
ATOM     21  C   LIG    1       24.983 -24.091   5.554  0.00  0.00    +0.046 A 
ENDBRANCH  16  17
ENDBRANCH  14  16
ENDBRANCH   5  14
BRANCH   6  22
ATOM     22  C   LIG    1       25.864 -21.340   8.416  0.00  0.00    +0.339 C 
ATOM     23  O   LIG    1       26.140 -22.281   9.140  0.00  0.00    -0.245 OA
BRANCH  22  24
ATOM     24  O   LIG    1       24.606 -20.865   8.377  0.00  0.00    -0.477 OA
ATOM     25  H   LIG    1       24.156 -21.465   7.743  0.00  0.00    +0.295 HD
ENDBRANCH  22  24
ENDBRANCH   6  22
TORSDOF 7
ENDMDL
MODEL 4
REMARK VINA RESULT:      -7.9      3.224      6.886
REMARK  Name = *****
REMARK                            x       y       z     vdW  Elec       q    Type
REMARK                         _______ _______ _______ _____ _____    ______ ____
ROOT
ATOM      1  C   LIG    1       29.256 -19.414   7.843  0.00  0.00    +0.124 A 
ATOM      2  C   LIG    1       29.395 -19.495   6.460  0.00  0.00    +0.069 A 
ATOM      3 CL   LIG    1       30.796 -18.971   5.596  0.00  0.00    -0.082 Cl
ATOM      4  C   LIG    1       28.348 -20.027   5.693  0.00  0.00    +0.045 A 
ATOM      5  C   LIG    1       27.153 -20.501   6.270  0.00  0.00    +0.043 A 
ATOM      6  C   LIG    1       27.018 -20.384   7.676  0.00  0.00    +0.082 A 
ATOM      7  C   LIG    1       28.072 -19.854   8.447  0.00  0.00    +0.046 A 
ENDROOT
BRANCH   1   8
ATOM      8  S   LIG    1       30.523 -18.735   8.866  0.00  0.00    +0.057 S 
ATOM      9  O   LIG    1       31.254 -17.736   8.121  0.00  0.00    -0.153 OA
ATOM     10  O   LIG    1       29.974 -18.459  10.173  0.00  0.00    -0.153 OA
BRANCH   8  11
ATOM     11  N   LIG    1       31.556 -20.034   9.106  0.00  0.00    -0.203 NA
ATOM     12  H   LIG    1       32.001 -19.955  10.023  0.00  0.00    +0.144 HD
ATOM     13  H   LIG    1       31.056 -20.912   8.962  0.00  0.00    +0.144 HD
ENDBRANCH   8  11
ENDBRANCH   1   8
BRANCH   5  14
ATOM     14  N   LIG    1       26.095 -20.933   5.453  0.00  0.00    -0.336 N 
ATOM     15  H   LIG    1       26.233 -21.912   5.169  0.00  0.00    +0.146 HD
BRANCH  14  16
ATOM     16  C   LIG    1       25.659 -20.104   4.327  0.00  0.00    +0.176 C 
BRANCH  16  17
ATOM     17  C   LIG    1       24.226 -19.691   4.396  0.00  0.00    +0.122 A 
ATOM     18  O   LIG    1       23.403 -20.493   5.134  0.00  0.00    -0.466 OA
ATOM     19  C   LIG    1       22.157 -19.960   5.064  0.00  0.00    +0.195 A 
ATOM     20  C   LIG    1       22.164 -18.819   4.296  0.00  0.00    +0.041 A 
ATOM     21  C   LIG    1       23.502 -18.645   3.860  0.00  0.00    +0.046 A 
ENDBRANCH  16  17
ENDBRANCH  14  16
ENDBRANCH   5  14
BRANCH   6  22
ATOM     22  C   LIG    1       25.812 -20.806   8.448  0.00  0.00    +0.339 C 
ATOM     23  O   LIG    1       25.832 -21.342   9.542  0.00  0.00    -0.245 OA
BRANCH  22  24
ATOM     24  O   LIG    1       24.638 -20.566   7.835  0.00  0.00    -0.477 OA
ATOM     25  H   LIG    1       24.036 -20.344   8.577  0.00  0.00    +0.295 HD
ENDBRANCH  22  24
ENDBRANCH   6  22
TORSDOF 7
ENDMDL
MODEL 5
REMARK VINA RESULT:      -7.9      3.292      6.748
REMARK  Name = *****
REMARK                            x       y       z     vdW  Elec       q    Type
REMARK                         _______ _______ _______ _____ _____    ______ ____
ROOT
ATOM      1  C   LIG    1       28.875 -19.981   6.801  0.00  0.00    +0.124 A 
ATOM      2  C   LIG    1       28.867 -21.077   7.659  0.00  0.00    +0.069 A 
ATOM      3 CL   LIG    1       30.155 -21.468   8.743  0.00  0.00    -0.082 Cl
ATOM      4  C   LIG    1       27.760 -21.939   7.665  0.00  0.00    +0.045 A 
ATOM      5  C   LIG    1       26.637 -21.732   6.839  0.00  0.00    +0.043 A 
ATOM      6  C   LIG    1       26.676 -20.628   5.951  0.00  0.00    +0.082 A 
ATOM      7  C   LIG    1       27.786 -19.760   5.949  0.00  0.00    +0.046 A 
ENDROOT
BRANCH   1   8
ATOM      8  S   LIG    1       30.244 -18.871   6.725  0.00  0.00    +0.057 S 
ATOM      9  O   LIG    1       30.124 -17.891   7.779  0.00  0.00    -0.153 OA
ATOM     10  O   LIG    1       31.456 -19.632   6.528  0.00  0.00    -0.153 OA
BRANCH   8  11
ATOM     11  N   LIG    1       30.005 -18.071   5.269  0.00  0.00    -0.203 NA
ATOM     12  H   LIG    1       30.704 -18.376   4.590  0.00  0.00    +0.144 HD
ATOM     13  H   LIG    1       29.041 -18.192   4.957  0.00  0.00    +0.144 HD
ENDBRANCH   8  11
ENDBRANCH   1   8
BRANCH   5  14
ATOM     14  N   LIG    1       25.597 -22.676   6.809  0.00  0.00    -0.336 N 
ATOM     15  H   LIG    1       24.722 -22.262   7.154  0.00  0.00    +0.146 HD
BRANCH  14  16
ATOM     16  C   LIG    1       25.813 -24.015   7.363  0.00  0.00    +0.176 C 
BRANCH  16  17
ATOM     17  C   LIG    1       25.381 -25.123   6.460  0.00  0.00    +0.122 A 
ATOM     18  O   LIG    1       26.371 -25.745   5.754  0.00  0.00    -0.466 OA
ATOM     19  C   LIG    1       25.780 -26.703   4.995  0.00  0.00    +0.195 A 
ATOM     20  C   LIG    1       24.421 -26.713   5.206  0.00  0.00    +0.041 A 
ATOM     21  C   LIG    1       24.160 -25.690   6.152  0.00  0.00    +0.046 A 
ENDBRANCH  16  17
ENDBRANCH  14  16
ENDBRANCH   5  14
BRANCH   6  22
ATOM     22  C   LIG    1       25.590 -20.279   4.988  0.00  0.00    +0.339 C 
ATOM     23  O   LIG    1       24.402 -20.237   5.254  0.00  0.00    -0.245 OA
BRANCH  22  24
ATOM     24  O   LIG    1       26.011 -20.013   3.738  0.00  0.00    -0.477 OA
ATOM     25  H   LIG    1       25.217 -20.189   3.188  0.00  0.00    +0.295 HD
ENDBRANCH  22  24
ENDBRANCH   6  22
TORSDOF 7
ENDMDL
MODEL 6
REMARK VINA RESULT:      -7.6      3.289      6.953
REMARK  Name = *****
REMARK                            x       y       z     vdW  Elec       q    Type
REMARK                         _______ _______ _______ _____ _____    ______ ____
ROOT
ATOM      1  C   LIG    1       29.236 -20.049   7.433  0.00  0.00    +0.124 A 
ATOM      2  C   LIG    1       28.941 -19.530   6.176  0.00  0.00    +0.069 A 
ATOM      3 CL   LIG    1       29.961 -18.431   5.319  0.00  0.00    -0.082 Cl
ATOM      4  C   LIG    1       27.747 -19.901   5.541  0.00  0.00    +0.045 A 
ATOM      5  C   LIG    1       26.828 -20.797   6.123  0.00  0.00    +0.043 A 
ATOM      6  C   LIG    1       27.131 -21.293   7.415  0.00  0.00    +0.082 A 
ATOM      7  C   LIG    1       28.334 -20.924   8.051  0.00  0.00    +0.046 A 
ENDROOT
BRANCH   1   8
ATOM      8  S   LIG    1       30.708 -19.607   8.299  0.00  0.00    +0.057 S 
ATOM      9  O   LIG    1       30.761 -20.326   9.551  0.00  0.00    -0.153 OA
ATOM     10  O   LIG    1       31.817 -19.609   7.373  0.00  0.00    -0.153 OA
BRANCH   8  11
ATOM     11  N   LIG    1       30.465 -17.987   8.663  0.00  0.00    -0.203 NA
ATOM     12  H   LIG    1       30.555 -17.426   7.814  0.00  0.00    +0.144 HD
ATOM     13  H   LIG    1       29.575 -17.867   9.147  0.00  0.00    +0.144 HD
ENDBRANCH   8  11
ENDBRANCH   1   8
BRANCH   5  14
ATOM     14  N   LIG    1       25.601 -21.062   5.493  0.00  0.00    -0.336 N 
ATOM     15  H   LIG    1       25.453 -22.075   5.397  0.00  0.00    +0.146 HD
BRANCH  14  16
ATOM     16  C   LIG    1       25.245 -20.350   4.263  0.00  0.00    +0.176 C 
BRANCH  16  17
ATOM     17  C   LIG    1       23.933 -19.639   4.331  0.00  0.00    +0.122 A 
ATOM     18  O   LIG    1       23.878 -18.418   3.720  0.00  0.00    -0.466 OA
ATOM     19  C   LIG    1       22.622 -17.938   3.900  0.00  0.00    +0.195 A 
ATOM     20  C   LIG    1       21.861 -18.834   4.613  0.00  0.00    +0.041 A 
ATOM     21  C   LIG    1       22.709 -19.935   4.896  0.00  0.00    +0.046 A 
ENDBRANCH  16  17
ENDBRANCH  14  16
ENDBRANCH   5  14
BRANCH   6  22
ATOM     22  C   LIG    1       26.260 -22.225   8.191  0.00  0.00    +0.339 C 
ATOM     23  O   LIG    1       25.926 -23.339   7.828  0.00  0.00    -0.245 OA
BRANCH  22  24
ATOM     24  O   LIG    1       25.825 -21.740   9.369  0.00  0.00    -0.477 OA
ATOM     25  H   LIG    1       26.296 -22.292  10.029  0.00  0.00    +0.295 HD
ENDBRANCH  22  24
ENDBRANCH   6  22
TORSDOF 7
ENDMDL
MODEL 7
REMARK VINA RESULT:      -7.6      2.253      3.008
REMARK  Name = *****
REMARK                            x       y       z     vdW  Elec       q    Type
REMARK                         _______ _______ _______ _____ _____    ______ ____
ROOT
ATOM      1  C   LIG    1       24.938 -20.451   5.678  0.00  0.00    +0.124 A 
ATOM      2  C   LIG    1       25.692 -19.781   4.719  0.00  0.00    +0.069 A 
ATOM      3 CL   LIG    1       25.037 -19.110   3.268  0.00  0.00    -0.082 Cl
ATOM      4  C   LIG    1       27.073 -19.627   4.912  0.00  0.00    +0.045 A 
ATOM      5  C   LIG    1       27.735 -20.117   6.056  0.00  0.00    +0.043 A 
ATOM      6  C   LIG    1       26.957 -20.821   7.007  0.00  0.00    +0.082 A 
ATOM      7  C   LIG    1       25.569 -20.971   6.816  0.00  0.00    +0.046 A 
ENDROOT
BRANCH   1   8
ATOM      8  S   LIG    1       23.203 -20.701   5.488  0.00  0.00    +0.057 S 
ATOM      9  O   LIG    1       22.748 -21.663   6.464  0.00  0.00    -0.153 OA
ATOM     10  O   LIG    1       22.558 -19.418   5.326  0.00  0.00    -0.153 OA
BRANCH   8  11
ATOM     11  N   LIG    1       23.085 -21.427   3.979  0.00  0.00    -0.203 NA
ATOM     12  H   LIG    1       23.760 -22.191   3.911  0.00  0.00    +0.144 HD
ATOM     13  H   LIG    1       22.120 -21.707   3.800  0.00  0.00    +0.144 HD
ENDBRANCH   8  11
ENDBRANCH   1   8
BRANCH   5  14
ATOM     14  N   LIG    1       29.133 -20.025   6.158  0.00  0.00    -0.336 N 
ATOM     15  H   LIG    1       29.488 -20.676   6.871  0.00  0.00    +0.146 HD
BRANCH  14  16
ATOM     16  C   LIG    1       29.771 -18.711   6.267  0.00  0.00    +0.176 C 
BRANCH  16  17
ATOM     17  C   LIG    1       30.304 -18.405   7.628  0.00  0.00    +0.122 A 
ATOM     18  O   LIG    1       31.651 -18.190   7.712  0.00  0.00    -0.466 OA
ATOM     19  C   LIG    1       31.935 -17.942   9.016  0.00  0.00    +0.195 A 
ATOM     20  C   LIG    1       30.789 -17.987   9.775  0.00  0.00    +0.041 A 
ATOM     21  C   LIG    1       29.733 -18.289   8.879  0.00  0.00    +0.046 A 
ENDBRANCH  16  17
ENDBRANCH  14  16
ENDBRANCH   5  14
BRANCH   6  22
ATOM     22  C   LIG    1       27.497 -21.432   8.258  0.00  0.00    +0.339 C 
ATOM     23  O   LIG    1       28.680 -21.550   8.527  0.00  0.00    -0.245 OA
BRANCH  22  24
ATOM     24  O   LIG    1       26.562 -21.884   9.114  0.00  0.00    -0.477 OA
ATOM     25  H   LIG    1       26.041 -21.080   9.326  0.00  0.00    +0.295 HD
ENDBRANCH  22  24
ENDBRANCH   6  22
TORSDOF 7
ENDMDL
MODEL 8
REMARK VINA RESULT:      -7.0      2.829      6.368
REMARK  Name = *****
REMARK                            x       y       z     vdW  Elec       q    Type
REMARK                         _______ _______ _______ _____ _____    ______ ____
ROOT
ATOM      1  C   LIG    1       30.090 -20.032   8.066  0.00  0.00    +0.124 A 
ATOM      2  C   LIG    1       29.605 -21.253   8.526  0.00  0.00    +0.069 A 
ATOM      3 CL   LIG    1       30.306 -22.144   9.830  0.00  0.00    -0.082 Cl
ATOM      4  C   LIG    1       28.482 -21.824   7.909  0.00  0.00    +0.045 A 
ATOM      5  C   LIG    1       27.807 -21.200   6.841  0.00  0.00    +0.043 A 
ATOM      6  C   LIG    1       28.332 -19.972   6.368  0.00  0.00    +0.082 A 
ATOM      7  C   LIG    1       29.457 -19.396   6.991  0.00  0.00    +0.046 A 
ENDROOT
BRANCH   1   8
ATOM      8  S   LIG    1       31.511 -19.270   8.779  0.00  0.00    +0.057 S 
ATOM      9  O   LIG    1       32.432 -20.292   9.219  0.00  0.00    -0.153 OA
ATOM     10  O   LIG    1       31.934 -18.178   7.932  0.00  0.00    -0.153 OA
BRANCH   8  11
ATOM     11  N   LIG    1       30.897 -18.526  10.152  0.00  0.00    -0.203 NA
ATOM     12  H   LIG    1       30.112 -17.925   9.896  0.00  0.00    +0.144 HD
ATOM     13  H   LIG    1       30.671 -19.226  10.859  0.00  0.00    +0.144 HD
ENDBRANCH   8  11
ENDBRANCH   1   8
BRANCH   5  14
ATOM     14  N   LIG    1       26.748 -21.857   6.192  0.00  0.00    -0.336 N 
ATOM     15  H   LIG    1       26.636 -21.506   5.233  0.00  0.00    +0.146 HD
BRANCH  14  16
ATOM     16  C   LIG    1       25.454 -21.994   6.867  0.00  0.00    +0.176 C 
BRANCH  16  17
ATOM     17  C   LIG    1       24.333 -21.285   6.181  0.00  0.00    +0.122 A 
ATOM     18  O   LIG    1       24.242 -21.467   4.831  0.00  0.00    -0.466 OA
ATOM     19  C   LIG    1       23.180 -20.742   4.400  0.00  0.00    +0.195 A 
ATOM     20  C   LIG    1       22.577 -20.098   5.454  0.00  0.00    +0.041 A 
ATOM     21  C   LIG    1       23.324 -20.446   6.608  0.00  0.00    +0.046 A 
ENDBRANCH  16  17
ENDBRANCH  14  16
ENDBRANCH   5  14
BRANCH   6  22
ATOM     22  C   LIG    1       27.764 -19.191   5.229  0.00  0.00    +0.339 C 
ATOM     23  O   LIG    1       26.680 -19.395   4.711  0.00  0.00    -0.245 OA
BRANCH  22  24
ATOM     24  O   LIG    1       28.558 -18.208   4.769  0.00  0.00    -0.477 OA
ATOM     25  H   LIG    1       28.180 -17.400   5.178  0.00  0.00    +0.295 HD
ENDBRANCH  22  24
ENDBRANCH   6  22
TORSDOF 7
ENDMDL
MODEL 9
REMARK VINA RESULT:      -6.9      3.196      6.729
REMARK  Name = *****
REMARK                            x       y       z     vdW  Elec       q    Type
REMARK                         _______ _______ _______ _____ _____    ______ ____
ROOT
ATOM      1  C   LIG    1       29.906 -20.018   8.018  0.00  0.00    +0.124 A 
ATOM      2  C   LIG    1       29.567 -21.262   8.541  0.00  0.00    +0.069 A 
ATOM      3 CL   LIG    1       30.419 -22.034   9.831  0.00  0.00    -0.082 Cl
ATOM      4  C   LIG    1       28.474 -21.959   8.006  0.00  0.00    +0.045 A 
ATOM      5  C   LIG    1       27.687 -21.442   6.958  0.00  0.00    +0.043 A 
ATOM      6  C   LIG    1       28.064 -20.187   6.419  0.00  0.00    +0.082 A 
ATOM      7  C   LIG    1       29.159 -19.484   6.960  0.00  0.00    +0.046 A 
ENDROOT
BRANCH   1   8
ATOM      8  S   LIG    1       31.282 -19.098   8.626  0.00  0.00    +0.057 S 
ATOM      9  O   LIG    1       32.260 -20.007   9.176  0.00  0.00    -0.153 OA
ATOM     10  O   LIG    1       31.642 -18.091   7.654  0.00  0.00    -0.153 OA
BRANCH   8  11
ATOM     11  N   LIG    1       30.628 -18.234   9.907  0.00  0.00    -0.203 NA
ATOM     12  H   LIG    1       30.594 -18.825  10.740  0.00  0.00    +0.144 HD
ATOM     13  H   LIG    1       31.139 -17.361  10.039  0.00  0.00    +0.144 HD
ENDBRANCH   8  11
ENDBRANCH   1   8
BRANCH   5  14
ATOM     14  N   LIG    1       26.663 -22.219   6.391  0.00  0.00    -0.336 N 
ATOM     15  H   LIG    1       25.986 -21.623   5.898  0.00  0.00    +0.146 HD
BRANCH  14  16
ATOM     16  C   LIG    1       25.992 -23.241   7.198  0.00  0.00    +0.176 C 
BRANCH  16  17
ATOM     17  C   LIG    1       25.732 -24.518   6.469  0.00  0.00    +0.122 A 
ATOM     18  O   LIG    1       25.221 -24.398   5.209  0.00  0.00    -0.466 OA
ATOM     19  C   LIG    1       25.048 -25.654   4.726  0.00  0.00    +0.195 A 
ATOM     20  C   LIG    1       25.447 -26.585   5.655  0.00  0.00    +0.041 A 
ATOM     21  C   LIG    1       25.888 -25.852   6.786  0.00  0.00    +0.046 A 
ENDBRANCH  16  17
ENDBRANCH  14  16
ENDBRANCH   5  14
BRANCH   6  22
ATOM     22  C   LIG    1       27.363 -19.505   5.290  0.00  0.00    +0.339 C 
ATOM     23  O   LIG    1       26.253 -19.791   4.879  0.00  0.00    -0.245 OA
BRANCH  22  24
ATOM     24  O   LIG    1       28.065 -18.515   4.708  0.00  0.00    -0.477 OA
ATOM     25  H   LIG    1       27.524 -18.286   3.921  0.00  0.00    +0.295 HD
ENDBRANCH  22  24
ENDBRANCH   6  22
TORSDOF 7
ENDMDL
