MODEL 1
REMARK VINA RESULT:      -4.1      0.000      0.000
REMARK  Name = *****
REMARK                            x       y       z     vdW  Elec       q    Type
REMARK                         _______ _______ _______ _____ _____    ______ ____
ROOT
ATOM      1  C   UNK A  1       25.165 -20.812   5.078  0.00  0.00    +0.214 C 
ATOM      2  N   UNK A  1       25.214 -19.453   4.898  0.00  0.00    -0.303 N 
ATOM      3  H   UNK A  1       25.570 -18.853   5.640  0.00  0.00    +0.149 HD
ATOM      4  O   UNK A  1       24.772 -21.571   4.196  0.00  0.00    -0.276 OA
ENDROOT
BRANCH   1   5
ATOM      5  C   UNK A  1       25.697 -21.286   6.422  0.00  0.00    +0.098 C 
BRANCH   5   6
ATOM      6  C   UNK A  1       26.834 -20.427   6.998  0.00  0.00    +0.039 C 
BRANCH   6   7
ATOM      7  C   UNK A  1       28.169 -20.484   6.247  0.00  0.00    +0.161 C 
BRANCH   7   8
ATOM      8  N   UNK A  1       29.104 -21.441   6.914  0.00  0.00    -0.318 NA
ATOM      9  H   UNK A  1       29.356 -22.170   6.239  0.00  0.00    +0.119 HD
ATOM     10  H   UNK A  1       29.982 -20.946   7.091  0.00  0.00    +0.119 HD
ENDBRANCH   7   8
BRANCH   7  11
ATOM     11  C   UNK A  1       28.883 -19.112   6.141  0.00  0.00    +0.322 C 
ATOM     12  O   UNK A  1       29.475 -18.533   7.018  0.00  0.00    -0.249 OA
BRANCH  11  13
ATOM     13  O   UNK A  1       28.726 -18.604   4.882  0.00  0.00    -0.479 OA
ATOM     14  H   UNK A  1       27.761 -18.473   4.751  0.00  0.00    +0.295 HD
ENDBRANCH  11  13
ENDBRANCH   7  11
ENDBRANCH   6   7
ENDBRANCH   5   6
ENDBRANCH   1   5
BRANCH   2  15
ATOM     15  C   UNK A  1       24.757 -18.830   3.652  0.00  0.00    +0.168 C 
BRANCH  15  16
ATOM     16  C   UNK A  1       25.625 -17.595   3.395  0.00  0.00    +0.235 C 
ATOM     17  N   GLY A  2       24.958 -16.392   3.527  0.00  0.00    -0.303 N 
ATOM     18  H   GLY A  2       23.942 -16.377   3.588  0.00  0.00    +0.149 HD
ATOM     19  O   UNK A  1       26.813 -17.666   3.090  0.00  0.00    -0.274 OA
BRANCH  17  20
ATOM     20  CA  GLY A  2       25.686 -15.126   3.521  0.00  0.00    +0.224 C 
BRANCH  20  21
ATOM     21  C   GLY A  2       24.746 -13.941   3.670  0.00  0.00    +0.322 C 
ATOM     22  O   GLY A  2       25.069 -12.778   3.433  0.00  0.00    -0.249 OA
BRANCH  21  23
ATOM     23  OXT GLY A  2       23.525 -14.265   4.160  0.00  0.00    -0.479 OA
ATOM     24  HXT GLY A  2       23.197 -15.091   3.756  0.00  0.00    +0.295 HD
ENDBRANCH  21  23
ENDBRANCH  20  21
ENDBRANCH  17  20
ENDBRANCH  15  16
BRANCH  15  25
ATOM     25  C   UNK A  1       23.267 -18.458   3.693  0.00  0.00    +0.097 C 
BRANCH  25  26
ATOM     26  S   UNK A  1       22.307 -19.418   4.918  0.00  0.00    -0.176 S 
ATOM     27  H   UNK A  1       22.872 -18.881   6.015  0.00  0.00    +0.102 HD
ENDBRANCH  25  26
ENDBRANCH  15  25
ENDBRANCH   2  15
TORSDOF 13
ENDMDL
MODEL 2
REMARK VINA RESULT:      -3.7      3.957      5.535
REMARK  Name = *****
REMARK                            x       y       z     vdW  Elec       q    Type
REMARK                         _______ _______ _______ _____ _____    ______ ____
ROOT
ATOM      1  C   UNK A  1       23.493 -15.921   4.143  0.00  0.00    +0.214 C 
ATOM      2  N   UNK A  1       23.374 -14.555   4.117  0.00  0.00    -0.303 N 
ATOM      3  H   UNK A  1       22.557 -14.107   4.528  0.00  0.00    +0.149 HD
ATOM      4  O   UNK A  1       24.478 -16.496   3.686  0.00  0.00    -0.276 OA
ENDROOT
BRANCH   1   5
ATOM      5  C   UNK A  1       22.346 -16.638   4.838  0.00  0.00    +0.098 C 
BRANCH   5   6
ATOM      6  C   UNK A  1       22.123 -18.086   4.373  0.00  0.00    +0.039 C 
BRANCH   6   7
ATOM      7  C   UNK A  1       23.251 -19.076   4.684  0.00  0.00    +0.161 C 
BRANCH   7   8
ATOM      8  N   UNK A  1       23.825 -19.629   3.419  0.00  0.00    -0.318 NA
ATOM      9  H   UNK A  1       24.664 -20.170   3.655  0.00  0.00    +0.119 HD
ATOM     10  H   UNK A  1       23.169 -20.325   3.058  0.00  0.00    +0.119 HD
ENDBRANCH   7   8
BRANCH   7  11
ATOM     11  C   UNK A  1       22.806 -20.269   5.570  0.00  0.00    +0.322 C 
ATOM     12  O   UNK A  1       23.076 -20.450   6.731  0.00  0.00    -0.249 OA
BRANCH  11  13
ATOM     13  O   UNK A  1       22.062 -21.144   4.830  0.00  0.00    -0.479 OA
ATOM     14  H   UNK A  1       21.577 -21.711   5.470  0.00  0.00    +0.295 HD
ENDBRANCH  11  13
ENDBRANCH   7  11
ENDBRANCH   6   7
ENDBRANCH   5   6
ENDBRANCH   1   5
BRANCH   2  15
ATOM     15  C   UNK A  1       24.400 -13.709   3.501  0.00  0.00    +0.168 C 
BRANCH  15  16
ATOM     16  C   UNK A  1       25.667 -13.803   4.356  0.00  0.00    +0.235 C 
ATOM     17  N   GLY A  2       26.717 -14.466   3.747  0.00  0.00    -0.303 N 
ATOM     18  H   GLY A  2       26.556 -15.002   2.897  0.00  0.00    +0.149 HD
ATOM     19  O   UNK A  1       25.744 -13.335   5.488  0.00  0.00    -0.274 OA
BRANCH  17  20
ATOM     20  CA  GLY A  2       28.052 -14.459   4.338  0.00  0.00    +0.224 C 
BRANCH  20  21
ATOM     21  C   GLY A  2       28.752 -13.127   4.123  0.00  0.00    +0.322 C 
ATOM     22  O   GLY A  2       28.750 -12.213   4.945  0.00  0.00    -0.249 OA
BRANCH  21  23
ATOM     23  OXT GLY A  2       29.327 -13.000   2.903  0.00  0.00    -0.479 OA
ATOM     24  HXT GLY A  2       29.074 -13.741   2.320  0.00  0.00    +0.295 HD
ENDBRANCH  21  23
ENDBRANCH  20  21
ENDBRANCH  17  20
ENDBRANCH  15  16
BRANCH  15  25
ATOM     25  C   UNK A  1       23.945 -12.249   3.349  0.00  0.00    +0.097 C 
BRANCH  25  26
ATOM     26  S   UNK A  1       23.519 -11.447   4.936  0.00  0.00    -0.176 S 
ATOM     27  H   UNK A  1       22.933 -12.517   5.501  0.00  0.00    +0.102 HD
ENDBRANCH  25  26
ENDBRANCH  15  25
ENDBRANCH   2  15
TORSDOF 13
ENDMDL
MODEL 3
REMARK VINA RESULT:      -3.6      2.275      6.167
REMARK  Name = *****
REMARK                            x       y       z     vdW  Elec       q    Type
REMARK                         _______ _______ _______ _____ _____    ______ ____
ROOT
ATOM      1  C   UNK A  1       22.317 -17.794   4.510  0.00  0.00    +0.214 C 
ATOM      2  N   UNK A  1       23.324 -18.606   4.966  0.00  0.00    -0.303 N 
ATOM      3  H   UNK A  1       24.153 -18.199   5.394  0.00  0.00    +0.149 HD
ATOM      4  O   UNK A  1       21.288 -18.249   4.018  0.00  0.00    -0.276 OA
ENDROOT
BRANCH   1   5
ATOM      5  C   UNK A  1       22.561 -16.309   4.730  0.00  0.00    +0.098 C 
BRANCH   5   6
ATOM      6  C   UNK A  1       23.810 -15.757   4.025  0.00  0.00    +0.039 C 
BRANCH   6   7
ATOM      7  C   UNK A  1       24.065 -14.253   4.182  0.00  0.00    +0.161 C 
BRANCH   7   8
ATOM      8  N   UNK A  1       23.520 -13.505   3.009  0.00  0.00    -0.318 NA
ATOM      9  H   UNK A  1       23.046 -12.663   3.354  0.00  0.00    +0.119 HD
ATOM     10  H   UNK A  1       24.313 -13.147   2.472  0.00  0.00    +0.119 HD
ENDBRANCH   7   8
BRANCH   7  11
ATOM     11  C   UNK A  1       25.565 -13.887   4.329  0.00  0.00    +0.322 C 
ATOM     12  O   UNK A  1       26.123 -13.503   5.327  0.00  0.00    -0.249 OA
BRANCH  11  13
ATOM     13  O   UNK A  1       26.197 -14.032   3.127  0.00  0.00    -0.479 OA
ATOM     14  H   UNK A  1       25.550 -14.454   2.518  0.00  0.00    +0.295 HD
ENDBRANCH  11  13
ENDBRANCH   7  11
ENDBRANCH   6   7
ENDBRANCH   5   6
ENDBRANCH   1   5
BRANCH   2  15
ATOM     15  C   UNK A  1       23.242 -20.065   4.850  0.00  0.00    +0.168 C 
BRANCH  15  16
ATOM     16  C   UNK A  1       24.097 -20.678   5.963  0.00  0.00    +0.235 C 
ATOM     17  N   GLY A  2       25.460 -20.549   5.771  0.00  0.00    -0.303 N 
ATOM     18  H   GLY A  2       25.821 -20.252   4.867  0.00  0.00    +0.149 HD
ATOM     19  O   UNK A  1       23.614 -21.243   6.941  0.00  0.00    -0.274 OA
BRANCH  17  20
ATOM     20  CA  GLY A  2       26.402 -20.890   6.833  0.00  0.00    +0.224 C 
BRANCH  20  21
ATOM     21  C   GLY A  2       27.842 -20.689   6.388  0.00  0.00    +0.322 C 
ATOM     22  O   GLY A  2       28.818 -21.014   7.062  0.00  0.00    -0.249 OA
BRANCH  21  23
ATOM     23  OXT GLY A  2       27.966 -20.049   5.200  0.00  0.00    -0.479 OA
ATOM     24  HXT GLY A  2       28.809 -19.558   5.157  0.00  0.00    +0.295 HD
ENDBRANCH  21  23
ENDBRANCH  20  21
ENDBRANCH  17  20
ENDBRANCH  15  16
BRANCH  15  25
ATOM     25  C   UNK A  1       23.688 -20.572   3.470  0.00  0.00    +0.097 C 
BRANCH  25  26
ATOM     26  S   UNK A  1       25.004 -19.556   2.709  0.00  0.00    -0.176 S 
ATOM     27  H   UNK A  1       25.267 -20.384   1.681  0.00  0.00    +0.102 HD
ENDBRANCH  25  26
ENDBRANCH  15  25
ENDBRANCH   2  15
TORSDOF 13
ENDMDL
MODEL 4
REMARK VINA RESULT:      -3.5      3.630      4.678
REMARK  Name = *****
REMARK                            x       y       z     vdW  Elec       q    Type
REMARK                         _______ _______ _______ _____ _____    ______ ____
ROOT
ATOM      1  C   UNK A  1       25.264 -17.686   3.622  0.00  0.00    +0.214 C 
ATOM      2  N   UNK A  1       26.426 -16.965   3.517  0.00  0.00    -0.303 N 
ATOM      3  H   UNK A  1       27.268 -17.405   3.149  0.00  0.00    +0.149 HD
ATOM      4  O   UNK A  1       24.221 -17.183   4.032  0.00  0.00    -0.276 OA
ENDROOT
BRANCH   1   5
ATOM      5  C   UNK A  1       25.370 -19.121   3.129  0.00  0.00    +0.098 C 
BRANCH   5   6
ATOM      6  C   UNK A  1       25.473 -20.173   4.244  0.00  0.00    +0.039 C 
BRANCH   6   7
ATOM      7  C   UNK A  1       24.348 -21.213   4.297  0.00  0.00    +0.161 C 
BRANCH   7   8
ATOM      8  N   UNK A  1       23.890 -21.561   2.917  0.00  0.00    -0.318 NA
ATOM      9  H   UNK A  1       23.100 -22.210   2.993  0.00  0.00    +0.119 HD
ATOM     10  H   UNK A  1       23.486 -20.719   2.502  0.00  0.00    +0.119 HD
ENDBRANCH   7   8
BRANCH   7  11
ATOM     11  C   UNK A  1       23.110 -20.750   5.110  0.00  0.00    +0.322 C 
ATOM     12  O   UNK A  1       23.069 -19.861   5.923  0.00  0.00    -0.249 OA
BRANCH  11  13
ATOM     13  O   UNK A  1       22.033 -21.530   4.797  0.00  0.00    -0.479 OA
ATOM     14  H   UNK A  1       22.055 -22.298   5.410  0.00  0.00    +0.295 HD
ENDBRANCH  11  13
ENDBRANCH   7  11
ENDBRANCH   6   7
ENDBRANCH   5   6
ENDBRANCH   1   5
BRANCH   2  15
ATOM     15  C   UNK A  1       26.495 -15.561   3.932  0.00  0.00    +0.168 C 
BRANCH  15  16
ATOM     16  C   UNK A  1       25.666 -14.735   2.944  0.00  0.00    +0.235 C 
ATOM     17  N   GLY A  2       24.391 -14.433   3.384  0.00  0.00    -0.303 N 
ATOM     18  H   GLY A  2       24.008 -14.906   4.200  0.00  0.00    +0.149 HD
ATOM     19  O   UNK A  1       26.094 -14.375   1.851  0.00  0.00    -0.274 OA
BRANCH  17  20
ATOM     20  CA  GLY A  2       23.552 -13.483   2.658  0.00  0.00    +0.224 C 
BRANCH  20  21
ATOM     21  C   GLY A  2       23.977 -12.048   2.923  0.00  0.00    +0.322 C 
ATOM     22  O   GLY A  2       23.748 -11.449   3.972  0.00  0.00    -0.249 OA
BRANCH  21  23
ATOM     23  OXT GLY A  2       24.574 -11.447   1.865  0.00  0.00    -0.479 OA
ATOM     24  HXT GLY A  2       24.916 -12.111   1.236  0.00  0.00    +0.295 HD
ENDBRANCH  21  23
ENDBRANCH  20  21
ENDBRANCH  17  20
ENDBRANCH  15  16
BRANCH  15  25
ATOM     25  C   UNK A  1       27.939 -15.040   4.010  0.00  0.00    +0.097 C 
BRANCH  25  26
ATOM     26  S   UNK A  1       28.052 -13.251   4.369  0.00  0.00    -0.176 S 
ATOM     27  H   UNK A  1       27.218 -12.842   3.395  0.00  0.00    +0.102 HD
ENDBRANCH  25  26
ENDBRANCH  15  25
ENDBRANCH   2  15
TORSDOF 13
ENDMDL
MODEL 5
REMARK VINA RESULT:      -3.5      2.669      3.205
REMARK  Name = *****
REMARK                            x       y       z     vdW  Elec       q    Type
REMARK                         _______ _______ _______ _____ _____    ______ ____
ROOT
ATOM      1  C   UNK A  1       25.062 -18.450   3.650  0.00  0.00    +0.214 C 
ATOM      2  N   UNK A  1       25.819 -17.311   3.552  0.00  0.00    -0.303 N 
ATOM      3  H   UNK A  1       26.808 -17.333   3.794  0.00  0.00    +0.149 HD
ATOM      4  O   UNK A  1       23.874 -18.470   3.337  0.00  0.00    -0.276 OA
ENDROOT
BRANCH   1   5
ATOM      5  C   UNK A  1       25.832 -19.678   4.109  0.00  0.00    +0.098 C 
BRANCH   5   6
ATOM      6  C   UNK A  1       27.121 -19.369   4.886  0.00  0.00    +0.039 C 
BRANCH   6   7
ATOM      7  C   UNK A  1       27.523 -20.388   5.959  0.00  0.00    +0.161 C 
BRANCH   7   8
ATOM      8  N   UNK A  1       26.493 -20.443   7.041  0.00  0.00    -0.318 NA
ATOM      9  H   UNK A  1       26.968 -20.636   7.929  0.00  0.00    +0.119 HD
ATOM     10  H   UNK A  1       26.114 -19.500   7.158  0.00  0.00    +0.119 HD
ENDBRANCH   7   8
BRANCH   7  11
ATOM     11  C   UNK A  1       28.895 -20.090   6.618  0.00  0.00    +0.322 C 
ATOM     12  O   UNK A  1       29.420 -19.011   6.744  0.00  0.00    -0.249 OA
BRANCH  11  13
ATOM     13  O   UNK A  1       29.475 -21.256   7.029  0.00  0.00    -0.479 OA
ATOM     14  H   UNK A  1       29.697 -21.761   6.216  0.00  0.00    +0.295 HD
ENDBRANCH  11  13
ENDBRANCH   7  11
ENDBRANCH   6   7
ENDBRANCH   5   6
ENDBRANCH   1   5
BRANCH   2  15
ATOM     15  C   UNK A  1       25.237 -16.041   3.107  0.00  0.00    +0.168 C 
BRANCH  15  16
ATOM     16  C   UNK A  1       26.379 -15.039   2.912  0.00  0.00    +0.235 C 
ATOM     17  N   GLY A  2       27.175 -14.858   4.027  0.00  0.00    -0.303 N 
ATOM     18  H   GLY A  2       26.875 -15.217   4.931  0.00  0.00    +0.149 HD
ATOM     19  O   UNK A  1       26.569 -14.442   1.855  0.00  0.00    -0.274 OA
BRANCH  17  20
ATOM     20  CA  GLY A  2       28.421 -14.102   3.944  0.00  0.00    +0.224 C 
BRANCH  20  21
ATOM     21  C   GLY A  2       28.355 -12.823   4.762  0.00  0.00    +0.322 C 
ATOM     22  O   GLY A  2       29.085 -11.852   4.574  0.00  0.00    -0.249 OA
BRANCH  21  23
ATOM     23  OXT GLY A  2       27.460 -12.866   5.778  0.00  0.00    -0.479 OA
ATOM     24  HXT GLY A  2       27.627 -12.150   6.420  0.00  0.00    +0.295 HD
ENDBRANCH  21  23
ENDBRANCH  20  21
ENDBRANCH  17  20
ENDBRANCH  15  16
BRANCH  15  25
ATOM     25  C   UNK A  1       24.189 -15.498   4.090  0.00  0.00    +0.097 C 
BRANCH  25  26
ATOM     26  S   UNK A  1       24.084 -13.672   4.111  0.00  0.00    -0.176 S 
ATOM     27  H   UNK A  1       24.178 -13.525   5.445  0.00  0.00    +0.102 HD
ENDBRANCH  25  26
ENDBRANCH  15  25
ENDBRANCH   2  15
TORSDOF 13
ENDMDL
MODEL 6
REMARK VINA RESULT:      -3.3      2.887      3.691
REMARK  Name = *****
REMARK                            x       y       z     vdW  Elec       q    Type
REMARK                         _______ _______ _______ _____ _____    ______ ____
ROOT
ATOM      1  C   UNK A  1       22.316 -18.499   4.343  0.00  0.00    +0.214 C 
ATOM      2  N   UNK A  1       23.563 -17.931   4.383  0.00  0.00    -0.303 N 
ATOM      3  H   UNK A  1       24.319 -18.393   4.885  0.00  0.00    +0.149 HD
ATOM      4  O   UNK A  1       21.387 -17.987   3.722  0.00  0.00    -0.276 OA
ENDROOT
BRANCH   1   5
ATOM      5  C   UNK A  1       22.210 -19.832   5.070  0.00  0.00    +0.098 C 
BRANCH   5   6
ATOM      6  C   UNK A  1       23.416 -20.171   5.959  0.00  0.00    +0.039 C 
BRANCH   6   7
ATOM      7  C   UNK A  1       24.431 -21.159   5.372  0.00  0.00    +0.161 C 
BRANCH   7   8
ATOM      8  N   UNK A  1       25.431 -21.561   6.408  0.00  0.00    -0.318 NA
ATOM      9  H   UNK A  1       25.365 -20.903   7.192  0.00  0.00    +0.119 HD
ATOM     10  H   UNK A  1       25.128 -22.455   6.802  0.00  0.00    +0.119 HD
ENDBRANCH   7   8
BRANCH   7  11
ATOM     11  C   UNK A  1       25.206 -20.604   4.148  0.00  0.00    +0.322 C 
ATOM     12  O   UNK A  1       24.806 -20.523   3.013  0.00  0.00    -0.249 OA
BRANCH  11  13
ATOM     13  O   UNK A  1       26.463 -20.228   4.528  0.00  0.00    -0.479 OA
ATOM     14  H   UNK A  1       26.480 -19.246   4.510  0.00  0.00    +0.295 HD
ENDBRANCH  11  13
ENDBRANCH   7  11
ENDBRANCH   6   7
ENDBRANCH   5   6
ENDBRANCH   1   5
BRANCH   2  15
ATOM     15  C   UNK A  1       23.844 -16.654   3.719  0.00  0.00    +0.168 C 
BRANCH  15  16
ATOM     16  C   UNK A  1       25.349 -16.582   3.449  0.00  0.00    +0.235 C 
ATOM     17  N   GLY A  2       25.907 -15.335   3.661  0.00  0.00    -0.303 N 
ATOM     18  H   GLY A  2       25.306 -14.522   3.785  0.00  0.00    +0.149 HD
ATOM     19  O   UNK A  1       26.006 -17.548   3.069  0.00  0.00    -0.274 OA
BRANCH  17  20
ATOM     20  CA  GLY A  2       27.355 -15.150   3.651  0.00  0.00    +0.224 C 
BRANCH  20  21
ATOM     21  C   GLY A  2       27.743 -13.756   4.116  0.00  0.00    +0.322 C 
ATOM     22  O   GLY A  2       27.249 -13.199   5.094  0.00  0.00    -0.249 OA
BRANCH  21  23
ATOM     23  OXT GLY A  2       28.641 -13.138   3.311  0.00  0.00    -0.479 OA
ATOM     24  HXT GLY A  2       28.382 -13.221   2.373  0.00  0.00    +0.295 HD
ENDBRANCH  21  23
ENDBRANCH  20  21
ENDBRANCH  17  20
ENDBRANCH  15  16
BRANCH  15  25
ATOM     25  C   UNK A  1       23.372 -15.446   4.543  0.00  0.00    +0.097 C 
BRANCH  25  26
ATOM     26  S   UNK A  1       23.630 -13.843   3.703  0.00  0.00    -0.176 S 
ATOM     27  H   UNK A  1       24.920 -13.688   4.050  0.00  0.00    +0.102 HD
ENDBRANCH  25  26
ENDBRANCH  15  25
ENDBRANCH   2  15
TORSDOF 13
ENDMDL
MODEL 7
REMARK VINA RESULT:      -3.3      2.835      4.352
REMARK  Name = *****
REMARK                            x       y       z     vdW  Elec       q    Type
REMARK                         _______ _______ _______ _____ _____    ______ ____
ROOT
ATOM      1  C   UNK A  1       26.146 -20.357   5.814  0.00  0.00    +0.214 C 
ATOM      2  N   UNK A  1       26.653 -19.575   4.807  0.00  0.00    -0.303 N 
ATOM      3  H   UNK A  1       26.506 -19.839   3.835  0.00  0.00    +0.149 HD
ATOM      4  O   UNK A  1       26.275 -20.056   6.998  0.00  0.00    -0.276 OA
ENDROOT
BRANCH   1   5
ATOM      5  C   UNK A  1       25.367 -21.572   5.334  0.00  0.00    +0.098 C 
BRANCH   5   6
ATOM      6  C   UNK A  1       23.842 -21.381   5.304  0.00  0.00    +0.039 C 
BRANCH   6   7
ATOM      7  C   UNK A  1       23.277 -20.648   4.082  0.00  0.00    +0.161 C 
BRANCH   7   8
ATOM      8  N   UNK A  1       24.232 -20.730   2.934  0.00  0.00    -0.318 NA
ATOM      9  H   UNK A  1       23.979 -20.008   2.251  0.00  0.00    +0.119 HD
ATOM     10  H   UNK A  1       25.153 -20.443   3.275  0.00  0.00    +0.119 HD
ENDBRANCH   7   8
BRANCH   7  11
ATOM     11  C   UNK A  1       22.967 -19.151   4.341  0.00  0.00    +0.322 C 
ATOM     12  O   UNK A  1       22.119 -18.703   5.073  0.00  0.00    -0.249 OA
BRANCH  11  13
ATOM     13  O   UNK A  1       23.790 -18.368   3.581  0.00  0.00    -0.479 OA
ATOM     14  H   UNK A  1       24.692 -18.749   3.662  0.00  0.00    +0.295 HD
ENDBRANCH  11  13
ENDBRANCH   7  11
ENDBRANCH   6   7
ENDBRANCH   5   6
ENDBRANCH   1   5
BRANCH   2  15
ATOM     15  C   UNK A  1       27.415 -18.356   5.095  0.00  0.00    +0.168 C 
BRANCH  15  16
ATOM     16  C   UNK A  1       27.059 -17.313   4.032  0.00  0.00    +0.235 C 
ATOM     17  N   GLY A  2       27.593 -16.060   4.262  0.00  0.00    -0.303 N 
ATOM     18  H   GLY A  2       28.006 -15.840   5.166  0.00  0.00    +0.149 HD
ATOM     19  O   UNK A  1       26.353 -17.566   3.059  0.00  0.00    -0.274 OA
BRANCH  17  20
ATOM     20  CA  GLY A  2       27.524 -15.016   3.243  0.00  0.00    +0.224 C 
BRANCH  20  21
ATOM     21  C   GLY A  2       27.787 -13.640   3.834  0.00  0.00    +0.322 C 
ATOM     22  O   GLY A  2       27.025 -13.075   4.616  0.00  0.00    -0.249 OA
BRANCH  21  23
ATOM     23  OXT GLY A  2       28.912 -13.047   3.366  0.00  0.00    -0.479 OA
ATOM     24  HXT GLY A  2       29.138 -12.262   3.900  0.00  0.00    +0.295 HD
ENDBRANCH  21  23
ENDBRANCH  20  21
ENDBRANCH  17  20
ENDBRANCH  15  16
BRANCH  15  25
ATOM     25  C   UNK A  1       28.930 -18.606   5.137  0.00  0.00    +0.097 C 
BRANCH  25  26
ATOM     26  S   UNK A  1       29.475 -19.551   6.605  0.00  0.00    -0.176 S 
ATOM     27  H   UNK A  1       30.546 -18.789   6.894  0.00  0.00    +0.102 HD
ENDBRANCH  25  26
ENDBRANCH  15  25
ENDBRANCH   2  15
TORSDOF 13
ENDMDL
MODEL 8
REMARK VINA RESULT:      -3.1      2.783      4.828
REMARK  Name = *****
REMARK                            x       y       z     vdW  Elec       q    Type
REMARK                         _______ _______ _______ _____ _____    ______ ____
ROOT
ATOM      1  C   UNK A  1       26.248 -15.984   3.270  0.00  0.00    +0.214 C 
ATOM      2  N   UNK A  1       25.142 -15.641   4.005  0.00  0.00    -0.303 N 
ATOM      3  H   UNK A  1       24.725 -16.316   4.643  0.00  0.00    +0.149 HD
ATOM      4  O   UNK A  1       26.798 -15.188   2.513  0.00  0.00    -0.276 OA
ENDROOT
BRANCH   1   5
ATOM      5  C   UNK A  1       26.760 -17.394   3.527  0.00  0.00    +0.098 C 
BRANCH   5   6
ATOM      6  C   UNK A  1       25.711 -18.499   3.329  0.00  0.00    +0.039 C 
BRANCH   6   7
ATOM      7  C   UNK A  1       25.582 -19.519   4.466  0.00  0.00    +0.161 C 
BRANCH   7   8
ATOM      8  N   UNK A  1       26.918 -20.096   4.806  0.00  0.00    -0.318 NA
ATOM      9  H   UNK A  1       27.380 -19.470   5.474  0.00  0.00    +0.119 HD
ATOM     10  H   UNK A  1       26.760 -20.957   5.334  0.00  0.00    +0.119 HD
ENDBRANCH   7   8
BRANCH   7  11
ATOM     11  C   UNK A  1       24.621 -20.693   4.144  0.00  0.00    +0.322 C 
ATOM     12  O   UNK A  1       24.214 -21.019   3.056  0.00  0.00    -0.249 OA
BRANCH  11  13
ATOM     13  O   UNK A  1       24.253 -21.321   5.300  0.00  0.00    -0.479 OA
ATOM     14  H   UNK A  1       24.387 -20.672   6.027  0.00  0.00    +0.295 HD
ENDBRANCH  11  13
ENDBRANCH   7  11
ENDBRANCH   6   7
ENDBRANCH   5   6
ENDBRANCH   1   5
BRANCH   2  15
ATOM     15  C   UNK A  1       24.530 -14.314   3.892  0.00  0.00    +0.168 C 
BRANCH  15  16
ATOM     16  C   UNK A  1       25.365 -13.335   4.724  0.00  0.00    +0.235 C 
ATOM     17  N   GLY A  2       26.617 -13.806   5.070  0.00  0.00    -0.303 N 
ATOM     18  H   GLY A  2       26.845 -14.791   4.941  0.00  0.00    +0.149 HD
ATOM     19  O   UNK A  1       24.955 -12.228   5.060  0.00  0.00    -0.274 OA
BRANCH  17  20
ATOM     20  CA  GLY A  2       27.609 -12.923   5.677  0.00  0.00    +0.224 C 
BRANCH  20  21
ATOM     21  C   GLY A  2       28.668 -12.498   4.672  0.00  0.00    +0.322 C 
ATOM     22  O   GLY A  2       28.879 -13.084   3.612  0.00  0.00    -0.249 OA
BRANCH  21  23
ATOM     23  OXT GLY A  2       29.420 -11.447   5.079  0.00  0.00    -0.479 OA
ATOM     24  HXT GLY A  2       30.118 -11.737   5.696  0.00  0.00    +0.295 HD
ENDBRANCH  21  23
ENDBRANCH  20  21
ENDBRANCH  17  20
ENDBRANCH  15  16
BRANCH  15  25
ATOM     25  C   UNK A  1       23.060 -14.303   4.340  0.00  0.00    +0.097 C 
BRANCH  25  26
ATOM     26  S   UNK A  1       22.422 -15.956   4.789  0.00  0.00    -0.176 S 
ATOM     27  H   UNK A  1       21.470 -15.532   5.641  0.00  0.00    +0.102 HD
ENDBRANCH  25  26
ENDBRANCH  15  25
ENDBRANCH   2  15
TORSDOF 13
ENDMDL
MODEL 9
REMARK VINA RESULT:      -2.9      3.223      4.772
REMARK  Name = *****
REMARK                            x       y       z     vdW  Elec       q    Type
REMARK                         _______ _______ _______ _____ _____    ______ ____
ROOT
ATOM      1  C   UNK A  1       25.989 -16.323   3.568  0.00  0.00    +0.214 C 
ATOM      2  N   UNK A  1       27.224 -15.735   3.667  0.00  0.00    -0.303 N 
ATOM      3  H   UNK A  1       28.057 -16.251   3.390  0.00  0.00    +0.149 HD
ATOM      4  O   UNK A  1       24.957 -15.724   3.862  0.00  0.00    -0.276 OA
ENDROOT
BRANCH   1   5
ATOM      5  C   UNK A  1       26.010 -17.737   3.006  0.00  0.00    +0.098 C 
BRANCH   5   6
ATOM      6  C   UNK A  1       24.910 -18.659   3.556  0.00  0.00    +0.039 C 
BRANCH   6   7
ATOM      7  C   UNK A  1       25.328 -20.102   3.859  0.00  0.00    +0.161 C 
BRANCH   7   8
ATOM      8  N   UNK A  1       24.138 -21.006   3.847  0.00  0.00    -0.318 NA
ATOM      9  H   UNK A  1       24.268 -21.721   4.570  0.00  0.00    +0.119 HD
ATOM     10  H   UNK A  1       23.333 -20.464   4.170  0.00  0.00    +0.119 HD
ENDBRANCH   7   8
BRANCH   7  11
ATOM     11  C   UNK A  1       26.043 -20.269   5.225  0.00  0.00    +0.322 C 
ATOM     12  O   UNK A  1       25.532 -20.548   6.282  0.00  0.00    -0.249 OA
BRANCH  11  13
ATOM     13  O   UNK A  1       27.379 -20.022   5.083  0.00  0.00    -0.479 OA
ATOM     14  H   UNK A  1       27.489 -19.046   5.119  0.00  0.00    +0.295 HD
ENDBRANCH  11  13
ENDBRANCH   7  11
ENDBRANCH   6   7
ENDBRANCH   5   6
ENDBRANCH   1   5
BRANCH   2  15
ATOM     15  C   UNK A  1       27.382 -14.368   4.172  0.00  0.00    +0.168 C 
BRANCH  15  16
ATOM     16  C   UNK A  1       26.269 -13.508   3.567  0.00  0.00    +0.235 C 
ATOM     17  N   GLY A  2       25.338 -13.054   4.482  0.00  0.00    -0.303 N 
ATOM     18  H   GLY A  2       25.315 -13.445   5.422  0.00  0.00    +0.149 HD
ATOM     19  O   UNK A  1       26.204 -13.248   2.368  0.00  0.00    -0.274 OA
BRANCH  17  20
ATOM     20  CA  GLY A  2       24.340 -12.057   4.105  0.00  0.00    +0.224 C 
BRANCH  20  21
ATOM     21  C   GLY A  2       23.809 -12.300   2.702  0.00  0.00    +0.322 C 
ATOM     22  O   GLY A  2       23.815 -11.452   1.812  0.00  0.00    -0.249 OA
BRANCH  21  23
ATOM     23  OXT GLY A  2       23.255 -13.524   2.528  0.00  0.00    -0.479 OA
ATOM     24  HXT GLY A  2       22.300 -13.505   2.729  0.00  0.00    +0.295 HD
ENDBRANCH  21  23
ENDBRANCH  20  21
ENDBRANCH  17  20
ENDBRANCH  15  16
BRANCH  15  25
ATOM     25  C   UNK A  1       28.766 -13.781   3.856  0.00  0.00    +0.097 C 
BRANCH  25  26
ATOM     26  S   UNK A  1       28.997 -12.078   4.481  0.00  0.00    -0.176 S 
ATOM     27  H   UNK A  1       29.506 -11.562   3.347  0.00  0.00    +0.102 HD
ENDBRANCH  25  26
ENDBRANCH  15  25
ENDBRANCH   2  15
TORSDOF 13
ENDMDL
