MODEL 1
REMARK VINA RESULT:      -4.7      0.000      0.000
REMARK  Name = *****
REMARK                            x       y       z     vdW  Elec       q    Type
REMARK                         _______ _______ _______ _____ _____    ______ ____
ROOT
ATOM      1  CA  SER A  1       32.113 -17.439   9.669  0.00  0.00    +0.186 C 
ENDROOT
BRANCH   1   2
ATOM      2  N   SER A  1       32.364 -16.139   8.990  0.00  0.00    -0.317 NA
ATOM      3  H1  SER A  1       32.287 -16.298   7.978  0.00  0.00    +0.119 HD
ATOM      4  H2  SER A  1       31.573 -15.519   9.188  0.00  0.00    +0.119 HD
ENDBRANCH   1   2
BRANCH   1   5
ATOM      5  C   SER A  1       30.942 -17.330  10.646  0.00  0.00    +0.324 C 
ATOM      6  O   SER A  1       30.321 -16.298  10.851  0.00  0.00    -0.249 OA
BRANCH   5   7
ATOM      7  OXT SER A  1       30.638 -18.492  11.267  0.00  0.00    -0.479 OA
ATOM      8  HXT SER A  1       31.408 -19.030  11.538  0.00  0.00    +0.295 HD
ENDBRANCH   5   7
ENDBRANCH   1   5
BRANCH   1   9
ATOM      9  CB  SER A  1       31.784 -18.514   8.630  0.00  0.00    +0.185 C 
BRANCH   9  10
ATOM     10  OG  SER A  1       32.092 -19.806   9.149  0.00  0.00    -0.393 OA
ATOM     11  H   SER A  1       31.385 -20.396   8.814  0.00  0.00    +0.209 HD
ENDBRANCH   9  10
ENDBRANCH   1   9
TORSDOF 5
ENDMDL
MODEL 2
REMARK VINA RESULT:      -4.7      3.406      4.462
REMARK  Name = *****
REMARK                            x       y       z     vdW  Elec       q    Type
REMARK                         _______ _______ _______ _____ _____    ______ ____
ROOT
ATOM      1  CA  SER A  1       30.262 -20.805   8.477  0.00  0.00    +0.186 C 
ENDROOT
BRANCH   1   2
ATOM      2  N   SER A  1       29.727 -21.309   7.183  0.00  0.00    -0.317 NA
ATOM      3  H1  SER A  1       28.733 -21.055   7.139  0.00  0.00    +0.119 HD
ATOM      4  H2  SER A  1       30.142 -20.753   6.430  0.00  0.00    +0.119 HD
ENDBRANCH   1   2
BRANCH   1   5
ATOM      5  C   SER A  1       31.051 -21.894   9.204  0.00  0.00    +0.324 C 
ATOM      6  O   SER A  1       30.774 -22.304  10.321  0.00  0.00    -0.249 OA
BRANCH   5   7
ATOM      7  OXT SER A  1       32.093 -22.381   8.492  0.00  0.00    -0.479 OA
ATOM      8  HXT SER A  1       32.543 -23.151   8.892  0.00  0.00    +0.295 HD
ENDBRANCH   5   7
ENDBRANCH   1   5
BRANCH   1   9
ATOM      9  CB  SER A  1       31.190 -19.613   8.228  0.00  0.00    +0.185 C 
BRANCH   9  10
ATOM     10  OG  SER A  1       32.159 -19.521   9.270  0.00  0.00    -0.393 OA
ATOM     11  H   SER A  1       31.720 -19.024   9.991  0.00  0.00    +0.209 HD
ENDBRANCH   9  10
ENDBRANCH   1   9
TORSDOF 5
ENDMDL
MODEL 3
REMARK VINA RESULT:      -4.6      2.092      2.575
REMARK  Name = *****
REMARK                            x       y       z     vdW  Elec       q    Type
REMARK                         _______ _______ _______ _____ _____    ______ ____
ROOT
ATOM      1  CA  SER A  1       31.535 -18.910   7.962  0.00  0.00    +0.186 C 
ENDROOT
BRANCH   1   2
ATOM      2  N   SER A  1       30.416 -18.339   7.163  0.00  0.00    -0.317 NA
ATOM      3  H1  SER A  1       30.170 -19.025   6.439  0.00  0.00    +0.119 HD
ATOM      4  H2  SER A  1       29.581 -18.318   7.755  0.00  0.00    +0.119 HD
ENDBRANCH   1   2
BRANCH   1   5
ATOM      5  C   SER A  1       32.002 -17.923   9.031  0.00  0.00    +0.324 C 
ATOM      6  O   SER A  1       32.019 -18.172  10.227  0.00  0.00    -0.249 OA
BRANCH   5   7
ATOM      7  OXT SER A  1       32.413 -16.733   8.535  0.00  0.00    -0.479 OA
ATOM      8  HXT SER A  1       33.280 -16.750   8.084  0.00  0.00    +0.295 HD
ENDBRANCH   5   7
ENDBRANCH   1   5
BRANCH   1   9
ATOM      9  CB  SER A  1       31.078 -20.198   8.650  0.00  0.00    +0.185 C 
BRANCH   9  10
ATOM     10  OG  SER A  1       32.189 -20.840   9.273  0.00  0.00    -0.393 OA
ATOM     11  H   SER A  1       32.351 -21.650   8.746  0.00  0.00    +0.209 HD
ENDBRANCH   9  10
ENDBRANCH   1   9
TORSDOF 5
ENDMDL
MODEL 4
REMARK VINA RESULT:      -4.6      3.686      4.198
REMARK  Name = *****
REMARK                            x       y       z     vdW  Elec       q    Type
REMARK                         _______ _______ _______ _____ _____    ______ ____
ROOT
ATOM      1  CA  SER A  1       31.172 -20.272   8.719  0.00  0.00    +0.186 C 
ENDROOT
BRANCH   1   2
ATOM      2  N   SER A  1       31.007 -19.313   9.846  0.00  0.00    -0.317 NA
ATOM      3  H1  SER A  1       30.352 -19.733  10.516  0.00  0.00    +0.119 HD
ATOM      4  H2  SER A  1       31.887 -19.282  10.368  0.00  0.00    +0.119 HD
ENDBRANCH   1   2
BRANCH   1   5
ATOM      5  C   SER A  1       31.309 -21.704   9.235  0.00  0.00    +0.324 C 
ATOM      6  O   SER A  1       30.685 -22.147  10.187  0.00  0.00    -0.249 OA
BRANCH   5   7
ATOM      7  OXT SER A  1       32.186 -22.456   8.532  0.00  0.00    -0.479 OA
ATOM      8  HXT SER A  1       31.792 -22.984   7.809  0.00  0.00    +0.295 HD
ENDBRANCH   5   7
ENDBRANCH   1   5
BRANCH   1   9
ATOM      9  CB  SER A  1       29.955 -20.200   7.793  0.00  0.00    +0.185 C 
BRANCH   9  10
ATOM     10  OG  SER A  1       29.583 -21.511   7.373  0.00  0.00    -0.393 OA
ATOM     11  H   SER A  1       29.775 -21.541   6.413  0.00  0.00    +0.209 HD
ENDBRANCH   9  10
ENDBRANCH   1   9
TORSDOF 5
ENDMDL
MODEL 5
REMARK VINA RESULT:      -4.5      2.114      2.380
REMARK  Name = *****
REMARK                            x       y       z     vdW  Elec       q    Type
REMARK                         _______ _______ _______ _____ _____    ______ ____
ROOT
ATOM      1  CA  SER A  1       30.771 -17.591   9.675  0.00  0.00    +0.186 C 
ENDROOT
BRANCH   1   2
ATOM      2  N   SER A  1       30.129 -17.623  11.018  0.00  0.00    -0.317 NA
ATOM      3  H1  SER A  1       30.744 -17.119  11.668  0.00  0.00    +0.119 HD
ATOM      4  H2  SER A  1       29.293 -17.033  10.985  0.00  0.00    +0.119 HD
ENDBRANCH   1   2
BRANCH   1   5
ATOM      5  C   SER A  1       32.198 -17.051   9.764  0.00  0.00    +0.324 C 
ATOM      6  O   SER A  1       32.916 -17.182  10.744  0.00  0.00    -0.249 OA
BRANCH   5   7
ATOM      7  OXT SER A  1       32.612 -16.413   8.646  0.00  0.00    -0.479 OA
ATOM      8  HXT SER A  1       33.581 -16.388   8.518  0.00  0.00    +0.295 HD
ENDBRANCH   5   7
ENDBRANCH   1   5
BRANCH   1   9
ATOM      9  CB  SER A  1       30.818 -19.003   9.088  0.00  0.00    +0.185 C 
BRANCH   9  10
ATOM     10  OG  SER A  1       32.141 -19.527   9.181  0.00  0.00    -0.393 OA
ATOM     11  H   SER A  1       32.732 -18.791   8.918  0.00  0.00    +0.209 HD
ENDBRANCH   9  10
ENDBRANCH   1   9
TORSDOF 5
ENDMDL
MODEL 6
REMARK VINA RESULT:      -4.5      2.003      2.572
REMARK  Name = *****
REMARK                            x       y       z     vdW  Elec       q    Type
REMARK                         _______ _______ _______ _____ _____    ______ ____
ROOT
ATOM      1  CA  SER A  1       31.552 -17.345  10.578  0.00  0.00    +0.186 C 
ENDROOT
BRANCH   1   2
ATOM      2  N   SER A  1       30.350 -16.588  11.024  0.00  0.00    -0.317 NA
ATOM      3  H1  SER A  1       30.658 -15.644  11.284  0.00  0.00    +0.119 HD
ATOM      4  H2  SER A  1       29.758 -16.422  10.206  0.00  0.00    +0.119 HD
ENDBRANCH   1   2
BRANCH   1   5
ATOM      5  C   SER A  1       31.196 -18.329   9.464  0.00  0.00    +0.324 C 
ATOM      6  O   SER A  1       30.198 -18.235   8.766  0.00  0.00    -0.249 OA
BRANCH   5   7
ATOM      7  OXT SER A  1       32.098 -19.325   9.306  0.00  0.00    -0.479 OA
ATOM      8  HXT SER A  1       32.423 -19.448   8.392  0.00  0.00    +0.295 HD
ENDBRANCH   5   7
ENDBRANCH   1   5
BRANCH   1   9
ATOM      9  CB  SER A  1       32.613 -16.374  10.054  0.00  0.00    +0.185 C 
BRANCH   9  10
ATOM     10  OG  SER A  1       32.625 -16.388   8.628  0.00  0.00    -0.393 OA
ATOM     11  H   SER A  1       33.548 -16.178   8.374  0.00  0.00    +0.209 HD
ENDBRANCH   9  10
ENDBRANCH   1   9
TORSDOF 5
ENDMDL
MODEL 7
REMARK VINA RESULT:      -4.5      1.107      2.710
REMARK  Name = *****
REMARK                            x       y       z     vdW  Elec       q    Type
REMARK                         _______ _______ _______ _____ _____    ______ ____
ROOT
ATOM      1  CA  SER A  1       30.969 -17.661   8.981  0.00  0.00    +0.186 C 
ENDROOT
BRANCH   1   2
ATOM      2  N   SER A  1       32.270 -17.012   8.660  0.00  0.00    -0.317 NA
ATOM      3  H1  SER A  1       32.066 -16.075   8.291  0.00  0.00    +0.119 HD
ATOM      4  H2  SER A  1       32.752 -16.815   9.541  0.00  0.00    +0.119 HD
ENDBRANCH   1   2
BRANCH   1   5
ATOM      5  C   SER A  1       31.101 -19.183   8.976  0.00  0.00    +0.324 C 
ATOM      6  O   SER A  1       32.145 -19.777   9.199  0.00  0.00    -0.249 OA
BRANCH   5   7
ATOM      7  OXT SER A  1       29.944 -19.831   8.710  0.00  0.00    -0.479 OA
ATOM      8  HXT SER A  1       29.228 -19.270   8.353  0.00  0.00    +0.295 HD
ENDBRANCH   5   7
ENDBRANCH   1   5
BRANCH   1   9
ATOM      9  CB  SER A  1       30.494 -17.215  10.366  0.00  0.00    +0.185 C 
BRANCH   9  10
ATOM     10  OG  SER A  1       30.591 -18.299  11.288  0.00  0.00    -0.393 OA
ATOM     11  H   SER A  1       31.543 -18.369  11.507  0.00  0.00    +0.209 HD
ENDBRANCH   9  10
ENDBRANCH   1   9
TORSDOF 5
ENDMDL
MODEL 8
REMARK VINA RESULT:      -4.5      2.407      2.780
REMARK  Name = *****
REMARK                            x       y       z     vdW  Elec       q    Type
REMARK                         _______ _______ _______ _____ _____    ______ ____
ROOT
ATOM      1  CA  SER A  1       31.209 -19.270   9.096  0.00  0.00    +0.186 C 
ENDROOT
BRANCH   1   2
ATOM      2  N   SER A  1       32.059 -20.480   9.269  0.00  0.00    -0.317 NA
ATOM      3  H1  SER A  1       33.029 -20.209   9.069  0.00  0.00    +0.119 HD
ATOM      4  H2  SER A  1       32.083 -20.711  10.266  0.00  0.00    +0.119 HD
ENDBRANCH   1   2
BRANCH   1   5
ATOM      5  C   SER A  1       31.995 -18.000   9.417  0.00  0.00    +0.324 C 
ATOM      6  O   SER A  1       32.390 -17.708  10.536  0.00  0.00    -0.249 OA
BRANCH   5   7
ATOM      7  OXT SER A  1       32.229 -17.215   8.340  0.00  0.00    -0.479 OA
ATOM      8  HXT SER A  1       31.982 -17.608   7.480  0.00  0.00    +0.295 HD
ENDBRANCH   5   7
ENDBRANCH   1   5
BRANCH   1   9
ATOM      9  CB  SER A  1       30.712 -19.187   7.650  0.00  0.00    +0.185 C 
BRANCH   9  10
ATOM     10  OG  SER A  1       31.686 -19.738   6.767  0.00  0.00    -0.393 OA
ATOM     11  H   SER A  1       31.283 -19.695   5.875  0.00  0.00    +0.209 HD
ENDBRANCH   9  10
ENDBRANCH   1   9
TORSDOF 5
ENDMDL
MODEL 9
REMARK VINA RESULT:      -4.4      2.358      3.693
REMARK  Name = *****
REMARK                            x       y       z     vdW  Elec       q    Type
REMARK                         _______ _______ _______ _____ _____    ______ ____
ROOT
ATOM      1  CA  SER A  1       30.928 -19.745   8.297  0.00  0.00    +0.186 C 
ENDROOT
BRANCH   1   2
ATOM      2  N   SER A  1       31.671 -19.694   7.007  0.00  0.00    -0.317 NA
ATOM      3  H1  SER A  1       31.524 -18.761   6.602  0.00  0.00    +0.119 HD
ATOM      4  H2  SER A  1       32.673 -19.700   7.218  0.00  0.00    +0.119 HD
ENDBRANCH   1   2
BRANCH   1   5
ATOM      5  C   SER A  1       31.153 -21.081   9.004  0.00  0.00    +0.324 C 
ATOM      6  O   SER A  1       32.227 -21.434   9.466  0.00  0.00    -0.249 OA
BRANCH   5   7
ATOM      7  OXT SER A  1       30.043 -21.850   9.086  0.00  0.00    -0.479 OA
ATOM      8  HXT SER A  1       29.497 -21.877   8.276  0.00  0.00    +0.295 HD
ENDBRANCH   5   7
ENDBRANCH   1   5
BRANCH   1   9
ATOM      9  CB  SER A  1       31.403 -18.618   9.216  0.00  0.00    +0.185 C 
BRANCH   9  10
ATOM     10  OG  SER A  1       30.942 -18.845  10.546  0.00  0.00    -0.393 OA
ATOM     11  H   SER A  1       31.175 -18.034  11.044  0.00  0.00    +0.209 HD
ENDBRANCH   9  10
ENDBRANCH   1   9
TORSDOF 5
ENDMDL
