MODEL 1
REMARK VINA RESULT:      -4.4      0.000      0.000
REMARK  Name = *****
REMARK                            x       y       z     vdW  Elec       q    Type
REMARK                         _______ _______ _______ _____ _____    ______ ____
ROOT
ATOM      1  C   LIG    1       25.268 -32.613   7.926  0.00  0.00    +0.230 C 
ATOM      2  C   LIG    1       24.007 -32.760   8.900  0.00  0.00    +0.014 C 
ATOM      3  C   LIG    1       22.741 -33.109   8.067  0.00  0.00    +0.015 C 
ATOM      4  C   LIG    1       23.984 -31.388   9.607  0.00  0.00    +0.007 C 
ATOM      5  C   LIG    1       23.620 -31.248  11.091  0.00  0.00    -0.003 C 
ATOM      6  C   LIG    1       22.552 -32.244  11.577  0.00  0.00    -0.001 C 
ATOM      7  C   LIG    1       22.923 -33.685  11.075  0.00  0.00    +0.005 C 
ATOM      8  C   LIG    1       20.986 -31.777  11.528  0.00  0.00    -0.025 C 
ATOM      9  C   LIG    1       20.289 -32.295  10.255  0.00  0.00    +0.012 C 
ATOM     10  C   LIG    1       20.793 -30.219  11.533  0.00  0.00    -0.001 C 
ATOM     11  C   LIG    1       20.583 -29.662  12.942  0.00  0.00    +0.050 C 
ATOM     12  C   LIG    1       19.231 -30.128  13.465  0.00  0.00    +0.194 C 
ATOM     13  C   LIG    1       19.022 -31.678  13.445  0.00  0.00    +0.098 C 
ATOM     14  C   LIG    1       21.888 -29.436  10.825  0.00  0.00    +0.004 C 
ATOM     15  C   LIG    1       20.247 -32.402  12.774  0.00  0.00    +0.029 C 
ATOM     16  C   LIG    1       23.252 -29.787  11.389  0.00  0.00    +0.004 C 
ATOM     17  C   LIG    1       25.383 -30.768   9.358  0.00  0.00    +0.062 C 
ATOM     18  C   LIG    1       24.105 -33.797  10.043  0.00  0.00    +0.011 C 
ATOM     19  C   LIG    1       25.730 -31.094   7.911  0.00  0.00    +0.108 C 
ENDROOT
BRANCH  19  20
ATOM     20  N   LIG    1       25.091 -30.008   6.876  0.00  0.00    +0.246 N 
ATOM     21  C   LIG    1       26.004 -29.895   5.611  0.00  0.00    +0.133 C 
ATOM     22  C   LIG    1       25.569 -28.768   4.659  0.00  0.00    +0.051 C 
ATOM     23  C   LIG    1       25.399 -27.425   5.357  0.00  0.00    +0.010 C 
ATOM     24  C   LIG    1       24.456 -27.550   6.538  0.00  0.00    +0.051 C 
ATOM     25  C   LIG    1       24.943 -28.631   7.475  0.00  0.00    +0.133 C 
ATOM     26  C   LIG    1       23.730 -30.525   6.415  0.00  0.00    +0.193 C 
ENDBRANCH  19  20
BRANCH  13  27
ATOM     27  N   LIG    1       17.632 -32.001  12.991  0.00  0.00    -0.296 NA
ATOM     28  C   LIG    1       17.242 -33.406  13.180  0.00  0.00    +0.085 C 
ATOM     29  C   LIG    1       17.144 -33.825  14.649  0.00  0.00    +0.015 C 
ATOM     30  C   LIG    1       16.122 -32.977  15.398  0.00  0.00    +0.002 C 
ATOM     31  C   LIG    1       16.331 -31.486  15.149  0.00  0.00    +0.015 C 
ATOM     32  C   LIG    1       16.603 -31.157  13.670  0.00  0.00    +0.085 C 
ENDBRANCH  13  27
BRANCH   1  33
ATOM     33  O   LIG    1       25.085 -33.270   6.670  0.00  0.00    -0.455 OA
BRANCH  33  35
ATOM     34  C   LIG    1       25.975 -33.387   4.495  0.00  0.00    +0.136 C 
ATOM     35  C   LIG    1       26.227 -33.526   5.967  0.00  0.00    +0.304 C 
ATOM     36  O   LIG    1       27.289 -33.784   6.478  0.00  0.00    -0.251 OA
ENDBRANCH  33  35
ENDBRANCH   1  33
BRANCH  12  37
ATOM     37  O   LIG    1       18.950 -29.527  14.753  0.00  0.00    -0.460 OA
BRANCH  37  38
ATOM     38  C   LIG    1       18.383 -28.298  14.801  0.00  0.00    +0.304 C 
ATOM     39  O   LIG    1       17.191 -28.058  15.043  0.00  0.00    -0.251 OA
ATOM     40  C   LIG    1       19.395 -27.267  14.470  0.00  0.00    +0.136 C 
ENDBRANCH  37  38
ENDBRANCH  12  37
TORSDOF 6
ENDMDL
MODEL 2
REMARK VINA RESULT:      -4.1      0.921      1.211
REMARK  Name = *****
REMARK                            x       y       z     vdW  Elec       q    Type
REMARK                         _______ _______ _______ _____ _____    ______ ____
ROOT
ATOM      1  C   LIG    1       25.635 -32.221   7.670  0.00  0.00    +0.230 C 
ATOM      2  C   LIG    1       24.392 -32.610   8.599  0.00  0.00    +0.014 C 
ATOM      3  C   LIG    1       23.203 -33.078   7.714  0.00  0.00    +0.015 C 
ATOM      4  C   LIG    1       24.163 -31.307   9.393  0.00  0.00    +0.007 C 
ATOM      5  C   LIG    1       23.758 -31.321  10.873  0.00  0.00    -0.003 C 
ATOM      6  C   LIG    1       22.836 -32.488  11.266  0.00  0.00    -0.001 C 
ATOM      7  C   LIG    1       23.416 -33.825  10.682  0.00  0.00    +0.005 C 
ATOM      8  C   LIG    1       21.220 -32.245  11.208  0.00  0.00    -0.025 C 
ATOM      9  C   LIG    1       20.625 -32.769   9.886  0.00  0.00    +0.012 C 
ATOM     10  C   LIG    1       20.806 -30.734  11.309  0.00  0.00    -0.001 C 
ATOM     11  C   LIG    1       20.496 -30.309  12.745  0.00  0.00    +0.050 C 
ATOM     12  C   LIG    1       19.216 -30.996  13.202  0.00  0.00    +0.194 C 
ATOM     13  C   LIG    1       19.231 -32.555  13.075  0.00  0.00    +0.098 C 
ATOM     14  C   LIG    1       21.790 -29.758  10.681  0.00  0.00    +0.004 C 
ATOM     15  C   LIG    1       20.558 -33.051  12.391  0.00  0.00    +0.029 C 
ATOM     16  C   LIG    1       23.181 -29.950  11.256  0.00  0.00    +0.004 C 
ATOM     17  C   LIG    1       25.462 -30.480   9.222  0.00  0.00    +0.062 C 
ATOM     18  C   LIG    1       24.619 -33.698   9.675  0.00  0.00    +0.011 C 
ATOM     19  C   LIG    1       25.876 -30.655   7.765  0.00  0.00    +0.108 C 
ENDROOT
BRANCH  19  20
ATOM     20  N   LIG    1       25.106 -29.602   6.788  0.00  0.00    +0.246 N 
ATOM     21  C   LIG    1       25.863 -29.511   5.421  0.00  0.00    +0.133 C 
ATOM     22  C   LIG    1       25.304 -28.413   4.501  0.00  0.00    +0.051 C 
ATOM     23  C   LIG    1       25.198 -27.055   5.182  0.00  0.00    +0.010 C 
ATOM     24  C   LIG    1       24.401 -27.161   6.468  0.00  0.00    +0.051 C 
ATOM     25  C   LIG    1       25.009 -28.212   7.367  0.00  0.00    +0.133 C 
ATOM     26  C   LIG    1       23.708 -30.146   6.501  0.00  0.00    +0.193 C 
ENDBRANCH  19  20
BRANCH  13  27
ATOM     27  N   LIG    1       17.909 -33.040  12.566  0.00  0.00    -0.296 NA
ATOM     28  C   LIG    1       16.997 -33.527  13.611  0.00  0.00    +0.085 C 
ATOM     29  C   LIG    1       16.524 -32.434  14.572  0.00  0.00    +0.015 C 
ATOM     30  C   LIG    1       15.792 -31.323  13.828  0.00  0.00    +0.002 C 
ATOM     31  C   LIG    1       16.581 -30.838  12.616  0.00  0.00    +0.015 C 
ATOM     32  C   LIG    1       17.180 -31.991  11.790  0.00  0.00    +0.085 C 
ENDBRANCH  13  27
BRANCH   1  33
ATOM     33  O   LIG    1       25.568 -32.810   6.370  0.00  0.00    -0.455 OA
BRANCH  33  35
ATOM     34  C   LIG    1       27.782 -33.460   6.833  0.00  0.00    +0.136 C 
ATOM     35  C   LIG    1       26.771 -33.093   5.788  0.00  0.00    +0.304 C 
ATOM     36  O   LIG    1       26.961 -33.085   4.596  0.00  0.00    -0.251 OA
ENDBRANCH  33  35
ENDBRANCH   1  33
BRANCH  12  37
ATOM     37  O   LIG    1       18.832 -30.529  14.519  0.00  0.00    -0.460 OA
BRANCH  37  38
ATOM     38  C   LIG    1       19.201 -29.288  14.915  0.00  0.00    +0.304 C 
ATOM     39  O   LIG    1       20.254 -28.997  15.500  0.00  0.00    -0.251 OA
ATOM     40  C   LIG    1       18.127 -28.319  14.589  0.00  0.00    +0.136 C 
ENDBRANCH  37  38
ENDBRANCH  12  37
TORSDOF 6
ENDMDL
MODEL 3
REMARK VINA RESULT:      -3.9      1.644      9.570
REMARK  Name = *****
REMARK                            x       y       z     vdW  Elec       q    Type
REMARK                         _______ _______ _______ _____ _____    ______ ____
ROOT
ATOM      1  C   LIG    1       20.924 -29.501  14.685  0.00  0.00    +0.230 C 
ATOM      2  C   LIG    1       21.665 -29.563  13.268  0.00  0.00    +0.014 C 
ATOM      3  C   LIG    1       20.655 -29.226  12.134  0.00  0.00    +0.015 C 
ATOM      4  C   LIG    1       22.223 -31.002  13.259  0.00  0.00    +0.007 C 
ATOM      5  C   LIG    1       23.598 -31.333  12.662  0.00  0.00    -0.003 C 
ATOM      6  C   LIG    1       23.976 -30.484  11.436  0.00  0.00    -0.001 C 
ATOM      7  C   LIG    1       23.687 -28.972  11.744  0.00  0.00    +0.005 C 
ATOM      8  C   LIG    1       23.603 -31.066   9.954  0.00  0.00    -0.025 C 
ATOM      9  C   LIG    1       22.280 -30.468   9.437  0.00  0.00    +0.012 C 
ATOM     10  C   LIG    1       23.427 -32.626   9.915  0.00  0.00    -0.001 C 
ATOM     11  C   LIG    1       24.716 -33.349   9.524  0.00  0.00    +0.050 C 
ATOM     12  C   LIG    1       25.029 -33.053   8.063  0.00  0.00    +0.194 C 
ATOM     13  C   LIG    1       25.118 -31.531   7.711  0.00  0.00    +0.098 C 
ATOM     14  C   LIG    1       22.856 -33.236  11.186  0.00  0.00    +0.004 C 
ATOM     15  C   LIG    1       24.749 -30.643   8.956  0.00  0.00    +0.029 C 
ATOM     16  C   LIG    1       23.686 -32.842  12.394  0.00  0.00    +0.004 C 
ATOM     17  C   LIG    1       22.173 -31.478  14.733  0.00  0.00    +0.062 C 
ATOM     18  C   LIG    1       22.899 -28.654  13.068  0.00  0.00    +0.011 C 
ATOM     19  C   LIG    1       20.849 -30.968  15.288  0.00  0.00    +0.108 C 
ENDROOT
BRANCH  19  20
ATOM     20  N   LIG    1       19.618 -31.981  14.944  0.00  0.00    +0.246 N 
ATOM     21  C   LIG    1       19.476 -32.119  13.392  0.00  0.00    +0.133 C 
ATOM     22  C   LIG    1       18.232 -32.921  12.976  0.00  0.00    +0.051 C 
ATOM     23  C   LIG    1       16.948 -32.415  13.620  0.00  0.00    +0.010 C 
ATOM     24  C   LIG    1       17.092 -32.357  15.128  0.00  0.00    +0.051 C 
ATOM     25  C   LIG    1       18.294 -31.519  15.500  0.00  0.00    +0.133 C 
ATOM     26  C   LIG    1       19.963 -33.362  15.498  0.00  0.00    +0.193 C 
ENDBRANCH  19  20
BRANCH  13  27
ATOM     27  N   LIG    1       24.455 -31.271   6.394  0.00  0.00    -0.296 NA
ATOM     28  C   LIG    1       23.570 -30.097   6.379  0.00  0.00    +0.085 C 
ATOM     29  C   LIG    1       24.308 -28.770   6.569  0.00  0.00    +0.015 C 
ATOM     30  C   LIG    1       25.348 -28.555   5.475  0.00  0.00    +0.002 C 
ATOM     31  C   LIG    1       26.235 -29.781   5.288  0.00  0.00    +0.015 C 
ATOM     32  C   LIG    1       25.441 -31.101   5.285  0.00  0.00    +0.085 C 
ENDBRANCH  13  27
BRANCH   1  33
ATOM     33  O   LIG    1       19.723 -28.727  14.655  0.00  0.00    -0.455 OA
BRANCH  33  35
ATOM     34  C   LIG    1       18.537 -26.712  14.920  0.00  0.00    +0.136 C 
ATOM     35  C   LIG    1       19.858 -27.415  15.012  0.00  0.00    +0.304 C 
ATOM     36  O   LIG    1       20.894 -26.923  15.387  0.00  0.00    -0.251 OA
ENDBRANCH  33  35
ENDBRANCH   1  33
BRANCH  12  37
ATOM     37  O   LIG    1       26.183 -33.812   7.627  0.00  0.00    -0.460 OA
BRANCH  37  38
ATOM     38  C   LIG    1       27.420 -33.415   8.010  0.00  0.00    +0.304 C 
ATOM     39  O   LIG    1       27.762 -33.120   9.164  0.00  0.00    -0.251 OA
ATOM     40  C   LIG    1       28.308 -33.334   6.825  0.00  0.00    +0.136 C 
ENDBRANCH  37  38
ENDBRANCH  12  37
TORSDOF 6
ENDMDL
MODEL 4
REMARK VINA RESULT:      -3.6      2.421      9.565
REMARK  Name = *****
REMARK                            x       y       z     vdW  Elec       q    Type
REMARK                         _______ _______ _______ _____ _____    ______ ____
ROOT
ATOM      1  C   LIG    1       23.843 -29.884  14.533  0.00  0.00    +0.230 C 
ATOM      2  C   LIG    1       24.166 -29.651  12.983  0.00  0.00    +0.014 C 
ATOM      3  C   LIG    1       22.932 -29.018  12.280  0.00  0.00    +0.015 C 
ATOM      4  C   LIG    1       24.545 -31.073  12.516  0.00  0.00    +0.007 C 
ATOM      5  C   LIG    1       25.666 -31.318  11.497  0.00  0.00    -0.003 C 
ATOM      6  C   LIG    1       25.791 -30.228  10.418  0.00  0.00    -0.001 C 
ATOM      7  C   LIG    1       25.758 -28.816  11.104  0.00  0.00    +0.005 C 
ATOM      8  C   LIG    1       24.974 -30.437   9.017  0.00  0.00    -0.025 C 
ATOM      9  C   LIG    1       23.632 -29.678   9.035  0.00  0.00    +0.012 C 
ATOM     10  C   LIG    1       24.628 -31.937   8.707  0.00  0.00    -0.001 C 
ATOM     11  C   LIG    1       25.680 -32.607   7.823  0.00  0.00    +0.050 C 
ATOM     12  C   LIG    1       25.621 -31.997   6.429  0.00  0.00    +0.194 C 
ATOM     13  C   LIG    1       25.774 -30.441   6.390  0.00  0.00    +0.098 C 
ATOM     14  C   LIG    1       24.357 -32.797   9.932  0.00  0.00    +0.004 C 
ATOM     15  C   LIG    1       25.850 -29.847   7.845  0.00  0.00    +0.029 C 
ATOM     16  C   LIG    1       25.517 -32.728  10.907  0.00  0.00    +0.004 C 
ATOM     17  C   LIG    1       24.841 -31.872  13.811  0.00  0.00    +0.062 C 
ATOM     18  C   LIG    1       25.392 -28.776  12.633  0.00  0.00    +0.011 C 
ATOM     19  C   LIG    1       23.776 -31.445  14.814  0.00  0.00    +0.108 C 
ENDROOT
BRANCH  19  20
ATOM     20  N   LIG    1       22.398 -32.296  14.632  0.00  0.00    +0.246 N 
ATOM     21  C   LIG    1       22.267 -32.764  13.144  0.00  0.00    +0.133 C 
ATOM     22  C   LIG    1       20.913 -33.427  12.843  0.00  0.00    +0.051 C 
ATOM     23  C   LIG    1       19.722 -32.584  13.279  0.00  0.00    +0.010 C 
ATOM     24  C   LIG    1       19.841 -32.204  14.743  0.00  0.00    +0.051 C 
ATOM     25  C   LIG    1       21.160 -31.511  14.989  0.00  0.00    +0.133 C 
ATOM     26  C   LIG    1       22.488 -33.550  15.499  0.00  0.00    +0.193 C 
ENDBRANCH  19  20
BRANCH  13  27
ATOM     27  N   LIG    1       24.814 -29.857   5.401  0.00  0.00    -0.296 NA
ATOM     28  C   LIG    1       23.836 -28.924   5.980  0.00  0.00    +0.085 C 
ATOM     29  C   LIG    1       24.462 -27.640   6.530  0.00  0.00    +0.015 C 
ATOM     30  C   LIG    1       25.209 -26.879   5.439  0.00  0.00    +0.002 C 
ATOM     31  C   LIG    1       26.150 -27.789   4.656  0.00  0.00    +0.015 C 
ATOM     32  C   LIG    1       25.510 -29.140   4.289  0.00  0.00    +0.085 C 
ENDBRANCH  13  27
BRANCH   1  33
ATOM     33  O   LIG    1       22.768 -29.071  15.008  0.00  0.00    -0.455 OA
BRANCH  33  35
ATOM     34  C   LIG    1       24.562 -27.629  15.499  0.00  0.00    +0.136 C 
ATOM     35  C   LIG    1       23.085 -27.769  15.274  0.00  0.00    +0.304 C 
ATOM     36  O   LIG    1       22.283 -26.868  15.279  0.00  0.00    -0.251 OA
ENDBRANCH  33  35
ENDBRANCH   1  33
BRANCH  12  37
ATOM     37  O   LIG    1       26.528 -32.687   5.534  0.00  0.00    -0.460 OA
BRANCH  37  38
ATOM     38  C   LIG    1       26.127 -32.966   4.270  0.00  0.00    +0.304 C 
ATOM     39  O   LIG    1       26.723 -32.642   3.233  0.00  0.00    -0.251 OA
ATOM     40  C   LIG    1       24.829 -33.682   4.304  0.00  0.00    +0.136 C 
ENDBRANCH  37  38
ENDBRANCH  12  37
TORSDOF 6
ENDMDL
MODEL 5
REMARK VINA RESULT:      -3.4      2.650      9.389
REMARK  Name = *****
REMARK                            x       y       z     vdW  Elec       q    Type
REMARK                         _______ _______ _______ _____ _____    ______ ____
ROOT
ATOM      1  C   LIG    1       24.686 -31.007  14.257  0.00  0.00    +0.230 C 
ATOM      2  C   LIG    1       24.923 -30.565  12.737  0.00  0.00    +0.014 C 
ATOM      3  C   LIG    1       24.057 -29.314  12.415  0.00  0.00    +0.015 C 
ATOM      4  C   LIG    1       24.553 -31.850  11.966  0.00  0.00    +0.007 C 
ATOM      5  C   LIG    1       25.326 -32.294  10.717  0.00  0.00    -0.003 C 
ATOM      6  C   LIG    1       25.831 -31.136   9.839  0.00  0.00    -0.001 C 
ATOM      7  C   LIG    1       26.523 -30.061  10.750  0.00  0.00    +0.005 C 
ATOM      8  C   LIG    1       24.874 -30.626   8.615  0.00  0.00    -0.025 C 
ATOM      9  C   LIG    1       24.044 -29.396   9.031  0.00  0.00    +0.012 C 
ATOM     10  C   LIG    1       23.846 -31.707   8.126  0.00  0.00    -0.001 C 
ATOM     11  C   LIG    1       24.375 -32.525   6.948  0.00  0.00    +0.050 C 
ATOM     12  C   LIG    1       24.464 -31.628   5.720  0.00  0.00    +0.194 C 
ATOM     13  C   LIG    1       25.314 -30.330   5.921  0.00  0.00    +0.098 C 
ATOM     14  C   LIG    1       23.332 -32.638   9.214  0.00  0.00    +0.004 C 
ATOM     15  C   LIG    1       25.801 -30.201   7.411  0.00  0.00    +0.029 C 
ATOM     16  C   LIG    1       24.484 -33.313   9.934  0.00  0.00    +0.004 C 
ATOM     17  C   LIG    1       24.575 -32.988  13.018  0.00  0.00    +0.062 C 
ATOM     18  C   LIG    1       26.372 -30.243  12.305  0.00  0.00    +0.011 C 
ATOM     19  C   LIG    1       23.934 -32.406  14.272  0.00  0.00    +0.108 C 
ENDROOT
BRANCH  19  20
ATOM     20  N   LIG    1       22.308 -32.512  14.225  0.00  0.00    +0.246 N 
ATOM     21  C   LIG    1       21.877 -33.358  12.981  0.00  0.00    +0.133 C 
ATOM     22  C   LIG    1       20.355 -33.365  12.763  0.00  0.00    +0.051 C 
ATOM     23  C   LIG    1       19.745 -31.970  12.739  0.00  0.00    +0.010 C 
ATOM     24  C   LIG    1       20.123 -31.199  13.989  0.00  0.00    +0.051 C 
ATOM     25  C   LIG    1       21.626 -31.169  14.142  0.00  0.00    +0.133 C 
ATOM     26  C   LIG    1       21.839 -33.259  15.472  0.00  0.00    +0.193 C 
ENDBRANCH  19  20
BRANCH  13  27
ATOM     27  N   LIG    1       24.638 -29.169   5.259  0.00  0.00    -0.296 NA
ATOM     28  C   LIG    1       24.216 -28.105   6.181  0.00  0.00    +0.085 C 
ATOM     29  C   LIG    1       25.381 -27.381   6.859  0.00  0.00    +0.015 C 
ATOM     30  C   LIG    1       26.303 -26.735   5.831  0.00  0.00    +0.002 C 
ATOM     31  C   LIG    1       26.688 -27.711   4.723  0.00  0.00    +0.015 C 
ATOM     32  C   LIG    1       25.494 -28.537   4.210  0.00  0.00    +0.085 C 
ENDBRANCH  13  27
BRANCH   1  33
ATOM     33  O   LIG    1       24.162 -29.956  15.070  0.00  0.00    -0.455 OA
BRANCH  33  35
ATOM     34  C   LIG    1       24.270 -27.631  15.419  0.00  0.00    +0.136 C 
ATOM     35  C   LIG    1       25.021 -28.926  15.329  0.00  0.00    +0.304 C 
ATOM     36  O   LIG    1       26.207 -29.066  15.500  0.00  0.00    -0.251 OA
ENDBRANCH  33  35
ENDBRANCH   1  33
BRANCH  12  37
ATOM     37  O   LIG    1       24.855 -32.398   4.556  0.00  0.00    -0.460 OA
BRANCH  37  38
ATOM     38  C   LIG    1       26.164 -32.687   4.364  0.00  0.00    +0.304 C 
ATOM     39  O   LIG    1       26.802 -32.496   3.318  0.00  0.00    -0.251 OA
ATOM     40  C   LIG    1       26.722 -33.318   5.583  0.00  0.00    +0.136 C 
ENDBRANCH  37  38
ENDBRANCH  12  37
TORSDOF 6
ENDMDL
