MODEL 1
REMARK VINA RESULT:      -3.8      0.000      0.000
REMARK  Name = *****
REMARK                            x       y       z     vdW  Elec       q    Type
REMARK                         _______ _______ _______ _____ _____    ______ ____
ROOT
ATOM      1  C   LIG    1       24.328 -19.361   3.627  0.00  0.00    +0.051 C 
ATOM      2  C   LIG    1       23.577 -19.536   5.022  0.00  0.00    +0.065 C 
ATOM      3  C   LIG    1       24.568 -20.492   5.658  0.00  0.00    +0.140 C 
ATOM      4  O   LIG    1       24.897 -20.410   6.838  0.00  0.00    -0.297 OA
ATOM      5  C   LIG    1       25.291 -21.378   4.663  0.00  0.00    +0.106 C 
ATOM      6  C   LIG    1       24.884 -20.774   3.322  0.00  0.00    +0.129 C 
ENDROOT
BRANCH   6   7
ATOM      7  O   LIG    1       23.878 -21.571   2.711  0.00  0.00    -0.391 OA
ATOM      8  H   LIG    1       23.036 -21.345   3.146  0.00  0.00    +0.210 HD
ENDBRANCH   6   7
BRANCH   1  10
ATOM      9  C   LIG    1       25.618 -17.107   3.310  0.00  0.00    -0.000 C 
ATOM     10  C   LIG    1       25.524 -18.393   3.703  0.00  0.00    -0.022 C 
BRANCH   9  11
ATOM     11  C   LIG    1       26.741 -16.104   3.580  0.00  0.00    +0.137 C 
BRANCH  11  12
ATOM     12  O   LIG    1       27.932 -16.872   3.788  0.00  0.00    -0.388 OA
ATOM     13  H   LIG    1       28.296 -17.095   2.915  0.00  0.00    +0.210 HD
ENDBRANCH  11  12
BRANCH  11  14
ATOM     14  C   LIG    1       27.075 -14.947   2.604  0.00  0.00    +0.035 C 
BRANCH  14  15
ATOM     15  C   LIG    1       27.107 -13.543   3.222  0.00  0.00    +0.003 C 
BRANCH  15  16
ATOM     16  C   LIG    1       28.447 -13.171   3.855  0.00  0.00    -0.000 C 
BRANCH  16  18
ATOM     17  C   LIG    1       27.099 -13.418   5.956  0.00  0.00    +0.004 C 
ATOM     18  C   LIG    1       28.272 -12.702   5.307  0.00  0.00    -0.003 C 
ENDBRANCH  16  18
ENDBRANCH  15  16
ENDBRANCH  14  15
ENDBRANCH  11  14
ENDBRANCH   9  11
ENDBRANCH   1  10
BRANCH   2  19
ATOM     19  C   LIG    1       22.069 -20.031   4.990  0.00  0.00    +0.011 C 
BRANCH  19  20
ATOM     20  C   LIG    1       20.963 -19.114   4.313  0.00  0.00    +0.001 C 
BRANCH  20  21
ATOM     21  C   LIG    1       21.456 -17.735   3.744  0.00  0.00    +0.000 C 
BRANCH  21  22
ATOM     22  C   LIG    1       22.016 -16.685   4.775  0.00  0.00    +0.000 C 
BRANCH  22  23
ATOM     23  C   LIG    1       23.048 -15.703   4.159  0.00  0.00    +0.011 C 
BRANCH  23  24
ATOM     24  C   LIG    1       23.541 -14.448   4.939  0.00  0.00    +0.120 C 
BRANCH  24  25
ATOM     25  C   LIG    1       23.808 -13.207   4.111  0.00  0.00    +0.305 C 
ATOM     26  O   LIG    1       24.137 -12.078   4.571  0.00  0.00    -0.251 OA
BRANCH  25  27
ATOM     27  O   LIG    1       23.559 -13.383   2.806  0.00  0.00    -0.481 OA
ATOM     28  H   LIG    1       24.041 -14.163   2.456  0.00  0.00    +0.295 HD
ENDBRANCH  25  27
ENDBRANCH  24  25
ENDBRANCH  23  24
ENDBRANCH  22  23
ENDBRANCH  21  22
ENDBRANCH  20  21
ENDBRANCH  19  20
ENDBRANCH   2  19
TORSDOF 16
ENDMDL
MODEL 2
REMARK VINA RESULT:      -3.7      1.655      7.379
REMARK  Name = *****
REMARK                            x       y       z     vdW  Elec       q    Type
REMARK                         _______ _______ _______ _____ _____    ______ ____
ROOT
ATOM      1  C   LIG    1       24.726 -14.029   3.713  0.00  0.00    +0.051 C 
ATOM      2  C   LIG    1       25.319 -13.095   4.861  0.00  0.00    +0.065 C 
ATOM      3  C   LIG    1       24.231 -12.037   4.830  0.00  0.00    +0.140 C 
ATOM      4  O   LIG    1       23.783 -11.525   5.852  0.00  0.00    -0.297 OA
ATOM      5  C   LIG    1       23.587 -11.858   3.470  0.00  0.00    +0.106 C 
ATOM      6  C   LIG    1       24.155 -13.031   2.676  0.00  0.00    +0.129 C 
ENDROOT
BRANCH   6   7
ATOM      7  O   LIG    1       25.189 -12.581   1.812  0.00  0.00    -0.391 OA
ATOM      8  H   LIG    1       25.629 -11.837   2.262  0.00  0.00    +0.210 HD
ENDBRANCH   6   7
BRANCH   1  10
ATOM      9  C   LIG    1       23.440 -16.259   4.180  0.00  0.00    -0.000 C 
ATOM     10  C   LIG    1       23.565 -14.917   4.198  0.00  0.00    -0.022 C 
BRANCH   9  11
ATOM     11  C   LIG    1       22.375 -17.131   4.851  0.00  0.00    +0.137 C 
BRANCH  11  12
ATOM     12  O   LIG    1       21.268 -16.270   5.142  0.00  0.00    -0.388 OA
ATOM     13  H   LIG    1       20.789 -16.113   4.311  0.00  0.00    +0.210 HD
ENDBRANCH  11  12
BRANCH  11  14
ATOM     14  C   LIG    1       21.826 -18.423   4.195  0.00  0.00    +0.035 C 
BRANCH  14  15
ATOM     15  C   LIG    1       22.396 -19.740   4.739  0.00  0.00    +0.003 C 
BRANCH  15  16
ATOM     16  C   LIG    1       22.786 -19.688   6.215  0.00  0.00    -0.000 C 
BRANCH  16  18
ATOM     17  C   LIG    1       24.633 -21.159   7.061  0.00  0.00    +0.004 C 
ATOM     18  C   LIG    1       23.147 -21.081   6.751  0.00  0.00    -0.003 C 
ENDBRANCH  16  18
ENDBRANCH  15  16
ENDBRANCH  14  15
ENDBRANCH  11  14
ENDBRANCH   9  11
ENDBRANCH   1  10
BRANCH   2  19
ATOM     19  C   LIG    1       26.803 -12.560   4.682  0.00  0.00    +0.011 C 
BRANCH  19  20
ATOM     20  C   LIG    1       27.841 -13.416   3.840  0.00  0.00    +0.001 C 
BRANCH  20  21
ATOM     21  C   LIG    1       27.853 -14.963   4.114  0.00  0.00    +0.000 C 
BRANCH  21  22
ATOM     22  C   LIG    1       26.863 -15.856   3.276  0.00  0.00    +0.000 C 
BRANCH  22  23
ATOM     23  C   LIG    1       26.930 -17.362   3.641  0.00  0.00    +0.011 C 
BRANCH  23  24
ATOM     24  C   LIG    1       25.781 -18.342   3.256  0.00  0.00    +0.120 C 
BRANCH  24  25
ATOM     25  C   LIG    1       25.861 -19.734   3.851  0.00  0.00    +0.305 C 
ATOM     26  O   LIG    1       25.037 -20.667   3.643  0.00  0.00    -0.251 OA
BRANCH  25  27
ATOM     27  O   LIG    1       26.862 -19.871   4.732  0.00  0.00    -0.481 OA
ATOM     28  H   LIG    1       27.710 -19.550   4.357  0.00  0.00    +0.295 HD
ENDBRANCH  25  27
ENDBRANCH  24  25
ENDBRANCH  23  24
ENDBRANCH  22  23
ENDBRANCH  21  22
ENDBRANCH  20  21
ENDBRANCH  19  20
ENDBRANCH   2  19
TORSDOF 16
ENDMDL
MODEL 3
REMARK VINA RESULT:      -3.6      1.926      2.993
REMARK  Name = *****
REMARK                            x       y       z     vdW  Elec       q    Type
REMARK                         _______ _______ _______ _____ _____    ______ ____
ROOT
ATOM      1  C   LIG    1       24.447 -19.455   3.538  0.00  0.00    +0.051 C 
ATOM      2  C   LIG    1       23.757 -19.342   4.971  0.00  0.00    +0.065 C 
ATOM      3  C   LIG    1       24.521 -20.467   5.642  0.00  0.00    +0.140 C 
ATOM      4  O   LIG    1       24.927 -20.389   6.798  0.00  0.00    -0.297 OA
ATOM      5  C   LIG    1       24.946 -21.571   4.695  0.00  0.00    +0.106 C 
ATOM      6  C   LIG    1       24.622 -20.979   3.326  0.00  0.00    +0.129 C 
ENDROOT
BRANCH   6   7
ATOM      7  O   LIG    1       23.419 -21.542   2.822  0.00  0.00    -0.391 OA
ATOM      8  H   LIG    1       23.628 -22.454   2.548  0.00  0.00    +0.210 HD
ENDBRANCH   6   7
BRANCH   1  10
ATOM      9  C   LIG    1       26.207 -17.523   3.654  0.00  0.00    -0.000 C 
ATOM     10  C   LIG    1       25.845 -18.810   3.488  0.00  0.00    -0.022 C 
BRANCH   9  11
ATOM     11  C   LIG    1       27.612 -16.936   3.806  0.00  0.00    +0.137 C 
BRANCH  11  12
ATOM     12  O   LIG    1       27.507 -15.542   3.498  0.00  0.00    -0.388 OA
ATOM     13  H   LIG    1       28.141 -15.347   2.788  0.00  0.00    +0.210 HD
ENDBRANCH  11  12
BRANCH  11  14
ATOM     14  C   LIG    1       28.438 -17.084   5.110  0.00  0.00    +0.035 C 
BRANCH  14  15
ATOM     15  C   LIG    1       29.396 -18.282   5.158  0.00  0.00    +0.003 C 
BRANCH  15  16
ATOM     16  C   LIG    1       29.475 -18.963   6.522  0.00  0.00    -0.000 C 
BRANCH  16  18
ATOM     17  C   LIG    1       28.759 -21.317   7.013  0.00  0.00    +0.004 C 
ATOM     18  C   LIG    1       28.278 -19.898   6.754  0.00  0.00    -0.003 C 
ENDBRANCH  16  18
ENDBRANCH  15  16
ENDBRANCH  14  15
ENDBRANCH  11  14
ENDBRANCH   9  11
ENDBRANCH   1  10
BRANCH   2  19
ATOM     19  C   LIG    1       22.175 -19.449   5.037  0.00  0.00    +0.011 C 
BRANCH  19  20
ATOM     20  C   LIG    1       21.299 -18.713   3.936  0.00  0.00    +0.001 C 
BRANCH  20  21
ATOM     21  C   LIG    1       21.522 -17.164   3.790  0.00  0.00    +0.000 C 
BRANCH  21  22
ATOM     22  C   LIG    1       22.518 -16.478   4.797  0.00  0.00    +0.000 C 
BRANCH  22  23
ATOM     23  C   LIG    1       22.993 -15.074   4.336  0.00  0.00    +0.011 C 
BRANCH  23  24
ATOM     24  C   LIG    1       24.489 -14.649   4.437  0.00  0.00    +0.120 C 
BRANCH  24  25
ATOM     25  C   LIG    1       24.846 -13.309   3.825  0.00  0.00    +0.305 C 
ATOM     26  O   LIG    1       25.926 -13.043   3.228  0.00  0.00    -0.251 OA
BRANCH  25  27
ATOM     27  O   LIG    1       23.929 -12.361   4.065  0.00  0.00    -0.481 OA
ATOM     28  H   LIG    1       23.222 -12.695   4.656  0.00  0.00    +0.295 HD
ENDBRANCH  25  27
ENDBRANCH  24  25
ENDBRANCH  23  24
ENDBRANCH  22  23
ENDBRANCH  21  22
ENDBRANCH  20  21
ENDBRANCH  19  20
ENDBRANCH   2  19
TORSDOF 16
ENDMDL
MODEL 4
REMARK VINA RESULT:      -2.9      2.388      7.426
REMARK  Name = *****
REMARK                            x       y       z     vdW  Elec       q    Type
REMARK                         _______ _______ _______ _____ _____    ______ ____
ROOT
ATOM      1  C   LIG    1       24.966 -15.072   3.775  0.00  0.00    +0.051 C 
ATOM      2  C   LIG    1       25.355 -13.958   4.848  0.00  0.00    +0.065 C 
ATOM      3  C   LIG    1       24.388 -12.889   4.375  0.00  0.00    +0.140 C 
ATOM      4  O   LIG    1       23.761 -12.178   5.155  0.00  0.00    -0.297 OA
ATOM      5  C   LIG    1       24.084 -12.949   2.892  0.00  0.00    +0.106 C 
ATOM      6  C   LIG    1       24.724 -14.269   2.473  0.00  0.00    +0.129 C 
ENDROOT
BRANCH   6   7
ATOM      7  O   LIG    1       25.959 -14.027   1.814  0.00  0.00    -0.391 OA
ATOM      8  H   LIG    1       26.457 -14.864   1.832  0.00  0.00    +0.210 HD
ENDBRANCH   6   7
BRANCH   1  10
ATOM      9  C   LIG    1       23.389 -17.132   4.112  0.00  0.00    -0.000 C 
ATOM     10  C   LIG    1       23.660 -15.812   4.120  0.00  0.00    -0.022 C 
BRANCH   9  11
ATOM     11  C   LIG    1       22.156 -17.860   4.653  0.00  0.00    +0.137 C 
BRANCH  11  12
ATOM     12  O   LIG    1       21.092 -17.600   3.732  0.00  0.00    -0.388 OA
ATOM     13  H   LIG    1       21.491 -17.358   2.879  0.00  0.00    +0.210 HD
ENDBRANCH  11  12
BRANCH  11  14
ATOM     14  C   LIG    1       22.161 -19.376   4.975  0.00  0.00    +0.035 C 
BRANCH  14  15
ATOM     15  C   LIG    1       23.325 -19.869   5.845  0.00  0.00    +0.003 C 
BRANCH  15  16
ATOM     16  C   LIG    1       24.019 -21.119   5.308  0.00  0.00    -0.000 C 
BRANCH  16  18
ATOM     17  C   LIG    1       25.482 -19.860   3.705  0.00  0.00    +0.004 C 
ATOM     18  C   LIG    1       24.427 -20.947   3.837  0.00  0.00    -0.003 C 
ENDBRANCH  16  18
ENDBRANCH  15  16
ENDBRANCH  14  15
ENDBRANCH  11  14
ENDBRANCH   9  11
ENDBRANCH   1  10
BRANCH   2  19
ATOM     19  C   LIG    1       26.878 -13.519   4.934  0.00  0.00    +0.011 C 
BRANCH  19  20
ATOM     20  C   LIG    1       27.996 -14.466   4.324  0.00  0.00    +0.001 C 
BRANCH  20  21
ATOM     21  C   LIG    1       28.421 -15.697   5.203  0.00  0.00    +0.000 C 
BRANCH  21  22
ATOM     22  C   LIG    1       28.230 -17.131   4.581  0.00  0.00    +0.000 C 
BRANCH  22  23
ATOM     23  C   LIG    1       29.260 -18.171   5.096  0.00  0.00    +0.011 C 
BRANCH  23  24
ATOM     24  C   LIG    1       29.147 -18.788   6.523  0.00  0.00    +0.120 C 
BRANCH  24  25
ATOM     25  C   LIG    1       28.469 -20.140   6.614  0.00  0.00    +0.305 C 
ATOM     26  O   LIG    1       27.235 -20.328   6.803  0.00  0.00    -0.251 OA
BRANCH  25  27
ATOM     27  O   LIG    1       29.333 -21.165   6.577  0.00  0.00    -0.481 OA
ATOM     28  H   LIG    1       28.879 -22.001   6.336  0.00  0.00    +0.295 HD
ENDBRANCH  25  27
ENDBRANCH  24  25
ENDBRANCH  23  24
ENDBRANCH  22  23
ENDBRANCH  21  22
ENDBRANCH  20  21
ENDBRANCH  19  20
ENDBRANCH   2  19
TORSDOF 16
ENDMDL
MODEL 5
REMARK VINA RESULT:      -1.6      2.379      6.593
REMARK  Name = *****
REMARK                            x       y       z     vdW  Elec       q    Type
REMARK                         _______ _______ _______ _____ _____    ______ ____
ROOT
ATOM      1  C   LIG    1       27.721 -14.367   4.877  0.00  0.00    +0.051 C 
ATOM      2  C   LIG    1       26.258 -14.173   4.274  0.00  0.00    +0.065 C 
ATOM      3  C   LIG    1       26.665 -14.037   2.819  0.00  0.00    +0.140 C 
ATOM      4  O   LIG    1       26.026 -14.552   1.907  0.00  0.00    -0.297 OA
ATOM      5  C   LIG    1       28.041 -13.433   2.620  0.00  0.00    +0.106 C 
ATOM      6  C   LIG    1       28.601 -13.407   4.039  0.00  0.00    +0.129 C 
ENDROOT
BRANCH   6   7
ATOM      7  O   LIG    1       28.528 -12.091   4.571  0.00  0.00    -0.391 OA
ATOM      8  H   LIG    1       28.641 -12.170   5.535  0.00  0.00    +0.210 HD
ENDBRANCH   6   7
BRANCH   1  10
ATOM      9  C   LIG    1       28.378 -16.802   5.572  0.00  0.00    -0.000 C 
ATOM     10  C   LIG    1       28.268 -15.794   4.684  0.00  0.00    -0.022 C 
BRANCH   9  11
ATOM     11  C   LIG    1       28.730 -18.269   5.315  0.00  0.00    +0.137 C 
BRANCH  11  12
ATOM     12  O   LIG    1       29.475 -18.302   4.093  0.00  0.00    -0.388 OA
ATOM     13  H   LIG    1       30.075 -19.066   4.134  0.00  0.00    +0.210 HD
ENDBRANCH  11  12
BRANCH  11  14
ATOM     14  C   LIG    1       29.472 -19.141   6.360  0.00  0.00    +0.035 C 
BRANCH  14  15
ATOM     15  C   LIG    1       28.700 -20.363   6.877  0.00  0.00    +0.003 C 
BRANCH  15  16
ATOM     16  C   LIG    1       27.182 -20.210   6.821  0.00  0.00    -0.000 C 
BRANCH  16  18
ATOM     17  C   LIG    1       25.065 -21.549   6.671  0.00  0.00    +0.004 C 
ATOM     18  C   LIG    1       26.513 -21.453   6.217  0.00  0.00    -0.003 C 
ENDBRANCH  16  18
ENDBRANCH  15  16
ENDBRANCH  14  15
ENDBRANCH  11  14
ENDBRANCH   9  11
ENDBRANCH   1  10
BRANCH   2  19
ATOM     19  C   LIG    1       25.373 -12.989   4.854  0.00  0.00    +0.011 C 
BRANCH  19  20
ATOM     20  C   LIG    1       23.954 -12.690   4.208  0.00  0.00    +0.001 C 
BRANCH  20  21
ATOM     21  C   LIG    1       23.135 -13.938   3.720  0.00  0.00    +0.000 C 
BRANCH  21  22
ATOM     22  C   LIG    1       22.892 -15.097   4.757  0.00  0.00    +0.000 C 
BRANCH  22  23
ATOM     23  C   LIG    1       22.992 -16.515   4.135  0.00  0.00    +0.011 C 
BRANCH  23  24
ATOM     24  C   LIG    1       22.139 -17.702   4.677  0.00  0.00    +0.120 C 
BRANCH  24  25
ATOM     25  C   LIG    1       22.668 -19.092   4.388  0.00  0.00    +0.305 C 
ATOM     26  O   LIG    1       22.061 -20.171   4.636  0.00  0.00    -0.251 OA
BRANCH  25  27
ATOM     27  O   LIG    1       23.925 -19.090   3.922  0.00  0.00    -0.481 OA
ATOM     28  H   LIG    1       24.566 -19.300   4.633  0.00  0.00    +0.295 HD
ENDBRANCH  25  27
ENDBRANCH  24  25
ENDBRANCH  23  24
ENDBRANCH  22  23
ENDBRANCH  21  22
ENDBRANCH  20  21
ENDBRANCH  19  20
ENDBRANCH   2  19
TORSDOF 16
ENDMDL
MODEL 6
REMARK VINA RESULT:      -1.5      2.149      7.174
REMARK  Name = *****
REMARK                            x       y       z     vdW  Elec       q    Type
REMARK                         _______ _______ _______ _____ _____    ______ ____
ROOT
ATOM      1  C   LIG    1       25.793 -15.226   3.384  0.00  0.00    +0.051 C 
ATOM      2  C   LIG    1       25.437 -14.348   4.666  0.00  0.00    +0.065 C 
ATOM      3  C   LIG    1       24.139 -13.760   4.144  0.00  0.00    +0.140 C 
ATOM      4  O   LIG    1       23.148 -13.621   4.853  0.00  0.00    -0.297 OA
ATOM      5  C   LIG    1       24.101 -13.598   2.637  0.00  0.00    +0.106 C 
ATOM      6  C   LIG    1       25.359 -14.340   2.191  0.00  0.00    +0.129 C 
ENDROOT
BRANCH   6   7
ATOM      7  O   LIG    1       26.387 -13.412   1.874  0.00  0.00    -0.391 OA
ATOM      8  H   LIG    1       26.727 -13.068   2.720  0.00  0.00    +0.210 HD
ENDBRANCH   6   7
BRANCH   1  10
ATOM      9  C   LIG    1       25.420 -17.815   3.349  0.00  0.00    -0.000 C 
ATOM     10  C   LIG    1       24.990 -16.539   3.310  0.00  0.00    -0.022 C 
BRANCH   9  11
ATOM     11  C   LIG    1       24.597 -19.099   3.482  0.00  0.00    +0.137 C 
BRANCH  11  12
ATOM     12  O   LIG    1       25.446 -20.173   3.065  0.00  0.00    -0.388 OA
ATOM     13  H   LIG    1       25.484 -20.162   2.094  0.00  0.00    +0.210 HD
ENDBRANCH  11  12
BRANCH  11  14
ATOM     14  C   LIG    1       23.908 -19.511   4.808  0.00  0.00    +0.035 C 
BRANCH  14  15
ATOM     15  C   LIG    1       22.381 -19.361   4.840  0.00  0.00    +0.003 C 
BRANCH  15  16
ATOM     16  C   LIG    1       21.868 -18.073   4.201  0.00  0.00    -0.000 C 
BRANCH  16  18
ATOM     17  C   LIG    1       19.576 -18.627   3.343  0.00  0.00    +0.004 C 
ATOM     18  C   LIG    1       21.021 -18.363   2.953  0.00  0.00    -0.003 C 
ENDBRANCH  16  18
ENDBRANCH  15  16
ENDBRANCH  14  15
ENDBRANCH  11  14
ENDBRANCH   9  11
ENDBRANCH   1  10
BRANCH   2  19
ATOM     19  C   LIG    1       26.518 -13.296   5.162  0.00  0.00    +0.011 C 
BRANCH  19  20
ATOM     20  C   LIG    1       28.043 -13.507   4.774  0.00  0.00    +0.001 C 
BRANCH  20  21
ATOM     21  C   LIG    1       28.447 -14.949   4.296  0.00  0.00    +0.000 C 
BRANCH  21  22
ATOM     22  C   LIG    1       28.353 -16.114   5.350  0.00  0.00    +0.000 C 
BRANCH  22  23
ATOM     23  C   LIG    1       28.730 -17.503   4.771  0.00  0.00    +0.011 C 
BRANCH  23  24
ATOM     24  C   LIG    1       29.460 -18.573   5.637  0.00  0.00    +0.120 C 
BRANCH  24  25
ATOM     25  C   LIG    1       28.715 -19.874   5.861  0.00  0.00    +0.305 C 
ATOM     26  O   LIG    1       29.104 -20.822   6.598  0.00  0.00    -0.251 OA
BRANCH  25  27
ATOM     27  O   LIG    1       27.613 -19.985   5.105  0.00  0.00    -0.481 OA
ATOM     28  H   LIG    1       27.003 -19.233   5.257  0.00  0.00    +0.295 HD
ENDBRANCH  25  27
ENDBRANCH  24  25
ENDBRANCH  23  24
ENDBRANCH  22  23
ENDBRANCH  21  22
ENDBRANCH  20  21
ENDBRANCH  19  20
ENDBRANCH   2  19
TORSDOF 16
ENDMDL
MODEL 7
REMARK VINA RESULT:      -1.0      1.506      2.477
REMARK  Name = *****
REMARK                            x       y       z     vdW  Elec       q    Type
REMARK                         _______ _______ _______ _____ _____    ______ ____
ROOT
ATOM      1  C   LIG    1       24.505 -19.316   3.905  0.00  0.00    +0.051 C 
ATOM      2  C   LIG    1       24.124 -19.631   5.421  0.00  0.00    +0.065 C 
ATOM      3  C   LIG    1       25.347 -20.464   5.758  0.00  0.00    +0.140 C 
ATOM      4  O   LIG    1       25.927 -20.374   6.836  0.00  0.00    -0.297 OA
ATOM      5  C   LIG    1       25.923 -21.215   4.575  0.00  0.00    +0.106 C 
ATOM      6  C   LIG    1       25.145 -20.632   3.399  0.00  0.00    +0.129 C 
ENDROOT
BRANCH   6   7
ATOM      7  O   LIG    1       24.133 -21.538   2.984  0.00  0.00    -0.391 OA
ATOM      8  H   LIG    1       23.504 -21.617   3.724  0.00  0.00    +0.210 HD
ENDBRANCH   6   7
BRANCH   1  10
ATOM      9  C   LIG    1       25.429 -16.952   3.271  0.00  0.00    -0.000 C 
ATOM     10  C   LIG    1       25.556 -18.199   3.767  0.00  0.00    -0.022 C 
BRANCH   9  11
ATOM     11  C   LIG    1       26.425 -15.792   3.331  0.00  0.00    +0.137 C 
BRANCH  11  12
ATOM     12  O   LIG    1       26.295 -15.079   2.096  0.00  0.00    -0.388 OA
ATOM     13  H   LIG    1       25.439 -15.319   1.704  0.00  0.00    +0.210 HD
ENDBRANCH  11  12
BRANCH  11  14
ATOM     14  C   LIG    1       26.431 -14.761   4.488  0.00  0.00    +0.035 C 
BRANCH  14  15
ATOM     15  C   LIG    1       26.293 -13.291   4.070  0.00  0.00    +0.003 C 
BRANCH  15  16
ATOM     16  C   LIG    1       25.003 -12.626   4.548  0.00  0.00    -0.000 C 
BRANCH  16  18
ATOM     17  C   LIG    1       24.777 -11.967   2.138  0.00  0.00    +0.004 C 
ATOM     18  C   LIG    1       24.025 -12.397   3.387  0.00  0.00    -0.003 C 
ENDBRANCH  16  18
ENDBRANCH  15  16
ENDBRANCH  14  15
ENDBRANCH  11  14
ENDBRANCH   9  11
ENDBRANCH   1  10
BRANCH   2  19
ATOM     19  C   LIG    1       22.723 -20.323   5.700  0.00  0.00    +0.011 C 
BRANCH  19  20
ATOM     20  C   LIG    1       21.806 -20.745   4.474  0.00  0.00    +0.001 C 
BRANCH  20  21
ATOM     21  C   LIG    1       20.454 -19.962   4.315  0.00  0.00    +0.000 C 
BRANCH  21  22
ATOM     22  C   LIG    1       20.388 -18.849   3.203  0.00  0.00    +0.000 C 
BRANCH  22  23
ATOM     23  C   LIG    1       21.380 -17.679   3.441  0.00  0.00    +0.011 C 
BRANCH  23  24
ATOM     24  C   LIG    1       21.903 -17.335   4.868  0.00  0.00    +0.120 C 
BRANCH  24  25
ATOM     25  C   LIG    1       22.287 -15.888   5.108  0.00  0.00    +0.305 C 
ATOM     26  O   LIG    1       23.016 -15.190   4.350  0.00  0.00    -0.251 OA
BRANCH  25  27
ATOM     27  O   LIG    1       21.856 -15.419   6.287  0.00  0.00    -0.481 OA
ATOM     28  H   LIG    1       20.893 -15.232   6.263  0.00  0.00    +0.295 HD
ENDBRANCH  25  27
ENDBRANCH  24  25
ENDBRANCH  23  24
ENDBRANCH  22  23
ENDBRANCH  21  22
ENDBRANCH  20  21
ENDBRANCH  19  20
ENDBRANCH   2  19
TORSDOF 16
ENDMDL
MODEL 8
REMARK VINA RESULT:      -0.8      2.060      6.209
REMARK  Name = *****
REMARK                            x       y       z     vdW  Elec       q    Type
REMARK                         _______ _______ _______ _____ _____    ______ ____
ROOT
ATOM      1  C   LIG    1       26.703 -15.220   3.973  0.00  0.00    +0.051 C 
ATOM      2  C   LIG    1       25.502 -14.171   3.973  0.00  0.00    +0.065 C 
ATOM      3  C   LIG    1       25.610 -13.753   2.519  0.00  0.00    +0.140 C 
ATOM      4  O   LIG    1       24.623 -13.563   1.814  0.00  0.00    -0.297 OA
ATOM      5  C   LIG    1       27.015 -13.837   1.959  0.00  0.00    +0.106 C 
ATOM      6  C   LIG    1       27.773 -14.563   3.067  0.00  0.00    +0.129 C 
ENDROOT
BRANCH   6   7
ATOM      7  O   LIG    1       28.546 -13.637   3.819  0.00  0.00    -0.391 OA
ATOM      8  H   LIG    1       29.040 -13.096   3.177  0.00  0.00    +0.210 HD
ENDBRANCH   6   7
BRANCH   1  10
ATOM      9  C   LIG    1       25.913 -17.714   3.935  0.00  0.00    -0.000 C 
ATOM     10  C   LIG    1       26.322 -16.573   3.344  0.00  0.00    -0.022 C 
BRANCH   9  11
ATOM     11  C   LIG    1       25.343 -18.977   3.285  0.00  0.00    +0.137 C 
BRANCH  11  12
ATOM     12  O   LIG    1       26.074 -19.175   2.070  0.00  0.00    -0.388 OA
ATOM     13  H   LIG    1       26.942 -18.750   2.174  0.00  0.00    +0.210 HD
ENDBRANCH  11  12
BRANCH  11  14
ATOM     14  C   LIG    1       25.267 -20.333   4.032  0.00  0.00    +0.035 C 
BRANCH  14  15
ATOM     15  C   LIG    1       25.365 -20.257   5.561  0.00  0.00    +0.003 C 
BRANCH  15  16
ATOM     16  C   LIG    1       26.307 -21.289   6.178  0.00  0.00    -0.000 C 
BRANCH  16  18
ATOM     17  C   LIG    1       28.331 -19.824   5.950  0.00  0.00    +0.004 C 
ATOM     18  C   LIG    1       27.470 -20.616   6.921  0.00  0.00    -0.003 C 
ENDBRANCH  16  18
ENDBRANCH  15  16
ENDBRANCH  14  15
ENDBRANCH  11  14
ENDBRANCH   9  11
ENDBRANCH   1  10
BRANCH   2  19
ATOM     19  C   LIG    1       25.554 -12.991   5.033  0.00  0.00    +0.011 C 
BRANCH  19  20
ATOM     20  C   LIG    1       24.197 -12.376   5.581  0.00  0.00    +0.001 C 
BRANCH  20  21
ATOM     21  C   LIG    1       22.902 -13.239   5.357  0.00  0.00    +0.000 C 
BRANCH  21  22
ATOM     22  C   LIG    1       22.873 -14.679   5.993  0.00  0.00    +0.000 C 
BRANCH  22  23
ATOM     23  C   LIG    1       22.040 -15.699   5.172  0.00  0.00    +0.011 C 
BRANCH  23  24
ATOM     24  C   LIG    1       22.716 -16.894   4.434  0.00  0.00    +0.120 C 
BRANCH  24  25
ATOM     25  C   LIG    1       21.940 -18.195   4.417  0.00  0.00    +0.305 C 
ATOM     26  O   LIG    1       20.967 -18.456   3.657  0.00  0.00    -0.251 OA
BRANCH  25  27
ATOM     27  O   LIG    1       22.319 -19.046   5.381  0.00  0.00    -0.481 OA
ATOM     28  H   LIG    1       22.909 -19.744   5.025  0.00  0.00    +0.295 HD
ENDBRANCH  25  27
ENDBRANCH  24  25
ENDBRANCH  23  24
ENDBRANCH  22  23
ENDBRANCH  21  22
ENDBRANCH  20  21
ENDBRANCH  19  20
ENDBRANCH   2  19
TORSDOF 16
ENDMDL
