MODEL 1
REMARK VINA RESULT:      -4.6      0.000      0.000
REMARK  Name = *****
REMARK                            x       y       z     vdW  Elec       q    Type
REMARK                         _______ _______ _______ _____ _____    ______ ____
ROOT
ATOM      1  C   LIG    1       23.008 -16.865   4.070  0.00  0.00    +0.287 C 
ENDROOT
BRANCH   1   2
ATOM      2  N   LIG    1       24.312 -16.332   3.742  0.00  0.00    -0.291 N 
ATOM      3  C   LIG    1       24.644 -15.018   3.586  0.00  0.00    +0.171 A 
ATOM      4  N   LIG    1       23.817 -13.950   3.677  0.00  0.00    -0.196 NA
ATOM      5  C   LIG    1       24.418 -12.812   3.473  0.00  0.00    +0.195 C 
ATOM      6  N   LIG    1       25.774 -12.689   3.218  0.00  0.00    -0.293 N 
ATOM      7  H   LIG    1       26.188 -11.777   3.126  0.00  0.00    +0.172 HD
ATOM      8  C   LIG    1       26.662 -13.754   3.132  0.00  0.00    +0.280 C 
ATOM      9  O   LIG    1       27.863 -13.584   2.929  0.00  0.00    -0.265 OA
ATOM     10  C   LIG    1       26.002 -15.025   3.320  0.00  0.00    +0.172 A 
ATOM     11  N   LIG    1       26.483 -16.309   3.240  0.00  0.00    -0.229 NA
ATOM     12  C   LIG    1       25.441 -17.070   3.488  0.00  0.00    +0.203 A 
BRANCH   5  13
ATOM     13  N   LIG    1       23.709 -11.656   3.504  0.00  0.00    -0.329 N 
ATOM     14  H   LIG    1       23.651 -11.192   4.400  0.00  0.00    +0.145 HD
ATOM     15  H   LIG    1       23.992 -11.026   2.759  0.00  0.00    +0.145 HD
ENDBRANCH   5  13
ENDBRANCH   1   2
BRANCH   1  16
ATOM     16  O   LIG    1       23.086 -18.286   4.008  0.00  0.00    -0.356 OA
BRANCH  16  17
ATOM     17  C   LIG    1       22.351 -18.910   5.063  0.00  0.00    +0.203 C 
BRANCH  17  18
ATOM     18  C   LIG    1       22.004 -20.342   4.651  0.00  0.00    +0.260 C 
BRANCH  18  19
ATOM     19  O   LIG    1       23.174 -21.155   4.448  0.00  0.00    -0.461 OA
BRANCH  19  20
ATOM     20  C   LIG    1       24.037 -21.250   5.495  0.00  0.00    +0.324 C 
ATOM     21  O   LIG    1       23.713 -21.572   6.633  0.00  0.00    -0.249 OA
BRANCH  20  22
ATOM     22  C   LIG    1       25.506 -21.093   5.031  0.00  0.00    +0.163 C 
BRANCH  22  24
ATOM     23  C   LIG    1       27.636 -19.736   5.501  0.00  0.00    +0.009 C 
ATOM     24  C   LIG    1       26.436 -20.478   6.107  0.00  0.00    +0.011 C 
ATOM     25  C   LIG    1       26.974 -21.553   7.061  0.00  0.00    +0.009 C 
ENDBRANCH  22  24
BRANCH  22  26
ATOM     26  N   LIG    1       25.508 -20.277   3.791  0.00  0.00    -0.318 NA
ATOM     27  H   LIG    1       24.906 -19.463   3.936  0.00  0.00    +0.119 HD
ATOM     28  H   LIG    1       26.449 -19.909   3.644  0.00  0.00    +0.119 HD
ENDBRANCH  22  26
ENDBRANCH  20  22
ENDBRANCH  19  20
ENDBRANCH  18  19
ENDBRANCH  17  18
ENDBRANCH  16  17
ENDBRANCH   1  16
TORSDOF 10
ENDMDL
MODEL 2
REMARK VINA RESULT:      -4.6      1.943      7.112
REMARK  Name = *****
REMARK                            x       y       z     vdW  Elec       q    Type
REMARK                         _______ _______ _______ _____ _____    ______ ____
ROOT
ATOM      1  C   LIG    1       26.473 -18.140   3.322  0.00  0.00    +0.287 C 
ENDROOT
BRANCH   1   2
ATOM      2  N   LIG    1       25.836 -19.064   4.234  0.00  0.00    -0.291 N 
ATOM      3  C   LIG    1       24.496 -19.212   4.447  0.00  0.00    +0.171 A 
ATOM      4  N   LIG    1       23.495 -18.507   3.873  0.00  0.00    -0.196 NA
ATOM      5  C   LIG    1       22.310 -18.867   4.278  0.00  0.00    +0.195 C 
ATOM      6  N   LIG    1       22.081 -19.891   5.182  0.00  0.00    -0.293 N 
ATOM      7  H   LIG    1       21.138 -20.159   5.410  0.00  0.00    +0.172 HD
ATOM      8  C   LIG    1       23.076 -20.652   5.783  0.00  0.00    +0.280 C 
ATOM      9  O   LIG    1       22.812 -21.568   6.561  0.00  0.00    -0.265 OA
ATOM     10  C   LIG    1       24.397 -20.238   5.372  0.00  0.00    +0.172 A 
ATOM     11  N   LIG    1       25.639 -20.663   5.774  0.00  0.00    -0.229 NA
ATOM     12  C   LIG    1       26.481 -19.931   5.080  0.00  0.00    +0.203 A 
BRANCH   5  13
ATOM     13  N   LIG    1       21.210 -18.228   3.808  0.00  0.00    -0.329 N 
ATOM     14  H   LIG    1       20.739 -17.613   4.459  0.00  0.00    +0.145 HD
ATOM     15  H   LIG    1       21.394 -17.778   2.916  0.00  0.00    +0.145 HD
ENDBRANCH   5  13
ENDBRANCH   1   2
BRANCH   1  16
ATOM     16  O   LIG    1       27.475 -17.430   4.044  0.00  0.00    -0.356 OA
BRANCH  16  17
ATOM     17  C   LIG    1       27.411 -16.023   3.806  0.00  0.00    +0.203 C 
BRANCH  17  18
ATOM     18  C   LIG    1       26.215 -15.723   2.901  0.00  0.00    +0.260 C 
BRANCH  18  19
ATOM     19  O   LIG    1       26.393 -14.517   2.135  0.00  0.00    -0.461 OA
BRANCH  19  20
ATOM     20  C   LIG    1       26.589 -13.372   2.841  0.00  0.00    +0.324 C 
ATOM     21  O   LIG    1       27.690 -12.935   3.159  0.00  0.00    -0.249 OA
BRANCH  20  22
ATOM     22  C   LIG    1       25.267 -12.588   3.023  0.00  0.00    +0.163 C 
BRANCH  22  24
ATOM     23  C   LIG    1       23.688 -14.119   4.351  0.00  0.00    +0.009 C 
ATOM     24  C   LIG    1       24.565 -12.859   4.379  0.00  0.00    +0.011 C 
ATOM     25  C   LIG    1       23.683 -11.676   4.798  0.00  0.00    +0.009 C 
ENDBRANCH  22  24
BRANCH  22  26
ATOM     26  N   LIG    1       24.377 -12.920   1.883  0.00  0.00    -0.318 NA
ATOM     27  H   LIG    1       23.439 -12.569   2.090  0.00  0.00    +0.119 HD
ATOM     28  H   LIG    1       24.695 -12.408   1.060  0.00  0.00    +0.119 HD
ENDBRANCH  22  26
ENDBRANCH  20  22
ENDBRANCH  19  20
ENDBRANCH  18  19
ENDBRANCH  17  18
ENDBRANCH  16  17
ENDBRANCH   1  16
TORSDOF 10
ENDMDL
MODEL 3
REMARK VINA RESULT:      -4.5      1.300      2.812
REMARK  Name = *****
REMARK                            x       y       z     vdW  Elec       q    Type
REMARK                         _______ _______ _______ _____ _____    ______ ____
ROOT
ATOM      1  C   LIG    1       22.969 -14.951   3.872  0.00  0.00    +0.287 C 
ENDROOT
BRANCH   1   2
ATOM      2  N   LIG    1       24.170 -14.161   4.024  0.00  0.00    -0.291 N 
ATOM      3  C   LIG    1       25.458 -14.610   3.971  0.00  0.00    +0.171 A 
ATOM      4  N   LIG    1       25.872 -15.886   3.797  0.00  0.00    -0.196 NA
ATOM      5  C   LIG    1       27.169 -16.014   3.797  0.00  0.00    +0.195 C 
ATOM      6  N   LIG    1       28.049 -14.953   3.929  0.00  0.00    -0.293 N 
ATOM      7  H   LIG    1       29.041 -15.112   3.863  0.00  0.00    +0.172 HD
ATOM      8  C   LIG    1       27.670 -13.627   4.093  0.00  0.00    +0.280 C 
ATOM      9  O   LIG    1       28.498 -12.721   4.179  0.00  0.00    -0.265 OA
ATOM     10  C   LIG    1       26.234 -13.475   4.133  0.00  0.00    +0.172 A 
ATOM     11  N   LIG    1       25.453 -12.368   4.351  0.00  0.00    -0.229 NA
ATOM     12  C   LIG    1       24.219 -12.816   4.290  0.00  0.00    +0.203 A 
BRANCH   5  13
ATOM     13  N   LIG    1       27.728 -17.242   3.661  0.00  0.00    -0.329 N 
ATOM     14  H   LIG    1       27.276 -17.997   4.160  0.00  0.00    +0.145 HD
ATOM     15  H   LIG    1       27.894 -17.469   2.684  0.00  0.00    +0.145 HD
ENDBRANCH   5  13
ENDBRANCH   1   2
BRANCH   1  16
ATOM     16  O   LIG    1       23.240 -16.261   4.361  0.00  0.00    -0.356 OA
BRANCH  16  17
ATOM     17  C   LIG    1       22.052 -16.927   4.797  0.00  0.00    +0.203 C 
BRANCH  17  18
ATOM     18  C   LIG    1       22.058 -18.360   4.261  0.00  0.00    +0.260 C 
BRANCH  18  19
ATOM     19  O   LIG    1       23.387 -18.899   4.146  0.00  0.00    -0.461 OA
BRANCH  19  20
ATOM     20  C   LIG    1       23.555 -20.190   4.539  0.00  0.00    +0.324 C 
ATOM     21  O   LIG    1       22.637 -20.983   4.724  0.00  0.00    -0.249 OA
BRANCH  20  22
ATOM     22  C   LIG    1       25.050 -20.591   4.536  0.00  0.00    +0.163 C 
BRANCH  22  24
ATOM     23  C   LIG    1       24.598 -20.710   7.062  0.00  0.00    +0.009 C 
ATOM     24  C   LIG    1       25.582 -21.023   5.926  0.00  0.00    +0.011 C 
ATOM     25  C   LIG    1       26.916 -20.338   6.252  0.00  0.00    +0.009 C 
ENDBRANCH  22  24
BRANCH  22  26
ATOM     26  N   LIG    1       25.828 -19.448   3.996  0.00  0.00    -0.318 NA
ATOM     27  H   LIG    1       25.706 -19.421   2.981  0.00  0.00    +0.119 HD
ATOM     28  H   LIG    1       25.425 -18.581   4.352  0.00  0.00    +0.119 HD
ENDBRANCH  22  26
ENDBRANCH  20  22
ENDBRANCH  19  20
ENDBRANCH  18  19
ENDBRANCH  17  18
ENDBRANCH  16  17
ENDBRANCH   1  16
TORSDOF 10
ENDMDL
MODEL 4
REMARK VINA RESULT:      -4.3      2.111      6.286
REMARK  Name = *****
REMARK                            x       y       z     vdW  Elec       q    Type
REMARK                         _______ _______ _______ _____ _____    ______ ____
ROOT
ATOM      1  C   LIG    1       21.872 -19.208   4.491  0.00  0.00    +0.287 C 
ENDROOT
BRANCH   1   2
ATOM      2  N   LIG    1       22.936 -19.982   5.091  0.00  0.00    -0.291 N 
ATOM      3  C   LIG    1       24.278 -19.779   4.948  0.00  0.00    +0.171 A 
ATOM      4  N   LIG    1       24.885 -18.834   4.194  0.00  0.00    -0.196 NA
ATOM      5  C   LIG    1       26.186 -18.886   4.248  0.00  0.00    +0.195 C 
ATOM      6  N   LIG    1       26.891 -19.795   5.020  0.00  0.00    -0.293 N 
ATOM      7  H   LIG    1       27.895 -19.746   5.063  0.00  0.00    +0.172 HD
ATOM      8  C   LIG    1       26.310 -20.770   5.821  0.00  0.00    +0.280 C 
ATOM      9  O   LIG    1       26.987 -21.535   6.507  0.00  0.00    -0.265 OA
ATOM     10  C   LIG    1       24.868 -20.747   5.742  0.00  0.00    +0.172 A 
ATOM     11  N   LIG    1       23.923 -21.571   6.302  0.00  0.00    -0.229 NA
ATOM     12  C   LIG    1       22.774 -21.091   5.883  0.00  0.00    +0.203 A 
BRANCH   5  13
ATOM     13  N   LIG    1       26.930 -18.017   3.519  0.00  0.00    -0.329 N 
ATOM     14  H   LIG    1       26.428 -17.252   3.089  0.00  0.00    +0.145 HD
ATOM     15  H   LIG    1       27.746 -17.703   4.036  0.00  0.00    +0.145 HD
ENDBRANCH   5  13
ENDBRANCH   1   2
BRANCH   1  16
ATOM     16  O   LIG    1       21.955 -17.880   4.999  0.00  0.00    -0.356 OA
BRANCH  16  17
ATOM     17  C   LIG    1       22.129 -16.918   3.956  0.00  0.00    +0.203 C 
BRANCH  17  18
ATOM     18  C   LIG    1       22.826 -15.682   4.528  0.00  0.00    +0.260 C 
BRANCH  18  19
ATOM     19  O   LIG    1       24.204 -15.590   4.123  0.00  0.00    -0.461 OA
BRANCH  19  20
ATOM     20  C   LIG    1       24.627 -14.376   3.679  0.00  0.00    +0.324 C 
ATOM     21  O   LIG    1       23.940 -13.360   3.679  0.00  0.00    -0.249 OA
BRANCH  20  22
ATOM     22  C   LIG    1       26.141 -14.391   3.355  0.00  0.00    +0.163 C 
BRANCH  22  24
ATOM     23  C   LIG    1       28.445 -13.337   3.776  0.00  0.00    +0.009 C 
ATOM     24  C   LIG    1       26.963 -13.364   4.174  0.00  0.00    +0.011 C 
ATOM     25  C   LIG    1       26.881 -13.654   5.679  0.00  0.00    +0.009 C 
ENDBRANCH  22  24
BRANCH  22  26
ATOM     26  N   LIG    1       26.299 -14.164   1.897  0.00  0.00    -0.318 NA
ATOM     27  H   LIG    1       27.249 -13.827   1.721  0.00  0.00    +0.119 HD
ATOM     28  H   LIG    1       26.224 -15.061   1.416  0.00  0.00    +0.119 HD
ENDBRANCH  22  26
ENDBRANCH  20  22
ENDBRANCH  19  20
ENDBRANCH  18  19
ENDBRANCH  17  18
ENDBRANCH  16  17
ENDBRANCH   1  16
TORSDOF 10
ENDMDL
MODEL 5
REMARK VINA RESULT:      -4.0      1.905      3.623
REMARK  Name = *****
REMARK                            x       y       z     vdW  Elec       q    Type
REMARK                         _______ _______ _______ _____ _____    ______ ____
ROOT
ATOM      1  C   LIG    1       27.956 -15.858   4.406  0.00  0.00    +0.287 C 
ENDROOT
BRANCH   1   2
ATOM      2  N   LIG    1       27.321 -14.724   3.771  0.00  0.00    -0.291 N 
ATOM      3  C   LIG    1       25.984 -14.456   3.720  0.00  0.00    +0.171 A 
ATOM      4  N   LIG    1       24.980 -15.210   4.225  0.00  0.00    -0.196 NA
ATOM      5  C   LIG    1       23.797 -14.702   4.017  0.00  0.00    +0.195 C 
ATOM      6  N   LIG    1       23.577 -13.497   3.373  0.00  0.00    -0.293 N 
ATOM      7  H   LIG    1       22.642 -13.131   3.296  0.00  0.00    +0.172 HD
ATOM      8  C   LIG    1       24.576 -12.682   2.855  0.00  0.00    +0.280 C 
ATOM      9  O   LIG    1       24.323 -11.607   2.315  0.00  0.00    -0.265 OA
ATOM     10  C   LIG    1       25.890 -13.251   3.045  0.00  0.00    +0.172 A 
ATOM     11  N   LIG    1       27.125 -12.822   2.626  0.00  0.00    -0.229 NA
ATOM     12  C   LIG    1       27.961 -13.734   3.069  0.00  0.00    +0.203 A 
BRANCH   5  13
ATOM     13  N   LIG    1       22.692 -15.364   4.443  0.00  0.00    -0.329 N 
ATOM     14  H   LIG    1       22.834 -16.043   5.178  0.00  0.00    +0.145 HD
ATOM     15  H   LIG    1       21.932 -14.723   4.650  0.00  0.00    +0.145 HD
ENDBRANCH   5  13
ENDBRANCH   1   2
BRANCH   1  16
ATOM     16  O   LIG    1       27.295 -17.038   3.958  0.00  0.00    -0.356 OA
BRANCH  16  17
ATOM     17  C   LIG    1       27.793 -18.210   4.607  0.00  0.00    +0.203 C 
BRANCH  17  18
ATOM     18  C   LIG    1       26.752 -19.325   4.490  0.00  0.00    +0.260 C 
BRANCH  18  19
ATOM     19  O   LIG    1       26.606 -20.071   5.712  0.00  0.00    -0.461 OA
BRANCH  19  20
ATOM     20  C   LIG    1       25.443 -20.759   5.869  0.00  0.00    +0.324 C 
ATOM     21  O   LIG    1       25.176 -21.454   6.843  0.00  0.00    -0.249 OA
BRANCH  20  22
ATOM     22  C   LIG    1       24.423 -20.403   4.760  0.00  0.00    +0.163 C 
BRANCH  22  24
ATOM     23  C   LIG    1       22.009 -21.150   5.223  0.00  0.00    +0.009 C 
ATOM     24  C   LIG    1       23.027 -20.004   5.304  0.00  0.00    +0.011 C 
ATOM     25  C   LIG    1       22.452 -18.803   4.540  0.00  0.00    +0.009 C 
ENDBRANCH  22  24
BRANCH  22  26
ATOM     26  N   LIG    1       24.328 -21.560   3.837  0.00  0.00    -0.318 NA
ATOM     27  H   LIG    1       23.715 -22.263   4.258  0.00  0.00    +0.119 HD
ATOM     28  H   LIG    1       23.863 -21.258   2.980  0.00  0.00    +0.119 HD
ENDBRANCH  22  26
ENDBRANCH  20  22
ENDBRANCH  19  20
ENDBRANCH  18  19
ENDBRANCH  17  18
ENDBRANCH  16  17
ENDBRANCH   1  16
TORSDOF 10
ENDMDL
MODEL 6
REMARK VINA RESULT:      -3.9      1.660      3.442
REMARK  Name = *****
REMARK                            x       y       z     vdW  Elec       q    Type
REMARK                         _______ _______ _______ _____ _____    ______ ____
ROOT
ATOM      1  C   LIG    1       26.366 -17.848   3.271  0.00  0.00    +0.287 C 
ENDROOT
BRANCH   1   2
ATOM      2  N   LIG    1       25.597 -16.657   3.557  0.00  0.00    -0.291 N 
ATOM      3  C   LIG    1       26.062 -15.374   3.606  0.00  0.00    +0.171 A 
ATOM      4  N   LIG    1       27.338 -14.961   3.427  0.00  0.00    -0.196 NA
ATOM      5  C   LIG    1       27.484 -13.670   3.539  0.00  0.00    +0.195 C 
ATOM      6  N   LIG    1       26.441 -12.794   3.786  0.00  0.00    -0.293 N 
ATOM      7  H   LIG    1       26.610 -11.802   3.804  0.00  0.00    +0.172 HD
ATOM      8  C   LIG    1       25.115 -13.171   3.959  0.00  0.00    +0.280 C 
ATOM      9  O   LIG    1       24.224 -12.345   4.150  0.00  0.00    -0.265 OA
ATOM     10  C   LIG    1       24.944 -14.603   3.874  0.00  0.00    +0.172 A 
ATOM     11  N   LIG    1       23.834 -15.390   4.059  0.00  0.00    -0.229 NA
ATOM     12  C   LIG    1       24.262 -16.618   3.871  0.00  0.00    +0.203 A 
BRANCH   5  13
ATOM     13  N   LIG    1       28.714 -13.114   3.413  0.00  0.00    -0.329 N 
ATOM     14  H   LIG    1       28.790 -12.136   3.660  0.00  0.00    +0.145 HD
ATOM     15  H   LIG    1       29.427 -13.683   3.862  0.00  0.00    +0.145 HD
ENDBRANCH   5  13
ENDBRANCH   1   2
BRANCH   1  16
ATOM     16  O   LIG    1       25.980 -18.854   4.204  0.00  0.00    -0.356 OA
BRANCH  16  17
ATOM     17  C   LIG    1       27.110 -19.500   4.792  0.00  0.00    +0.203 C 
BRANCH  17  18
ATOM     18  C   LIG    1       26.665 -20.227   6.063  0.00  0.00    +0.260 C 
BRANCH  18  19
ATOM     19  O   LIG    1       25.858 -21.385   5.780  0.00  0.00    -0.461 OA
BRANCH  19  20
ATOM     20  C   LIG    1       24.522 -21.264   6.004  0.00  0.00    +0.324 C 
ATOM     21  O   LIG    1       23.969 -21.553   7.060  0.00  0.00    -0.249 OA
BRANCH  20  22
ATOM     22  C   LIG    1       23.817 -20.538   4.833  0.00  0.00    +0.163 C 
BRANCH  22  24
ATOM     23  C   LIG    1       21.381 -21.351   4.761  0.00  0.00    +0.009 C 
ATOM     24  C   LIG    1       22.331 -20.199   5.116  0.00  0.00    +0.011 C 
ATOM     25  C   LIG    1       21.883 -18.957   4.334  0.00  0.00    +0.009 C 
ENDBRANCH  22  24
BRANCH  22  26
ATOM     26  N   LIG    1       23.952 -21.385   3.622  0.00  0.00    -0.318 NA
ATOM     27  H   LIG    1       23.032 -21.479   3.187  0.00  0.00    +0.119 HD
ATOM     28  H   LIG    1       24.536 -20.895   2.944  0.00  0.00    +0.119 HD
ENDBRANCH  22  26
ENDBRANCH  20  22
ENDBRANCH  19  20
ENDBRANCH  18  19
ENDBRANCH  17  18
ENDBRANCH  16  17
ENDBRANCH   1  16
TORSDOF 10
ENDMDL
MODEL 7
REMARK VINA RESULT:      -3.6      2.067      6.655
REMARK  Name = *****
REMARK                            x       y       z     vdW  Elec       q    Type
REMARK                         _______ _______ _______ _____ _____    ______ ____
ROOT
ATOM      1  C   LIG    1       21.886 -19.080   4.388  0.00  0.00    +0.287 C 
ENDROOT
BRANCH   1   2
ATOM      2  N   LIG    1       22.920 -19.890   4.992  0.00  0.00    -0.291 N 
ATOM      3  C   LIG    1       24.269 -19.724   4.867  0.00  0.00    +0.171 A 
ATOM      4  N   LIG    1       24.912 -18.788   4.131  0.00  0.00    -0.196 NA
ATOM      5  C   LIG    1       26.210 -18.878   4.200  0.00  0.00    +0.195 C 
ATOM      6  N   LIG    1       26.880 -19.814   4.970  0.00  0.00    -0.293 N 
ATOM      7  H   LIG    1       27.884 -19.794   5.026  0.00  0.00    +0.172 HD
ATOM      8  C   LIG    1       26.262 -20.781   5.754  0.00  0.00    +0.280 C 
ATOM      9  O   LIG    1       26.908 -21.572   6.439  0.00  0.00    -0.265 OA
ATOM     10  C   LIG    1       24.822 -20.717   5.658  0.00  0.00    +0.172 A 
ATOM     11  N   LIG    1       23.848 -21.519   6.198  0.00  0.00    -0.229 NA
ATOM     12  C   LIG    1       22.718 -21.003   5.770  0.00  0.00    +0.203 A 
BRANCH   5  13
ATOM     13  N   LIG    1       26.987 -18.023   3.490  0.00  0.00    -0.329 N 
ATOM     14  H   LIG    1       27.809 -17.670   3.962  0.00  0.00    +0.145 HD
ATOM     15  H   LIG    1       27.199 -18.392   2.567  0.00  0.00    +0.145 HD
ENDBRANCH   5  13
ENDBRANCH   1   2
BRANCH   1  16
ATOM     16  O   LIG    1       21.906 -17.802   5.017  0.00  0.00    -0.356 OA
BRANCH  16  17
ATOM     17  C   LIG    1       22.180 -16.751   4.088  0.00  0.00    +0.203 C 
BRANCH  17  18
ATOM     18  C   LIG    1       22.913 -15.622   4.813  0.00  0.00    +0.260 C 
BRANCH  18  19
ATOM     19  O   LIG    1       23.557 -14.711   3.903  0.00  0.00    -0.461 OA
BRANCH  19  20
ATOM     20  C   LIG    1       24.916 -14.663   3.951  0.00  0.00    +0.324 C 
ATOM     21  O   LIG    1       25.656 -15.496   3.438  0.00  0.00    -0.249 OA
BRANCH  20  22
ATOM     22  C   LIG    1       25.412 -13.331   4.563  0.00  0.00    +0.163 C 
BRANCH  22  24
ATOM     23  C   LIG    1       23.635 -11.484   4.399  0.00  0.00    +0.009 C 
ATOM     24  C   LIG    1       24.920 -12.074   3.801  0.00  0.00    +0.011 C 
ATOM     25  C   LIG    1       24.657 -12.385   2.322  0.00  0.00    +0.009 C 
ENDBRANCH  22  24
BRANCH  22  26
ATOM     26  N   LIG    1       26.894 -13.378   4.618  0.00  0.00    -0.318 NA
ATOM     27  H   LIG    1       27.263 -13.107   3.703  0.00  0.00    +0.119 HD
ATOM     28  H   LIG    1       27.220 -12.667   5.275  0.00  0.00    +0.119 HD
ENDBRANCH  22  26
ENDBRANCH  20  22
ENDBRANCH  19  20
ENDBRANCH  18  19
ENDBRANCH  17  18
ENDBRANCH  16  17
ENDBRANCH   1  16
TORSDOF 10
ENDMDL
MODEL 8
REMARK VINA RESULT:      -3.4      1.923      7.337
REMARK  Name = *****
REMARK                            x       y       z     vdW  Elec       q    Type
REMARK                         _______ _______ _______ _____ _____    ______ ____
ROOT
ATOM      1  C   LIG    1       24.947 -17.551   3.301  0.00  0.00    +0.287 C 
ENDROOT
BRANCH   1   2
ATOM      2  N   LIG    1       24.125 -18.435   4.096  0.00  0.00    -0.291 N 
ATOM      3  C   LIG    1       24.556 -19.427   4.929  0.00  0.00    +0.171 A 
ATOM      4  N   LIG    1       25.835 -19.804   5.155  0.00  0.00    -0.196 NA
ATOM      5  C   LIG    1       25.941 -20.791   6.000  0.00  0.00    +0.195 C 
ATOM      6  N   LIG    1       24.862 -21.384   6.634  0.00  0.00    -0.293 N 
ATOM      7  H   LIG    1       25.016 -22.104   7.320  0.00  0.00    +0.172 HD
ATOM      8  C   LIG    1       23.535 -21.019   6.445  0.00  0.00    +0.280 C 
ATOM      9  O   LIG    1       22.618 -21.564   7.057  0.00  0.00    -0.265 OA
ATOM     10  C   LIG    1       23.400 -19.950   5.483  0.00  0.00    +0.172 A 
ATOM     11  N   LIG    1       22.283 -19.351   4.955  0.00  0.00    -0.229 NA
ATOM     12  C   LIG    1       22.753 -18.453   4.119  0.00  0.00    +0.203 A 
BRANCH   5  13
ATOM     13  N   LIG    1       27.163 -21.295   6.303  0.00  0.00    -0.329 N 
ATOM     14  H   LIG    1       27.282 -21.642   7.245  0.00  0.00    +0.145 HD
ATOM     15  H   LIG    1       27.474 -21.963   5.602  0.00  0.00    +0.145 HD
ENDBRANCH   5  13
ENDBRANCH   1   2
BRANCH   1  16
ATOM     16  O   LIG    1       26.275 -18.065   3.304  0.00  0.00    -0.356 OA
BRANCH  16  17
ATOM     17  C   LIG    1       27.247 -17.039   3.511  0.00  0.00    +0.203 C 
BRANCH  17  18
ATOM     18  C   LIG    1       26.615 -15.681   3.198  0.00  0.00    +0.260 C 
BRANCH  18  19
ATOM     19  O   LIG    1       27.348 -14.586   3.777  0.00  0.00    -0.461 OA
BRANCH  19  20
ATOM     20  C   LIG    1       26.618 -13.649   4.440  0.00  0.00    +0.324 C 
ATOM     21  O   LIG    1       26.676 -13.455   5.650  0.00  0.00    -0.249 OA
BRANCH  20  22
ATOM     22  C   LIG    1       25.852 -12.732   3.457  0.00  0.00    +0.163 C 
BRANCH  22  24
ATOM     23  C   LIG    1       23.821 -11.797   4.721  0.00  0.00    +0.009 C 
ATOM     24  C   LIG    1       24.314 -12.769   3.640  0.00  0.00    +0.011 C 
ATOM     25  C   LIG    1       23.829 -14.177   4.011  0.00  0.00    +0.009 C 
ENDBRANCH  22  24
BRANCH  22  26
ATOM     26  N   LIG    1       26.237 -13.118   2.077  0.00  0.00    -0.318 NA
ATOM     27  H   LIG    1       25.391 -13.376   1.563  0.00  0.00    +0.119 HD
ATOM     28  H   LIG    1       26.616 -12.298   1.601  0.00  0.00    +0.119 HD
ENDBRANCH  22  26
ENDBRANCH  20  22
ENDBRANCH  19  20
ENDBRANCH  18  19
ENDBRANCH  17  18
ENDBRANCH  16  17
ENDBRANCH   1  16
TORSDOF 10
ENDMDL
MODEL 9
REMARK VINA RESULT:      -3.2      2.230      6.793
REMARK  Name = *****
REMARK                            x       y       z     vdW  Elec       q    Type
REMARK                         _______ _______ _______ _____ _____    ______ ____
ROOT
ATOM      1  C   LIG    1       26.484 -18.578   3.350  0.00  0.00    +0.287 C 
ENDROOT
BRANCH   1   2
ATOM      2  N   LIG    1       25.848 -19.375   4.375  0.00  0.00    -0.291 N 
ATOM      3  C   LIG    1       24.508 -19.494   4.606  0.00  0.00    +0.171 A 
ATOM      4  N   LIG    1       23.506 -18.870   3.945  0.00  0.00    -0.196 NA
ATOM      5  C   LIG    1       22.321 -19.175   4.393  0.00  0.00    +0.195 C 
ATOM      6  N   LIG    1       22.093 -20.072   5.423  0.00  0.00    -0.293 N 
ATOM      7  H   LIG    1       21.150 -20.308   5.685  0.00  0.00    +0.172 HD
ATOM      8  C   LIG    1       23.088 -20.748   6.119  0.00  0.00    +0.280 C 
ATOM      9  O   LIG    1       22.825 -21.554   7.009  0.00  0.00    -0.265 OA
ATOM     10  C   LIG    1       24.409 -20.390   5.656  0.00  0.00    +0.172 A 
ATOM     11  N   LIG    1       25.651 -20.759   6.111  0.00  0.00    -0.229 NA
ATOM     12  C   LIG    1       26.493 -20.124   5.327  0.00  0.00    +0.203 A 
BRANCH   5  13
ATOM     13  N   LIG    1       21.221 -18.602   3.845  0.00  0.00    -0.329 N 
ATOM     14  H   LIG    1       21.241 -17.595   3.752  0.00  0.00    +0.145 HD
ATOM     15  H   LIG    1       20.952 -19.065   2.981  0.00  0.00    +0.145 HD
ENDBRANCH   5  13
ENDBRANCH   1   2
BRANCH   1  16
ATOM     16  O   LIG    1       27.439 -17.731   3.982  0.00  0.00    -0.356 OA
BRANCH  16  17
ATOM     17  C   LIG    1       27.230 -16.354   3.660  0.00  0.00    +0.203 C 
BRANCH  17  18
ATOM     18  C   LIG    1       25.781 -16.161   3.210  0.00  0.00    +0.260 C 
BRANCH  18  19
ATOM     19  O   LIG    1       25.482 -14.789   2.893  0.00  0.00    -0.461 OA
BRANCH  19  20
ATOM     20  C   LIG    1       24.656 -14.133   3.752  0.00  0.00    +0.324 C 
ATOM     21  O   LIG    1       23.715 -14.653   4.341  0.00  0.00    -0.249 OA
BRANCH  20  22
ATOM     22  C   LIG    1       25.168 -12.701   4.043  0.00  0.00    +0.163 C 
BRANCH  22  24
ATOM     23  C   LIG    1       27.694 -12.973   3.663  0.00  0.00    +0.009 C 
ATOM     24  C   LIG    1       26.583 -12.662   4.675  0.00  0.00    +0.011 C 
ATOM     25  C   LIG    1       26.704 -13.659   5.835  0.00  0.00    +0.009 C 
ENDBRANCH  22  24
BRANCH  22  26
ATOM     26  N   LIG    1       24.173 -12.028   4.913  0.00  0.00    -0.318 NA
ATOM     27  H   LIG    1       24.088 -12.561   5.782  0.00  0.00    +0.119 HD
ATOM     28  H   LIG    1       24.537 -11.112   5.179  0.00  0.00    +0.119 HD
ENDBRANCH  22  26
ENDBRANCH  20  22
ENDBRANCH  19  20
ENDBRANCH  18  19
ENDBRANCH  17  18
ENDBRANCH  16  17
ENDBRANCH   1  16
TORSDOF 10
ENDMDL
