MODEL 1
REMARK VINA RESULT:      -6.4      0.000      0.000
REMARK  Name = *****
REMARK                            x       y       z     vdW  Elec       q    Type
REMARK                         _______ _______ _______ _____ _____    ______ ____
ROOT
ATOM      1  C   LIG    1       25.242 -26.087   6.615  0.00  0.00    +0.160 A 
ATOM      2  C   LIG    1       25.065 -26.452   5.270  0.00  0.00    +0.164 A 
ATOM      3  F   LIG    1       24.836 -25.534   4.316  0.00  0.00    -0.202 F 
ATOM      4  C   LIG    1       25.134 -27.776   4.882  0.00  0.00    +0.057 A 
ATOM      5  C   LIG    1       25.337 -28.737   5.863  0.00  0.00    +0.068 A 
ATOM      6  C   LIG    1       25.409 -30.159   5.482  0.00  0.00    +0.205 A 
ATOM      7  C   LIG    1       25.607 -31.166   6.540  0.00  0.00    +0.122 A 
ATOM      8  C   LIG    1       25.712 -30.708   7.797  0.00  0.00    +0.106 A 
ATOM      9  N   LIG    1       25.617 -29.385   8.184  0.00  0.00    -0.328 N 
ATOM     10  O   LIG    1       25.312 -30.509   4.306  0.00  0.00    -0.286 OA
ATOM     11  C   LIG    1       25.458 -28.357   7.204  0.00  0.00    +0.147 A 
ATOM     12  N   LIG    1       25.418 -27.044   7.565  0.00  0.00    -0.211 NA
ENDROOT
BRANCH   1  17
ATOM     13  N   LIG    1       23.981 -21.467   6.264  0.00  0.00    -0.092 NA
ATOM     14  C   LIG    1       24.610 -22.538   6.645  0.00  0.00    +0.081 C 
ATOM     15  C   LIG    1       26.027 -22.511   7.160  0.00  0.00    +0.069 C 
ATOM     16  C   LIG    1       26.436 -23.958   6.844  0.00  0.00    +0.117 C 
ATOM     17  N   LIG    1       25.213 -24.752   7.015  0.00  0.00    -0.307 N 
ATOM     18  C   LIG    1       24.048 -23.942   6.639  0.00  0.00    +0.161 C 
BRANCH  13  20
ATOM     19  C   LIG    1       22.178 -20.795   4.993  0.00  0.00    +0.313 C 
ATOM     20  O   LIG    1       22.682 -21.812   5.850  0.00  0.00    -0.397 OA
ENDBRANCH  13  20
BRANCH  15  21
ATOM     21  C   LIG    1       26.002 -22.174   8.654  0.00  0.00    +0.088 C 
BRANCH  21  22
ATOM     22  N   LIG    1       25.947 -20.735   8.920  0.00  0.00    -0.329 NA
ATOM     23  H   LIG    1       25.785 -20.592   9.918  0.00  0.00    +0.118 HD
ATOM     24  H   LIG    1       26.863 -20.319   8.744  0.00  0.00    +0.118 HD
ENDBRANCH  21  22
ENDBRANCH  15  21
ENDBRANCH   1  17
BRANCH   9  25
ATOM     25  C   LIG    1       25.670 -29.030   9.614  0.00  0.00    +0.089 C 
ATOM     26  C   LIG    1       26.288 -29.978  10.615  0.00  0.00    +0.027 C 
ATOM     27  C   LIG    1       26.939 -28.657  10.348  0.00  0.00    +0.027 C 
ENDBRANCH   9  25
BRANCH   7  28
ATOM     28  C   LIG    1       25.665 -32.620   6.286  0.00  0.00    +0.342 C 
ATOM     29  O   LIG    1       24.940 -33.426   6.844  0.00  0.00    -0.245 OA
BRANCH  28  30
ATOM     30  O   LIG    1       26.583 -32.991   5.366  0.00  0.00    -0.477 OA
ATOM     31  H   LIG    1       26.202 -33.313   4.513  0.00  0.00    +0.295 HD
ENDBRANCH  28  30
ENDBRANCH   7  28
TORSDOF 7
ENDMDL
MODEL 2
REMARK VINA RESULT:      -6.3      1.619      2.464
REMARK  Name = *****
REMARK                            x       y       z     vdW  Elec       q    Type
REMARK                         _______ _______ _______ _____ _____    ______ ____
ROOT
ATOM      1  C   LIG    1       25.011 -26.321   6.548  0.00  0.00    +0.160 A 
ATOM      2  C   LIG    1       24.439 -27.123   5.546  0.00  0.00    +0.164 A 
ATOM      3  F   LIG    1       23.817 -26.584   4.485  0.00  0.00    -0.202 F 
ATOM      4  C   LIG    1       24.511 -28.500   5.617  0.00  0.00    +0.057 A 
ATOM      5  C   LIG    1       25.123 -29.069   6.725  0.00  0.00    +0.068 A 
ATOM      6  C   LIG    1       25.210 -30.537   6.832  0.00  0.00    +0.205 A 
ATOM      7  C   LIG    1       25.847 -31.122   8.026  0.00  0.00    +0.122 A 
ATOM      8  C   LIG    1       26.313 -30.263   8.944  0.00  0.00    +0.106 A 
ATOM      9  N   LIG    1       26.216 -28.886   8.883  0.00  0.00    -0.328 N 
ATOM     10  O   LIG    1       24.767 -31.268   5.947  0.00  0.00    -0.286 OA
ATOM     11  C   LIG    1       25.639 -28.254   7.738  0.00  0.00    +0.147 A 
ATOM     12  N   LIG    1       25.587 -26.897   7.638  0.00  0.00    -0.211 NA
ENDROOT
BRANCH   1  17
ATOM     13  N   LIG    1       25.854 -21.859   8.107  0.00  0.00    -0.092 NA
ATOM     14  C   LIG    1       25.358 -22.839   7.414  0.00  0.00    +0.081 C 
ATOM     15  C   LIG    1       24.012 -22.762   6.740  0.00  0.00    +0.069 C 
ATOM     16  C   LIG    1       23.685 -24.262   6.661  0.00  0.00    +0.117 C 
ATOM     17  N   LIG    1       24.979 -24.930   6.472  0.00  0.00    -0.307 N 
ATOM     18  C   LIG    1       26.025 -24.175   7.169  0.00  0.00    +0.161 C 
BRANCH  13  20
ATOM     19  C   LIG    1       28.109 -21.387   8.009  0.00  0.00    +0.313 C 
ATOM     20  O   LIG    1       27.120 -22.226   8.595  0.00  0.00    -0.397 OA
ENDBRANCH  13  20
BRANCH  15  21
ATOM     21  C   LIG    1       24.179 -22.080   5.379  0.00  0.00    +0.088 C 
BRANCH  21  22
ATOM     22  N   LIG    1       25.459 -21.383   5.236  0.00  0.00    -0.329 NA
ATOM     23  H   LIG    1       25.454 -20.559   5.838  0.00  0.00    +0.118 HD
ATOM     24  H   LIG    1       26.210 -21.968   5.604  0.00  0.00    +0.118 HD
ENDBRANCH  21  22
ENDBRANCH  15  21
ENDBRANCH   1  17
BRANCH   9  25
ATOM     25  C   LIG    1       26.701 -28.062  10.006  0.00  0.00    +0.089 C 
ATOM     26  C   LIG    1       26.136 -28.254  11.393  0.00  0.00    +0.027 C 
ATOM     27  C   LIG    1       27.571 -28.584  11.127  0.00  0.00    +0.027 C 
ENDBRANCH   9  25
BRANCH   7  28
ATOM     28  C   LIG    1       25.966 -32.576   8.260  0.00  0.00    +0.342 C 
ATOM     29  O   LIG    1       26.961 -33.099   8.732  0.00  0.00    -0.245 OA
BRANCH  28  30
ATOM     30  O   LIG    1       24.867 -33.289   7.923  0.00  0.00    -0.477 OA
ATOM     31  H   LIG    1       24.100 -32.743   7.625  0.00  0.00    +0.295 HD
ENDBRANCH  28  30
ENDBRANCH   7  28
TORSDOF 7
ENDMDL
MODEL 3
REMARK VINA RESULT:      -5.8      6.132      9.113
REMARK  Name = *****
REMARK                            x       y       z     vdW  Elec       q    Type
REMARK                         _______ _______ _______ _____ _____    ______ ____
ROOT
ATOM      1  C   LIG    1       28.889 -19.153   6.377  0.00  0.00    +0.160 A 
ATOM      2  C   LIG    1       28.579 -18.291   5.311  0.00  0.00    +0.164 A 
ATOM      3  F   LIG    1       29.363 -17.246   5.002  0.00  0.00    -0.202 F 
ATOM      4  C   LIG    1       27.457 -18.502   4.535  0.00  0.00    +0.057 A 
ATOM      5  C   LIG    1       26.620 -19.560   4.865  0.00  0.00    +0.068 A 
ATOM      6  C   LIG    1       25.410 -19.807   4.059  0.00  0.00    +0.205 A 
ATOM      7  C   LIG    1       24.526 -20.924   4.437  0.00  0.00    +0.122 A 
ATOM      8  C   LIG    1       24.892 -21.650   5.503  0.00  0.00    +0.106 A 
ATOM      9  N   LIG    1       26.002 -21.421   6.293  0.00  0.00    -0.328 N 
ATOM     10  O   LIG    1       25.138 -19.105   3.087  0.00  0.00    -0.286 OA
ATOM     11  C   LIG    1       26.918 -20.374   5.962  0.00  0.00    +0.147 A 
ATOM     12  N   LIG    1       28.046 -20.171   6.699  0.00  0.00    -0.211 NA
ENDROOT
BRANCH   1  17
ATOM     13  N   LIG    1       32.220 -20.445   9.584  0.00  0.00    -0.092 NA
ATOM     14  C   LIG    1       31.505 -19.700   8.795  0.00  0.00    +0.081 C 
ATOM     15  C   LIG    1       31.291 -18.228   9.036  0.00  0.00    +0.069 C 
ATOM     16  C   LIG    1       29.970 -18.038   8.274  0.00  0.00    +0.117 C 
ATOM     17  N   LIG    1       30.038 -18.975   7.145  0.00  0.00    -0.307 N 
ATOM     18  C   LIG    1       30.795 -20.166   7.543  0.00  0.00    +0.161 C 
BRANCH  13  20
ATOM     19  C   LIG    1       31.078 -22.447   9.533  0.00  0.00    +0.313 C 
ATOM     20  O   LIG    1       32.243 -21.761   9.090  0.00  0.00    -0.397 OA
ENDBRANCH  13  20
BRANCH  15  21
ATOM     21  C   LIG    1       32.475 -17.454   8.450  0.00  0.00    +0.088 C 
BRANCH  21  22
ATOM     22  N   LIG    1       32.579 -16.084   8.959  0.00  0.00    -0.329 NA
ATOM     23  H   LIG    1       33.564 -15.866   9.114  0.00  0.00    +0.118 HD
ATOM     24  H   LIG    1       32.278 -15.427   8.237  0.00  0.00    +0.118 HD
ENDBRANCH  21  22
ENDBRANCH  15  21
ENDBRANCH   1  17
BRANCH   9  25
ATOM     25  C   LIG    1       26.242 -22.251   7.489  0.00  0.00    +0.089 C 
ATOM     26  C   LIG    1       25.092 -22.656   8.380  0.00  0.00    +0.027 C 
ATOM     27  C   LIG    1       25.833 -23.702   7.609  0.00  0.00    +0.027 C 
ENDBRANCH   9  25
BRANCH   7  28
ATOM     28  C   LIG    1       23.272 -21.251   3.727  0.00  0.00    +0.342 C 
ATOM     29  O   LIG    1       22.165 -21.006   4.175  0.00  0.00    -0.245 OA
BRANCH  28  30
ATOM     30  O   LIG    1       23.449 -21.836   2.521  0.00  0.00    -0.477 OA
ATOM     31  H   LIG    1       23.974 -21.301   1.878  0.00  0.00    +0.295 HD
ENDBRANCH  28  30
ENDBRANCH   7  28
TORSDOF 7
ENDMDL
MODEL 4
REMARK VINA RESULT:      -5.6      4.369      6.067
REMARK  Name = *****
REMARK                            x       y       z     vdW  Elec       q    Type
REMARK                         _______ _______ _______ _____ _____    ______ ____
ROOT
ATOM      1  C   LIG    1       25.698 -30.039  10.308  0.00  0.00    +0.160 A 
ATOM      2  C   LIG    1       25.740 -31.440  10.412  0.00  0.00    +0.164 A 
ATOM      3  F   LIG    1       25.898 -32.053  11.596  0.00  0.00    -0.202 F 
ATOM      4  C   LIG    1       25.605 -32.235   9.291  0.00  0.00    +0.057 A 
ATOM      5  C   LIG    1       25.473 -31.614   8.057  0.00  0.00    +0.068 A 
ATOM      6  C   LIG    1       25.335 -32.436   6.840  0.00  0.00    +0.205 A 
ATOM      7  C   LIG    1       25.215 -31.757   5.538  0.00  0.00    +0.122 A 
ATOM      8  C   LIG    1       25.238 -30.416   5.551  0.00  0.00    +0.106 A 
ATOM      9  N   LIG    1       25.398 -29.623   6.672  0.00  0.00    -0.328 N 
ATOM     10  O   LIG    1       25.314 -33.664   6.901  0.00  0.00    -0.286 OA
ATOM     11  C   LIG    1       25.488 -30.218   7.969  0.00  0.00    +0.147 A 
ATOM     12  N   LIG    1       25.590 -29.447   9.088  0.00  0.00    -0.211 NA
ENDROOT
BRANCH   1  17
ATOM     13  N   LIG    1       24.068 -26.907  13.562  0.00  0.00    -0.092 NA
ATOM     14  C   LIG    1       24.894 -27.626  12.863  0.00  0.00    +0.081 C 
ATOM     15  C   LIG    1       26.328 -27.227  12.630  0.00  0.00    +0.069 C 
ATOM     16  C   LIG    1       26.596 -28.000  11.328  0.00  0.00    +0.117 C 
ATOM     17  N   LIG    1       25.794 -29.225  11.434  0.00  0.00    -0.307 N 
ATOM     18  C   LIG    1       24.569 -28.942  12.190  0.00  0.00    +0.161 C 
BRANCH  13  20
ATOM     19  C   LIG    1       21.804 -26.617  13.244  0.00  0.00    +0.313 C 
ATOM     20  O   LIG    1       22.817 -27.546  13.608  0.00  0.00    -0.397 OA
ENDBRANCH  13  20
BRANCH  15  21
ATOM     21  C   LIG    1       27.170 -27.689  13.823  0.00  0.00    +0.088 C 
BRANCH  21  22
ATOM     22  N   LIG    1       28.161 -26.698  14.249  0.00  0.00    -0.329 NA
ATOM     23  H   LIG    1       28.994 -26.796  13.667  0.00  0.00    +0.118 HD
ATOM     24  H   LIG    1       27.814 -25.759  14.049  0.00  0.00    +0.118 HD
ENDBRANCH  21  22
ENDBRANCH  15  21
ENDBRANCH   1  17
BRANCH   9  25
ATOM     25  C   LIG    1       25.487 -28.157   6.533  0.00  0.00    +0.089 C 
ATOM     26  C   LIG    1       25.457 -27.517   5.165  0.00  0.00    +0.027 C 
ATOM     27  C   LIG    1       24.331 -27.273   6.119  0.00  0.00    +0.027 C 
ENDBRANCH   9  25
BRANCH   7  28
ATOM     28  C   LIG    1       25.101 -32.471   4.250  0.00  0.00    +0.342 C 
ATOM     29  O   LIG    1       25.960 -32.432   3.385  0.00  0.00    -0.245 OA
BRANCH  28  30
ATOM     30  O   LIG    1       23.967 -33.191   4.108  0.00  0.00    -0.477 OA
ATOM     31  H   LIG    1       23.239 -32.721   3.634  0.00  0.00    +0.295 HD
ENDBRANCH  28  30
ENDBRANCH   7  28
TORSDOF 7
ENDMDL
MODEL 5
REMARK VINA RESULT:      -5.6      7.098      9.474
REMARK  Name = *****
REMARK                            x       y       z     vdW  Elec       q    Type
REMARK                         _______ _______ _______ _____ _____    ______ ____
ROOT
ATOM      1  C   LIG    1       27.656 -20.595   7.243  0.00  0.00    +0.160 A 
ATOM      2  C   LIG    1       26.820 -21.388   8.048  0.00  0.00    +0.164 A 
ATOM      3  F   LIG    1       27.285 -22.016   9.140  0.00  0.00    -0.202 F 
ATOM      4  C   LIG    1       25.481 -21.536   7.744  0.00  0.00    +0.057 A 
ATOM      5  C   LIG    1       24.995 -20.919   6.600  0.00  0.00    +0.068 A 
ATOM      6  C   LIG    1       23.571 -21.065   6.245  0.00  0.00    +0.205 A 
ATOM      7  C   LIG    1       23.079 -20.417   5.016  0.00  0.00    +0.122 A 
ATOM      8  C   LIG    1       23.976 -19.727   4.296  0.00  0.00    +0.106 A 
ATOM      9  N   LIG    1       25.320 -19.601   4.589  0.00  0.00    -0.328 N 
ATOM     10  O   LIG    1       22.800 -21.707   6.957  0.00  0.00    -0.286 OA
ATOM     11  C   LIG    1       25.855 -20.178   5.783  0.00  0.00    +0.147 A 
ATOM     12  N   LIG    1       27.167 -20.016   6.113  0.00  0.00    -0.211 NA
ENDROOT
BRANCH   1  17
ATOM     13  N   LIG    1       31.837 -21.715   9.322  0.00  0.00    -0.092 NA
ATOM     14  C   LIG    1       30.917 -21.024   8.717  0.00  0.00    +0.081 C 
ATOM     15  C   LIG    1       30.832 -19.522   8.810  0.00  0.00    +0.069 C 
ATOM     16  C   LIG    1       29.337 -19.336   8.506  0.00  0.00    +0.117 C 
ATOM     17  N   LIG    1       29.000 -20.405   7.558  0.00  0.00    -0.307 N 
ATOM     18  C   LIG    1       29.817 -21.589   7.846  0.00  0.00    +0.161 C 
BRANCH  13  20
ATOM     19  C   LIG    1       32.617 -23.481   8.063  0.00  0.00    +0.313 C 
ATOM     20  O   LIG    1       31.660 -23.079   9.034  0.00  0.00    -0.397 OA
ENDBRANCH  13  20
BRANCH  15  21
ATOM     21  C   LIG    1       31.770 -18.909   7.766  0.00  0.00    +0.088 C 
BRANCH  21  22
ATOM     22  N   LIG    1       32.261 -17.580   8.140  0.00  0.00    -0.329 NA
ATOM     23  H   LIG    1       33.277 -17.569   8.050  0.00  0.00    +0.118 HD
ATOM     24  H   LIG    1       31.933 -16.891   7.461  0.00  0.00    +0.118 HD
ENDBRANCH  21  22
ENDBRANCH  15  21
ENDBRANCH   1  17
BRANCH   9  25
ATOM     25  C   LIG    1       26.213 -18.878   3.664  0.00  0.00    +0.089 C 
ATOM     26  C   LIG    1       25.821 -17.521   3.129  0.00  0.00    +0.027 C 
ATOM     27  C   LIG    1       27.003 -17.644   4.039  0.00  0.00    +0.027 C 
ENDBRANCH   9  25
BRANCH   7  28
ATOM     28  C   LIG    1       21.683 -20.516   4.541  0.00  0.00    +0.342 C 
ATOM     29  O   LIG    1       21.076 -19.580   4.049  0.00  0.00    -0.245 OA
BRANCH  28  30
ATOM     30  O   LIG    1       21.131 -21.741   4.682  0.00  0.00    -0.477 OA
ATOM     31  H   LIG    1       20.436 -21.800   5.381  0.00  0.00    +0.295 HD
ENDBRANCH  28  30
ENDBRANCH   7  28
TORSDOF 7
ENDMDL
MODEL 6
REMARK VINA RESULT:      -5.6      6.156      9.189
REMARK  Name = *****
REMARK                            x       y       z     vdW  Elec       q    Type
REMARK                         _______ _______ _______ _____ _____    ______ ____
ROOT
ATOM      1  C   LIG    1       28.652 -19.834   6.933  0.00  0.00    +0.160 A 
ATOM      2  C   LIG    1       28.737 -18.851   5.932  0.00  0.00    +0.164 A 
ATOM      3  F   LIG    1       29.756 -17.979   5.888  0.00  0.00    -0.202 F 
ATOM      4  C   LIG    1       27.771 -18.760   4.948  0.00  0.00    +0.057 A 
ATOM      5  C   LIG    1       26.695 -19.635   5.002  0.00  0.00    +0.068 A 
ATOM      6  C   LIG    1       25.645 -19.558   3.970  0.00  0.00    +0.205 A 
ATOM      7  C   LIG    1       24.501 -20.484   4.055  0.00  0.00    +0.122 A 
ATOM      8  C   LIG    1       24.497 -21.347   5.081  0.00  0.00    +0.106 A 
ATOM      9  N   LIG    1       25.452 -21.419   6.078  0.00  0.00    -0.328 N 
ATOM     10  O   LIG    1       25.715 -18.745   3.049  0.00  0.00    -0.286 OA
ATOM     11  C   LIG    1       26.603 -20.571   6.037  0.00  0.00    +0.147 A 
ATOM     12  N   LIG    1       27.579 -20.668   6.982  0.00  0.00    -0.211 NA
ENDROOT
BRANCH   1  17
ATOM     13  N   LIG    1       31.745 -18.217  10.231  0.00  0.00    -0.092 NA
ATOM     14  C   LIG    1       31.160 -19.016   9.390  0.00  0.00    +0.081 C 
ATOM     15  C   LIG    1       31.875 -20.164   8.723  0.00  0.00    +0.069 C 
ATOM     16  C   LIG    1       30.994 -20.314   7.472  0.00  0.00    +0.117 C 
ATOM     17  N   LIG    1       29.638 -19.962   7.909  0.00  0.00    -0.307 N 
ATOM     18  C   LIG    1       29.712 -18.937   8.956  0.00  0.00    +0.161 C 
BRANCH  13  20
ATOM     19  C   LIG    1       31.454 -16.410  11.632  0.00  0.00    +0.313 C 
ATOM     20  O   LIG    1       30.819 -17.263  10.688  0.00  0.00    -0.397 OA
ENDBRANCH  13  20
BRANCH  15  21
ATOM     21  C   LIG    1       31.851 -21.373   9.661  0.00  0.00    +0.088 C 
BRANCH  21  22
ATOM     22  N   LIG    1       31.861 -22.655   8.952  0.00  0.00    -0.329 NA
ATOM     23  H   LIG    1       31.657 -23.400   9.619  0.00  0.00    +0.118 HD
ATOM     24  H   LIG    1       31.087 -22.684   8.286  0.00  0.00    +0.118 HD
ENDBRANCH  21  22
ENDBRANCH  15  21
ENDBRANCH   1  17
BRANCH   9  25
ATOM     25  C   LIG    1       25.281 -22.365   7.197  0.00  0.00    +0.089 C 
ATOM     26  C   LIG    1       24.342 -23.541   7.065  0.00  0.00    +0.027 C 
ATOM     27  C   LIG    1       25.813 -23.781   7.197  0.00  0.00    +0.027 C 
ENDBRANCH   9  25
BRANCH   7  28
ATOM     28  C   LIG    1       23.374 -20.483   3.099  0.00  0.00    +0.342 C 
ATOM     29  O   LIG    1       22.592 -19.554   2.988  0.00  0.00    -0.245 OA
BRANCH  28  30
ATOM     30  O   LIG    1       23.285 -21.596   2.339  0.00  0.00    -0.477 OA
ATOM     31  H   LIG    1       23.486 -22.437   2.817  0.00  0.00    +0.295 HD
ENDBRANCH  28  30
ENDBRANCH   7  28
TORSDOF 7
ENDMDL
MODEL 7
REMARK VINA RESULT:      -5.5      6.204      9.401
REMARK  Name = *****
REMARK                            x       y       z     vdW  Elec       q    Type
REMARK                         _______ _______ _______ _____ _____    ______ ____
ROOT
ATOM      1  C   LIG    1       25.358 -29.102  11.638  0.00  0.00    +0.160 A 
ATOM      2  C   LIG    1       26.627 -28.583  11.332  0.00  0.00    +0.164 A 
ATOM      3  F   LIG    1       27.456 -29.209  10.482  0.00  0.00    -0.202 F 
ATOM      4  C   LIG    1       27.058 -27.396  11.892  0.00  0.00    +0.057 A 
ATOM      5  C   LIG    1       26.223 -26.756  12.797  0.00  0.00    +0.068 A 
ATOM      6  C   LIG    1       26.659 -25.491  13.417  0.00  0.00    +0.205 A 
ATOM      7  C   LIG    1       25.766 -24.836  14.390  0.00  0.00    +0.122 A 
ATOM      8  C   LIG    1       24.600 -25.447  14.646  0.00  0.00    +0.106 A 
ATOM      9  N   LIG    1       24.182 -26.647  14.103  0.00  0.00    -0.328 N 
ATOM     10  O   LIG    1       27.741 -24.981  13.130  0.00  0.00    -0.286 OA
ATOM     11  C   LIG    1       24.986 -27.317  13.129  0.00  0.00    +0.147 A 
ATOM     12  N   LIG    1       24.562 -28.472  12.545  0.00  0.00    -0.211 NA
ENDROOT
BRANCH   1  17
ATOM     13  N   LIG    1       21.996 -32.237  10.249  0.00  0.00    -0.092 NA
ATOM     14  C   LIG    1       23.161 -31.743  10.544  0.00  0.00    +0.081 C 
ATOM     15  C   LIG    1       24.319 -32.596  10.997  0.00  0.00    +0.069 C 
ATOM     16  C   LIG    1       25.122 -31.538  11.770  0.00  0.00    +0.117 C 
ATOM     17  N   LIG    1       24.893 -30.278  11.052  0.00  0.00    -0.307 N 
ATOM     18  C   LIG    1       23.542 -30.280  10.481  0.00  0.00    +0.161 C 
BRANCH  13  20
ATOM     19  C   LIG    1       19.941 -31.261  10.618  0.00  0.00    +0.313 C 
ATOM     20  O   LIG    1       21.137 -31.199   9.851  0.00  0.00    -0.397 OA
ENDBRANCH  13  20
BRANCH  15  21
ATOM     21  C   LIG    1       25.033 -33.155   9.763  0.00  0.00    +0.088 C 
BRANCH  21  22
ATOM     22  N   LIG    1       24.194 -33.158   8.562  0.00  0.00    -0.329 NA
ATOM     23  H   LIG    1       23.266 -33.501   8.811  0.00  0.00    +0.118 HD
ATOM     24  H   LIG    1       24.041 -32.198   8.250  0.00  0.00    +0.118 HD
ENDBRANCH  21  22
ENDBRANCH  15  21
ENDBRANCH   1  17
BRANCH   9  25
ATOM     25  C   LIG    1       22.906 -27.248  14.536  0.00  0.00    +0.089 C 
ATOM     26  C   LIG    1       21.798 -26.378  15.080  0.00  0.00    +0.027 C 
ATOM     27  C   LIG    1       21.602 -27.100  13.784  0.00  0.00    +0.027 C 
ENDBRANCH   9  25
BRANCH   7  28
ATOM     28  C   LIG    1       26.104 -23.584  15.098  0.00  0.00    +0.342 C 
ATOM     29  O   LIG    1       25.266 -22.795  15.499  0.00  0.00    -0.245 OA
BRANCH  28  30
ATOM     30  O   LIG    1       27.428 -23.387  15.282  0.00  0.00    -0.477 OA
ATOM     31  H   LIG    1       27.951 -24.213  15.425  0.00  0.00    +0.295 HD
ENDBRANCH  28  30
ENDBRANCH   7  28
TORSDOF 7
ENDMDL
MODEL 8
REMARK VINA RESULT:      -5.5      6.424      9.503
REMARK  Name = *****
REMARK                            x       y       z     vdW  Elec       q    Type
REMARK                         _______ _______ _______ _____ _____    ______ ____
ROOT
ATOM      1  C   LIG    1       24.376 -28.708  12.427  0.00  0.00    +0.160 A 
ATOM      2  C   LIG    1       24.512 -27.558  13.223  0.00  0.00    +0.164 A 
ATOM      3  F   LIG    1       25.700 -26.956  13.393  0.00  0.00    -0.202 F 
ATOM      4  C   LIG    1       23.415 -27.001  13.850  0.00  0.00    +0.057 A 
ATOM      5  C   LIG    1       22.187 -27.632  13.710  0.00  0.00    +0.068 A 
ATOM      6  C   LIG    1       20.998 -27.064  14.374  0.00  0.00    +0.205 A 
ATOM      7  C   LIG    1       19.707 -27.760  14.227  0.00  0.00    +0.122 A 
ATOM      8  C   LIG    1       19.704 -28.878  13.486  0.00  0.00    +0.106 A 
ATOM      9  N   LIG    1       20.808 -29.448  12.881  0.00  0.00    -0.328 N 
ATOM     10  O   LIG    1       21.071 -26.029  15.034  0.00  0.00    -0.286 OA
ATOM     11  C   LIG    1       22.083 -28.806  12.957  0.00  0.00    +0.147 A 
ATOM     12  N   LIG    1       23.169 -29.326  12.319  0.00  0.00    -0.211 NA
ENDROOT
BRANCH   1  17
ATOM     13  N   LIG    1       29.032 -29.662  11.742  0.00  0.00    -0.092 NA
ATOM     14  C   LIG    1       27.760 -29.541  11.505  0.00  0.00    +0.081 C 
ATOM     15  C   LIG    1       27.205 -29.320  10.121  0.00  0.00    +0.069 C 
ATOM     16  C   LIG    1       25.875 -28.644  10.489  0.00  0.00    +0.117 C 
ATOM     17  N   LIG    1       25.466 -29.260  11.758  0.00  0.00    -0.307 N 
ATOM     18  C   LIG    1       26.659 -29.602  12.540  0.00  0.00    +0.161 C 
BRANCH  13  20
ATOM     19  C   LIG    1       30.603 -29.653  13.428  0.00  0.00    +0.313 C 
ATOM     20  O   LIG    1       29.233 -29.870  13.117  0.00  0.00    -0.397 OA
ENDBRANCH  13  20
BRANCH  15  21
ATOM     21  C   LIG    1       27.054 -30.676   9.427  0.00  0.00    +0.088 C 
BRANCH  21  22
ATOM     22  N   LIG    1       26.287 -30.606   8.181  0.00  0.00    -0.329 NA
ATOM     23  H   LIG    1       26.765 -29.977   7.536  0.00  0.00    +0.118 HD
ATOM     24  H   LIG    1       26.304 -31.515   7.717  0.00  0.00    +0.118 HD
ENDBRANCH  21  22
ENDBRANCH  15  21
ENDBRANCH   1  17
BRANCH   9  25
ATOM     25  C   LIG    1       20.676 -30.728  12.160  0.00  0.00    +0.089 C 
ATOM     26  C   LIG    1       19.311 -31.259  11.790  0.00  0.00    +0.027 C 
ATOM     27  C   LIG    1       20.261 -30.845  10.710  0.00  0.00    +0.027 C 
ENDBRANCH   9  25
BRANCH   7  28
ATOM     28  C   LIG    1       18.456 -27.307  14.868  0.00  0.00    +0.342 C 
ATOM     29  O   LIG    1       17.721 -28.046  15.500  0.00  0.00    -0.245 OA
BRANCH  28  30
ATOM     30  O   LIG    1       18.193 -25.990  14.711  0.00  0.00    -0.477 OA
ATOM     31  H   LIG    1       18.994 -25.421  14.612  0.00  0.00    +0.295 HD
ENDBRANCH  28  30
ENDBRANCH   7  28
TORSDOF 7
ENDMDL
MODEL 9
REMARK VINA RESULT:      -5.5      6.958      9.786
REMARK  Name = *****
REMARK                            x       y       z     vdW  Elec       q    Type
REMARK                         _______ _______ _______ _____ _____    ______ ____
ROOT
ATOM      1  C   LIG    1       22.983 -28.189  12.944  0.00  0.00    +0.160 A 
ATOM      2  C   LIG    1       22.678 -26.855  13.265  0.00  0.00    +0.164 A 
ATOM      3  F   LIG    1       23.608 -25.889  13.210  0.00  0.00    -0.202 F 
ATOM      4  C   LIG    1       21.398 -26.494  13.637  0.00  0.00    +0.057 A 
ATOM      5  C   LIG    1       20.435 -27.489  13.730  0.00  0.00    +0.068 A 
ATOM      6  C   LIG    1       19.061 -27.135  14.131  0.00  0.00    +0.205 A 
ATOM      7  C   LIG    1       18.058 -28.209  14.241  0.00  0.00    +0.122 A 
ATOM      8  C   LIG    1       18.472 -29.454  13.961  0.00  0.00    +0.106 A 
ATOM      9  N   LIG    1       19.760 -29.816  13.613  0.00  0.00    -0.328 N 
ATOM     10  O   LIG    1       18.747 -25.969  14.367  0.00  0.00    -0.286 OA
ATOM     11  C   LIG    1       20.772 -28.819  13.458  0.00  0.00    +0.147 A 
ATOM     12  N   LIG    1       22.032 -29.155  13.062  0.00  0.00    -0.211 NA
ENDROOT
BRANCH   1  17
ATOM     13  N   LIG    1       26.279 -31.215  11.203  0.00  0.00    -0.092 NA
ATOM     14  C   LIG    1       25.757 -30.176  11.782  0.00  0.00    +0.081 C 
ATOM     15  C   LIG    1       26.489 -29.370  12.826  0.00  0.00    +0.069 C 
ATOM     16  C   LIG    1       25.284 -28.762  13.563  0.00  0.00    +0.117 C 
ATOM     17  N   LIG    1       24.260 -28.563  12.530  0.00  0.00    -0.307 N 
ATOM     18  C   LIG    1       24.378 -29.615  11.515  0.00  0.00    +0.161 C 
BRANCH  13  20
ATOM     19  C   LIG    1       26.013 -31.907   9.021  0.00  0.00    +0.313 C 
ATOM     20  O   LIG    1       25.364 -31.741  10.275  0.00  0.00    -0.397 OA
ENDBRANCH  13  20
BRANCH  15  21
ATOM     21  C   LIG    1       27.381 -28.344  12.122  0.00  0.00    +0.088 C 
BRANCH  21  22
ATOM     22  N   LIG    1       28.506 -28.952  11.406  0.00  0.00    -0.329 NA
ATOM     23  H   LIG    1       28.409 -28.750  10.411  0.00  0.00    +0.118 HD
ATOM     24  H   LIG    1       29.375 -28.492  11.681  0.00  0.00    +0.118 HD
ENDBRANCH  21  22
ENDBRANCH  15  21
ENDBRANCH   1  17
BRANCH   9  25
ATOM     25  C   LIG    1       20.097 -31.238  13.410  0.00  0.00    +0.089 C 
ATOM     26  C   LIG    1       19.003 -32.265  13.243  0.00  0.00    +0.027 C 
ATOM     27  C   LIG    1       19.922 -31.971  12.099  0.00  0.00    +0.027 C 
ENDBRANCH   9  25
BRANCH   7  28
ATOM     28  C   LIG    1       16.660 -27.984  14.663  0.00  0.00    +0.342 C 
ATOM     29  O   LIG    1       16.095 -28.667  15.500  0.00  0.00    -0.245 OA
BRANCH  28  30
ATOM     30  O   LIG    1       16.054 -26.940  14.054  0.00  0.00    -0.477 OA
ATOM     31  H   LIG    1       15.813 -26.196  14.658  0.00  0.00    +0.295 HD
ENDBRANCH  28  30
ENDBRANCH   7  28
TORSDOF 7
ENDMDL
