MODEL 1
REMARK VINA RESULT:      -9.9      0.000      0.000
REMARK  Name = *****
REMARK                            x       y       z     vdW  Elec       q    Type
REMARK                         _______ _______ _______ _____ _____    ______ ____
ROOT
ATOM      1  C   LIG    1       24.507 -25.339   5.997  0.00  0.00    +0.030 A 
ATOM      2  C   LIG    1       23.928 -26.343   5.201  0.00  0.00    +0.027 A 
ATOM      3  C   LIG    1       24.352 -27.686   5.267  0.00  0.00    +0.047 A 
ATOM      4  C   LIG    1       25.422 -28.048   6.083  0.00  0.00    +0.121 A 
ATOM      5  C   LIG    1       25.977 -27.074   6.911  0.00  0.00    +0.047 A 
ATOM      6  C   LIG    1       25.510 -25.749   6.885  0.00  0.00    +0.027 A 
ENDROOT
BRANCH   1  10
ATOM      7  N   LIG    1       24.663 -21.073   6.104  0.00  0.00    -0.327 N 
ATOM      8  C   LIG    1       24.569 -21.737   4.779  0.00  0.00    +0.124 C 
ATOM      9  C   LIG    1       24.972 -23.235   4.869  0.00  0.00    +0.124 C 
ATOM     10  N   LIG    1       24.187 -23.965   5.906  0.00  0.00    -0.327 N 
ATOM     11  C   LIG    1       24.070 -23.255   7.204  0.00  0.00    +0.124 C 
ATOM     12  C   LIG    1       23.753 -21.747   7.062  0.00  0.00    +0.124 C 
BRANCH   7  16
ATOM     13  C   LIG    1       28.557 -19.775   7.294  0.00  0.00    +0.052 A 
ATOM     14  C   LIG    1       28.132 -19.671   5.972  0.00  0.00    +0.028 A 
ATOM     15  C   LIG    1       26.848 -20.110   5.595  0.00  0.00    +0.025 A 
ATOM     16  C   LIG    1       25.937 -20.662   6.511  0.00  0.00    +0.030 A 
ATOM     17  C   LIG    1       26.369 -20.715   7.838  0.00  0.00    +0.025 A 
ATOM     18  C   LIG    1       27.653 -20.302   8.221  0.00  0.00    +0.028 A 
BRANCH  13  22
ATOM     19  N   LIG    1       31.469 -18.251   8.733  0.00  0.00    -0.210 N 
ATOM     20  C   LIG    1       30.131 -18.624   8.845  0.00  0.00    +0.351 C 
ATOM     21  O   LIG    1       29.383 -18.363   9.799  0.00  0.00    -0.244 OA
ATOM     22  N   LIG    1       29.831 -19.334   7.708  0.00  0.00    -0.250 N 
ATOM     23  C   LIG    1       31.008 -19.430   7.050  0.00  0.00    +0.230 C 
ATOM     24  N   LIG    1       32.010 -18.821   7.597  0.00  0.00    -0.157 NA
BRANCH  19  25
ATOM     25  C   LIG    1       32.259 -17.405   9.621  0.00  0.00    +0.109 C 
ATOM     26  C   LIG    1       31.753 -17.463  11.064  0.00  0.00    +0.033 C 
BRANCH  25  28
ATOM     27  C   LIG    1       33.025 -15.001  10.168  0.00  0.00    +0.006 C 
ATOM     28  C   LIG    1       32.349 -15.932   9.168  0.00  0.00    +0.023 C 
ENDBRANCH  25  28
ENDBRANCH  19  25
ENDBRANCH  13  22
ENDBRANCH   7  16
ENDBRANCH   1  10
BRANCH   4  29
ATOM     29  O   LIG    1       25.868 -29.348   6.005  0.00  0.00    -0.489 OA
BRANCH  29  30
ATOM     30  C   LIG    1       24.845 -30.351   6.184  0.00  0.00    +0.263 C 
BRANCH  30  31
ATOM     31  C   LIG    1       24.928 -30.998   7.579  0.00  0.00    +0.185 C 
ATOM     32  O   LIG    1       24.668 -30.070   8.652  0.00  0.00    -0.334 OA
ATOM     33  C   LIG    1       25.593 -30.371   9.725  0.00  0.00    +0.219 C 
ATOM     34  O   LIG    1       26.654 -31.175   9.156  0.00  0.00    -0.341 OA
ATOM     35  C   LIG    1       26.302 -31.556   7.837  0.00  0.00    +0.198 C 
BRANCH  33  36
ATOM     36  C   LIG    1       24.918 -31.204  10.847  0.00  0.00    +0.031 A 
ATOM     37  C   LIG    1       23.831 -30.798  11.654  0.00  0.00    +0.051 A 
ATOM     38 CL   LIG    1       22.869 -29.392  11.382  0.00  0.00    -0.083 Cl
ATOM     39  C   LIG    1       23.416 -31.559  12.765  0.00  0.00    +0.040 A 
ATOM     40  C   LIG    1       24.022 -32.771  13.059  0.00  0.00    +0.042 A 
ATOM     41 CL   LIG    1       23.501 -33.690  14.416  0.00  0.00    -0.084 Cl
ATOM     42  C   LIG    1       25.038 -33.243  12.248  0.00  0.00    +0.020 A 
ATOM     43  C   LIG    1       25.476 -32.471  11.165  0.00  0.00    +0.012 A 
ENDBRANCH  33  36
BRANCH  33  44
ATOM     44  C   LIG    1       26.278 -29.054  10.177  0.00  0.00    +0.215 C 
BRANCH  44  45
ATOM     45  N   LIG    1       27.199 -29.187  11.291  0.00  0.00    -0.246 N 
ATOM     46  N   LIG    1       28.473 -29.582  11.084  0.00  0.00    -0.158 NA
ATOM     47  C   LIG    1       28.953 -29.605  12.330  0.00  0.00    +0.244 A 
ATOM     48  N   LIG    1       28.062 -29.270  13.304  0.00  0.00    -0.223 NA
ATOM     49  C   LIG    1       26.968 -29.027  12.625  0.00  0.00    +0.219 A 
ENDBRANCH  44  45
ENDBRANCH  33  44
ENDBRANCH  30  31
ENDBRANCH  29  30
ENDBRANCH   4  29
TORSDOF 11
ENDMDL
MODEL 2
REMARK VINA RESULT:      -9.9      1.101      1.706
REMARK  Name = *****
REMARK                            x       y       z     vdW  Elec       q    Type
REMARK                         _______ _______ _______ _____ _____    ______ ____
ROOT
ATOM      1  C   LIG    1       24.514 -25.328   5.944  0.00  0.00    +0.030 A 
ATOM      2  C   LIG    1       23.974 -26.323   5.110  0.00  0.00    +0.027 A 
ATOM      3  C   LIG    1       24.418 -27.660   5.158  0.00  0.00    +0.047 A 
ATOM      4  C   LIG    1       25.470 -28.024   5.997  0.00  0.00    +0.121 A 
ATOM      5  C   LIG    1       25.986 -27.060   6.861  0.00  0.00    +0.047 A 
ATOM      6  C   LIG    1       25.498 -25.742   6.851  0.00  0.00    +0.027 A 
ENDROOT
BRANCH   1  10
ATOM      7  N   LIG    1       24.612 -21.063   6.110  0.00  0.00    -0.327 N 
ATOM      8  C   LIG    1       24.517 -21.709   4.775  0.00  0.00    +0.124 C 
ATOM      9  C   LIG    1       24.941 -23.202   4.843  0.00  0.00    +0.124 C 
ATOM     10  N   LIG    1       24.175 -23.958   5.875  0.00  0.00    -0.327 N 
ATOM     11  C   LIG    1       24.058 -23.267   7.183  0.00  0.00    +0.124 C 
ATOM     12  C   LIG    1       23.718 -21.762   7.065  0.00  0.00    +0.124 C 
BRANCH   7  16
ATOM     13  C   LIG    1       28.489 -19.804   7.394  0.00  0.00    +0.052 A 
ATOM     14  C   LIG    1       27.541 -20.271   8.302  0.00  0.00    +0.028 A 
ATOM     15  C   LIG    1       26.266 -20.675   7.864  0.00  0.00    +0.025 A 
ATOM     16  C   LIG    1       25.883 -20.639   6.512  0.00  0.00    +0.030 A 
ATOM     17  C   LIG    1       26.864 -20.209   5.616  0.00  0.00    +0.025 A 
ATOM     18  C   LIG    1       28.129 -19.782   6.044  0.00  0.00    +0.028 A 
BRANCH  13  22
ATOM     19  N   LIG    1       31.460 -18.365   8.800  0.00  0.00    -0.210 N 
ATOM     20  C   LIG    1       30.109 -18.686   8.922  0.00  0.00    +0.351 C 
ATOM     21  O   LIG    1       29.374 -18.382   9.873  0.00  0.00    -0.244 OA
ATOM     22  N   LIG    1       29.779 -19.403   7.798  0.00  0.00    -0.250 N 
ATOM     23  C   LIG    1       30.950 -19.554   7.138  0.00  0.00    +0.230 C 
ATOM     24  N   LIG    1       31.975 -18.973   7.673  0.00  0.00    -0.157 NA
BRANCH  19  25
ATOM     25  C   LIG    1       32.283 -17.535   9.672  0.00  0.00    +0.109 C 
ATOM     26  C   LIG    1       31.649 -17.353  11.053  0.00  0.00    +0.033 C 
BRANCH  25  28
ATOM     27  C   LIG    1       32.983 -15.089  10.113  0.00  0.00    +0.006 C 
ATOM     28  C   LIG    1       32.626 -16.151   9.080  0.00  0.00    +0.023 C 
ENDBRANCH  25  28
ENDBRANCH  19  25
ENDBRANCH  13  22
ENDBRANCH   7  16
ENDBRANCH   1  10
BRANCH   4  29
ATOM     29  O   LIG    1       25.939 -29.315   5.902  0.00  0.00    -0.489 OA
BRANCH  29  30
ATOM     30  C   LIG    1       24.922 -30.314   5.675  0.00  0.00    +0.263 C 
BRANCH  30  31
ATOM     31  C   LIG    1       24.385 -30.885   7.000  0.00  0.00    +0.185 C 
ATOM     32  O   LIG    1       24.933 -30.231   8.163  0.00  0.00    -0.334 OA
ATOM     33  C   LIG    1       25.185 -31.251   9.160  0.00  0.00    +0.219 C 
ATOM     34  O   LIG    1       25.186 -32.525   8.472  0.00  0.00    -0.341 OA
ATOM     35  C   LIG    1       24.731 -32.343   7.141  0.00  0.00    +0.198 C 
BRANCH  33  36
ATOM     36  C   LIG    1       24.065 -31.294  10.233  0.00  0.00    +0.031 A 
ATOM     37  C   LIG    1       23.916 -32.263  11.251  0.00  0.00    +0.051 A 
ATOM     38 CL   LIG    1       25.097 -33.452  11.664  0.00  0.00    -0.083 Cl
ATOM     39  C   LIG    1       22.762 -32.311  12.057  0.00  0.00    +0.040 A 
ATOM     40  C   LIG    1       21.763 -31.360  11.920  0.00  0.00    +0.042 A 
ATOM     41 CL   LIG    1       20.362 -31.430  12.915  0.00  0.00    -0.084 Cl
ATOM     42  C   LIG    1       21.905 -30.347  10.989  0.00  0.00    +0.020 A 
ATOM     43  C   LIG    1       23.035 -30.319  10.162  0.00  0.00    +0.012 A 
ENDBRANCH  33  36
BRANCH  33  44
ATOM     44  C   LIG    1       26.632 -31.078   9.696  0.00  0.00    +0.215 C 
BRANCH  44  45
ATOM     45  N   LIG    1       26.842 -29.920  10.544  0.00  0.00    -0.246 N 
ATOM     46  N   LIG    1       27.026 -30.068  11.874  0.00  0.00    -0.158 NA
ATOM     47  C   LIG    1       27.146 -28.798  12.271  0.00  0.00    +0.244 A 
ATOM     48  N   LIG    1       27.031 -27.866  11.285  0.00  0.00    -0.223 NA
ATOM     49  C   LIG    1       26.826 -28.596  10.217  0.00  0.00    +0.219 A 
ENDBRANCH  44  45
ENDBRANCH  33  44
ENDBRANCH  30  31
ENDBRANCH  29  30
ENDBRANCH   4  29
TORSDOF 11
ENDMDL
MODEL 3
REMARK VINA RESULT:      -9.1      4.994     12.701
REMARK  Name = *****
REMARK                            x       y       z     vdW  Elec       q    Type
REMARK                         _______ _______ _______ _____ _____    ______ ____
ROOT
ATOM      1  C   LIG    1       25.295 -30.454   7.296  0.00  0.00    +0.030 A 
ATOM      2  C   LIG    1       25.301 -30.511   5.891  0.00  0.00    +0.027 A 
ATOM      3  C   LIG    1       25.407 -29.352   5.096  0.00  0.00    +0.047 A 
ATOM      4  C   LIG    1       25.436 -28.091   5.688  0.00  0.00    +0.121 A 
ATOM      5  C   LIG    1       25.475 -28.019   7.080  0.00  0.00    +0.047 A 
ATOM      6  C   LIG    1       25.430 -29.182   7.867  0.00  0.00    +0.027 A 
ENDROOT
BRANCH   1  10
ATOM      7  N   LIG    1       23.768 -33.182  10.203  0.00  0.00    -0.327 N 
ATOM      8  C   LIG    1       23.689 -33.569   8.771  0.00  0.00    +0.124 C 
ATOM      9  C   LIG    1       23.851 -32.332   7.845  0.00  0.00    +0.124 C 
ATOM     10  N   LIG    1       25.099 -31.570   8.139  0.00  0.00    -0.327 N 
ATOM     11  C   LIG    1       25.344 -31.325   9.583  0.00  0.00    +0.124 C 
ATOM     12  C   LIG    1       25.086 -32.561  10.477  0.00  0.00    +0.124 C 
BRANCH   7  16
ATOM     13  C   LIG    1       20.217 -31.523  11.907  0.00  0.00    +0.052 A 
ATOM     14  C   LIG    1       21.069 -30.754  11.117  0.00  0.00    +0.028 A 
ATOM     15  C   LIG    1       22.239 -31.314  10.569  0.00  0.00    +0.025 A 
ATOM     16  C   LIG    1       22.606 -32.654  10.776  0.00  0.00    +0.030 A 
ATOM     17  C   LIG    1       21.713 -33.417  11.533  0.00  0.00    +0.025 A 
ATOM     18  C   LIG    1       20.558 -32.864  12.103  0.00  0.00    +0.028 A 
BRANCH  13  22
ATOM     19  N   LIG    1       17.580 -29.996  13.801  0.00  0.00    -0.210 N 
ATOM     20  C   LIG    1       18.929 -30.056  13.455  0.00  0.00    +0.351 C 
ATOM     21  O   LIG    1       19.837 -29.376  13.954  0.00  0.00    -0.244 OA
ATOM     22  N   LIG    1       19.031 -30.998  12.460  0.00  0.00    -0.250 N 
ATOM     23  C   LIG    1       17.753 -31.359  12.205  0.00  0.00    +0.230 C 
ATOM     24  N   LIG    1       16.853 -30.806  12.953  0.00  0.00    -0.157 NA
BRANCH  19  25
ATOM     25  C   LIG    1       16.944 -29.227  14.865  0.00  0.00    +0.109 C 
ATOM     26  C   LIG    1       15.775 -29.987  15.497  0.00  0.00    +0.033 C 
BRANCH  25  28
ATOM     27  C   LIG    1       17.531 -26.738  14.511  0.00  0.00    +0.006 C 
ATOM     28  C   LIG    1       16.467 -27.826  14.427  0.00  0.00    +0.023 C 
ENDBRANCH  25  28
ENDBRANCH  19  25
ENDBRANCH  13  22
ENDBRANCH   7  16
ENDBRANCH   1  10
BRANCH   4  29
ATOM     29  O   LIG    1       25.409 -26.997   4.853  0.00  0.00    -0.489 OA
BRANCH  29  30
ATOM     30  C   LIG    1       26.004 -25.801   5.402  0.00  0.00    +0.263 C 
BRANCH  30  31
ATOM     31  C   LIG    1       25.045 -24.600   5.308  0.00  0.00    +0.185 C 
ATOM     32  O   LIG    1       25.593 -23.390   5.870  0.00  0.00    -0.334 OA
ATOM     33  C   LIG    1       24.528 -22.715   6.579  0.00  0.00    +0.219 C 
ATOM     34  O   LIG    1       23.479 -23.689   6.796  0.00  0.00    -0.341 OA
ATOM     35  C   LIG    1       23.768 -24.866   6.061  0.00  0.00    +0.198 C 
BRANCH  33  36
ATOM     36  C   LIG    1       23.928 -21.553   5.742  0.00  0.00    +0.031 A 
ATOM     37  C   LIG    1       24.651 -20.522   5.100  0.00  0.00    +0.051 A 
ATOM     38 CL   LIG    1       26.365 -20.492   4.903  0.00  0.00    -0.083 Cl
ATOM     39  C   LIG    1       23.997 -19.416   4.522  0.00  0.00    +0.040 A 
ATOM     40  C   LIG    1       22.612 -19.342   4.505  0.00  0.00    +0.042 A 
ATOM     41 CL   LIG    1       21.830 -17.987   3.792  0.00  0.00    -0.084 Cl
ATOM     42  C   LIG    1       21.865 -20.368   5.054  0.00  0.00    +0.020 A 
ATOM     43  C   LIG    1       22.514 -21.450   5.661  0.00  0.00    +0.012 A 
ENDBRANCH  33  36
BRANCH  33  44
ATOM     44  C   LIG    1       25.032 -22.338   7.998  0.00  0.00    +0.215 C 
BRANCH  44  45
ATOM     45  N   LIG    1       26.290 -21.616   8.035  0.00  0.00    -0.246 N 
ATOM     46  N   LIG    1       27.451 -22.249   7.762  0.00  0.00    -0.158 NA
ATOM     47  C   LIG    1       28.339 -21.265   7.934  0.00  0.00    +0.244 A 
ATOM     48  N   LIG    1       27.815 -20.067   8.312  0.00  0.00    -0.223 NA
ATOM     49  C   LIG    1       26.531 -20.320   8.382  0.00  0.00    +0.219 A 
ENDBRANCH  44  45
ENDBRANCH  33  44
ENDBRANCH  30  31
ENDBRANCH  29  30
ENDBRANCH   4  29
TORSDOF 11
ENDMDL
MODEL 4
REMARK VINA RESULT:      -8.8      4.112      7.661
REMARK  Name = *****
REMARK                            x       y       z     vdW  Elec       q    Type
REMARK                         _______ _______ _______ _____ _____    ______ ____
ROOT
ATOM      1  C   LIG    1       24.711 -33.086   9.293  0.00  0.00    +0.030 A 
ATOM      2  C   LIG    1       25.794 -33.546  10.063  0.00  0.00    +0.027 A 
ATOM      3  C   LIG    1       25.694 -33.732  11.457  0.00  0.00    +0.047 A 
ATOM      4  C   LIG    1       24.523 -33.392  12.131  0.00  0.00    +0.121 A 
ATOM      5  C   LIG    1       23.426 -32.977  11.377  0.00  0.00    +0.047 A 
ATOM      6  C   LIG    1       23.514 -32.851   9.980  0.00  0.00    +0.027 A 
ENDROOT
BRANCH   1  10
ATOM      7  N   LIG    1       24.932 -31.083   5.529  0.00  0.00    -0.327 N 
ATOM      8  C   LIG    1       26.111 -31.870   5.972  0.00  0.00    +0.124 C 
ATOM      9  C   LIG    1       26.060 -32.146   7.501  0.00  0.00    +0.124 C 
ATOM     10  N   LIG    1       24.781 -32.793   7.912  0.00  0.00    -0.327 N 
ATOM     11  C   LIG    1       23.563 -32.173   7.333  0.00  0.00    +0.124 C 
ATOM     12  C   LIG    1       23.691 -31.837   5.828  0.00  0.00    +0.124 C 
BRANCH   7  16
ATOM     13  C   LIG    1       25.092 -26.870   6.227  0.00  0.00    +0.052 A 
ATOM     14  C   LIG    1       24.514 -27.736   7.153  0.00  0.00    +0.028 A 
ATOM     15  C   LIG    1       24.462 -29.121   6.904  0.00  0.00    +0.025 A 
ATOM     16  C   LIG    1       24.986 -29.701   5.736  0.00  0.00    +0.030 A 
ATOM     17  C   LIG    1       25.601 -28.818   4.845  0.00  0.00    +0.025 A 
ATOM     18  C   LIG    1       25.637 -27.435   5.071  0.00  0.00    +0.028 A 
BRANCH  13  22
ATOM     19  N   LIG    1       24.694 -23.319   6.554  0.00  0.00    -0.210 N 
ATOM     20  C   LIG    1       24.125 -24.591   6.511  0.00  0.00    +0.351 C 
ATOM     21  O   LIG    1       22.912 -24.844   6.535  0.00  0.00    -0.244 OA
ATOM     22  N   LIG    1       25.171 -25.480   6.450  0.00  0.00    -0.250 N 
ATOM     23  C   LIG    1       26.276 -24.709   6.564  0.00  0.00    +0.230 C 
ATOM     24  N   LIG    1       26.067 -23.434   6.632  0.00  0.00    -0.157 NA
BRANCH  19  25
ATOM     25  C   LIG    1       24.029 -22.021   6.530  0.00  0.00    +0.109 C 
ATOM     26  C   LIG    1       24.474 -21.174   5.336  0.00  0.00    +0.033 C 
BRANCH  25  28
ATOM     27  C   LIG    1       25.587 -20.594   8.015  0.00  0.00    +0.006 C 
ATOM     28  C   LIG    1       24.203 -21.204   7.830  0.00  0.00    +0.023 C 
ENDBRANCH  25  28
ENDBRANCH  19  25
ENDBRANCH  13  22
ENDBRANCH   7  16
ENDBRANCH   1  10
BRANCH   4  29
ATOM     29  O   LIG    1       24.534 -33.476  13.505  0.00  0.00    -0.489 OA
BRANCH  29  30
ATOM     30  C   LIG    1       25.311 -32.455  14.168  0.00  0.00    +0.263 C 
BRANCH  30  31
ATOM     31  C   LIG    1       24.557 -31.113  14.211  0.00  0.00    +0.185 C 
ATOM     32  O   LIG    1       24.827 -30.273  13.070  0.00  0.00    -0.334 OA
ATOM     33  C   LIG    1       24.937 -28.910  13.546  0.00  0.00    +0.219 C 
ATOM     34  O   LIG    1       25.147 -28.977  14.977  0.00  0.00    -0.341 OA
ATOM     35  C   LIG    1       24.953 -30.309  15.421  0.00  0.00    +0.198 C 
BRANCH  33  36
ATOM     36  C   LIG    1       23.632 -28.108  13.297  0.00  0.00    +0.031 A 
ATOM     37  C   LIG    1       23.413 -26.746  13.605  0.00  0.00    +0.051 A 
ATOM     38 CL   LIG    1       24.640 -25.633  14.088  0.00  0.00    -0.083 Cl
ATOM     39  C   LIG    1       22.133 -26.167  13.505  0.00  0.00    +0.040 A 
ATOM     40  C   LIG    1       21.057 -26.903  13.032  0.00  0.00    +0.042 A 
ATOM     41 CL   LIG    1       19.503 -26.180  12.912  0.00  0.00    -0.084 Cl
ATOM     42  C   LIG    1       21.245 -28.217  12.645  0.00  0.00    +0.020 A 
ATOM     43  C   LIG    1       22.509 -28.806  12.778  0.00  0.00    +0.012 A 
ENDBRANCH  33  36
BRANCH  33  44
ATOM     44  C   LIG    1       26.237 -28.285  12.974  0.00  0.00    +0.215 C 
BRANCH  44  45
ATOM     45  N   LIG    1       26.735 -28.899  11.757  0.00  0.00    -0.246 N 
ATOM     46  N   LIG    1       26.195 -28.585  10.560  0.00  0.00    -0.158 NA
ATOM     47  C   LIG    1       26.896 -29.369   9.736  0.00  0.00    +0.244 A 
ATOM     48  N   LIG    1       27.824 -30.163  10.336  0.00  0.00    -0.223 NA
ATOM     49  C   LIG    1       27.691 -29.858  11.604  0.00  0.00    +0.219 A 
ENDBRANCH  44  45
ENDBRANCH  33  44
ENDBRANCH  30  31
ENDBRANCH  29  30
ENDBRANCH   4  29
TORSDOF 11
ENDMDL
MODEL 5
REMARK VINA RESULT:      -8.6      1.675      2.709
REMARK  Name = *****
REMARK                            x       y       z     vdW  Elec       q    Type
REMARK                         _______ _______ _______ _____ _____    ______ ____
ROOT
ATOM      1  C   LIG    1       24.650 -25.584   5.808  0.00  0.00    +0.030 A 
ATOM      2  C   LIG    1       23.756 -26.667   5.740  0.00  0.00    +0.027 A 
ATOM      3  C   LIG    1       24.204 -28.001   5.650  0.00  0.00    +0.047 A 
ATOM      4  C   LIG    1       25.565 -28.283   5.552  0.00  0.00    +0.121 A 
ATOM      5  C   LIG    1       26.466 -27.225   5.661  0.00  0.00    +0.047 A 
ATOM      6  C   LIG    1       26.014 -25.902   5.812  0.00  0.00    +0.027 A 
ENDROOT
BRANCH   1  10
ATOM      7  N   LIG    1       24.597 -21.329   6.156  0.00  0.00    -0.327 N 
ATOM      8  C   LIG    1       24.494 -21.921   4.798  0.00  0.00    +0.124 C 
ATOM      9  C   LIG    1       24.974 -23.399   4.791  0.00  0.00    +0.124 C 
ATOM     10  N   LIG    1       24.260 -24.226   5.805  0.00  0.00    -0.327 N 
ATOM     11  C   LIG    1       24.148 -23.596   7.145  0.00  0.00    +0.124 C 
ATOM     12  C   LIG    1       23.752 -22.101   7.100  0.00  0.00    +0.124 C 
BRANCH   7  16
ATOM     13  C   LIG    1       28.460 -19.905   7.304  0.00  0.00    +0.052 A 
ATOM     14  C   LIG    1       28.032 -19.851   5.979  0.00  0.00    +0.028 A 
ATOM     15  C   LIG    1       26.760 -20.331   5.616  0.00  0.00    +0.025 A 
ATOM     16  C   LIG    1       25.861 -20.876   6.549  0.00  0.00    +0.030 A 
ATOM     17  C   LIG    1       26.294 -20.878   7.877  0.00  0.00    +0.025 A 
ATOM     18  C   LIG    1       27.568 -20.424   8.246  0.00  0.00    +0.028 A 
BRANCH  13  22
ATOM     19  N   LIG    1       31.337 -18.288   8.711  0.00  0.00    -0.210 N 
ATOM     20  C   LIG    1       30.014 -18.706   8.839  0.00  0.00    +0.351 C 
ATOM     21  O   LIG    1       29.269 -18.475   9.803  0.00  0.00    -0.244 OA
ATOM     22  N   LIG    1       29.723 -19.422   7.703  0.00  0.00    -0.250 N 
ATOM     23  C   LIG    1       30.894 -19.476   7.029  0.00  0.00    +0.230 C 
ATOM     24  N   LIG    1       31.882 -18.834   7.567  0.00  0.00    -0.157 NA
BRANCH  19  25
ATOM     25  C   LIG    1       32.109 -17.419   9.593  0.00  0.00    +0.109 C 
ATOM     26  C   LIG    1       31.638 -17.516  11.045  0.00  0.00    +0.033 C 
BRANCH  25  28
ATOM     27  C   LIG    1       33.024 -15.039   9.996  0.00  0.00    +0.006 C 
ATOM     28  C   LIG    1       32.123 -15.937   9.157  0.00  0.00    +0.023 C 
ENDBRANCH  25  28
ENDBRANCH  19  25
ENDBRANCH  13  22
ENDBRANCH   7  16
ENDBRANCH   1  10
BRANCH   4  29
ATOM     29  O   LIG    1       25.928 -29.593   5.337  0.00  0.00    -0.489 OA
BRANCH  29  30
ATOM     30  C   LIG    1       25.302 -30.547   6.222  0.00  0.00    +0.263 C 
BRANCH  30  31
ATOM     31  C   LIG    1       25.184 -29.995   7.655  0.00  0.00    +0.185 C 
ATOM     32  O   LIG    1       26.049 -30.664   8.594  0.00  0.00    -0.334 OA
ATOM     33  C   LIG    1       25.312 -30.827   9.829  0.00  0.00    +0.219 C 
ATOM     34  O   LIG    1       23.911 -30.643   9.514  0.00  0.00    -0.341 OA
ATOM     35  C   LIG    1       23.785 -30.163   8.186  0.00  0.00    +0.198 C 
BRANCH  33  36
ATOM     36  C   LIG    1       25.705 -29.752  10.878  0.00  0.00    +0.031 A 
ATOM     37  C   LIG    1       24.818 -29.013  11.694  0.00  0.00    +0.051 A 
ATOM     38 CL   LIG    1       23.134 -29.340  11.871  0.00  0.00    -0.083 Cl
ATOM     39  C   LIG    1       25.270 -27.934  12.479  0.00  0.00    +0.040 A 
ATOM     40  C   LIG    1       26.616 -27.608  12.528  0.00  0.00    +0.042 A 
ATOM     41 CL   LIG    1       27.150 -26.290  13.494  0.00  0.00    -0.084 Cl
ATOM     42  C   LIG    1       27.528 -28.355  11.805  0.00  0.00    +0.020 A 
ATOM     43  C   LIG    1       27.077 -29.405  10.995  0.00  0.00    +0.012 A 
ENDBRANCH  33  36
BRANCH  33  44
ATOM     44  C   LIG    1       25.433 -32.303  10.294  0.00  0.00    +0.215 C 
BRANCH  44  45
ATOM     45  N   LIG    1       24.639 -32.653  11.456  0.00  0.00    -0.246 N 
ATOM     46  N   LIG    1       23.335 -32.307  11.525  0.00  0.00    -0.158 NA
ATOM     47  C   LIG    1       22.997 -32.774  12.730  0.00  0.00    +0.244 A 
ATOM     48  N   LIG    1       24.002 -33.372  13.426  0.00  0.00    -0.223 NA
ATOM     49  C   LIG    1       25.023 -33.268  12.610  0.00  0.00    +0.219 A 
ENDBRANCH  44  45
ENDBRANCH  33  44
ENDBRANCH  30  31
ENDBRANCH  29  30
ENDBRANCH   4  29
TORSDOF 11
ENDMDL
MODEL 6
REMARK VINA RESULT:      -8.6      5.203     13.099
REMARK  Name = *****
REMARK                            x       y       z     vdW  Elec       q    Type
REMARK                         _______ _______ _______ _____ _____    ______ ____
ROOT
ATOM      1  C   LIG    1       25.351 -29.480   6.786  0.00  0.00    +0.030 A 
ATOM      2  C   LIG    1       25.186 -29.015   5.469  0.00  0.00    +0.027 A 
ATOM      3  C   LIG    1       25.383 -27.663   5.123  0.00  0.00    +0.047 A 
ATOM      4  C   LIG    1       25.682 -26.720   6.106  0.00  0.00    +0.121 A 
ATOM      5  C   LIG    1       25.891 -27.171   7.408  0.00  0.00    +0.047 A 
ATOM      6  C   LIG    1       25.752 -28.531   7.735  0.00  0.00    +0.027 A 
ENDROOT
BRANCH   1  10
ATOM      7  N   LIG    1       23.609 -32.932   8.595  0.00  0.00    -0.327 N 
ATOM      8  C   LIG    1       23.557 -32.817   7.115  0.00  0.00    +0.124 C 
ATOM      9  C   LIG    1       23.806 -31.353   6.656  0.00  0.00    +0.124 C 
ATOM     10  N   LIG    1       25.077 -30.801   7.206  0.00  0.00    -0.327 N 
ATOM     11  C   LIG    1       25.287 -31.062   8.652  0.00  0.00    +0.124 C 
ATOM     12  C   LIG    1       24.945 -32.509   9.080  0.00  0.00    +0.124 C 
BRANCH   7  16
ATOM     13  C   LIG    1       20.097 -31.741  10.720  0.00  0.00    +0.052 A 
ATOM     14  C   LIG    1       21.191 -30.887  10.591  0.00  0.00    +0.028 A 
ATOM     15  C   LIG    1       22.343 -31.298   9.895  0.00  0.00    +0.025 A 
ATOM     16  C   LIG    1       22.454 -32.563   9.294  0.00  0.00    +0.030 A 
ATOM     17  C   LIG    1       21.329 -33.384   9.398  0.00  0.00    +0.025 A 
ATOM     18  C   LIG    1       20.186 -32.995  10.109  0.00  0.00    +0.028 A 
BRANCH  13  22
ATOM     19  N   LIG    1       17.481 -30.783  12.981  0.00  0.00    -0.210 N 
ATOM     20  C   LIG    1       18.837 -30.816  12.661  0.00  0.00    +0.351 C 
ATOM     21  O   LIG    1       19.763 -30.420  13.383  0.00  0.00    -0.244 OA
ATOM     22  N   LIG    1       18.924 -31.357  11.401  0.00  0.00    -0.250 N 
ATOM     23  C   LIG    1       17.638 -31.514  11.012  0.00  0.00    +0.230 C 
ATOM     24  N   LIG    1       16.742 -31.193  11.889  0.00  0.00    -0.157 NA
BRANCH  19  25
ATOM     25  C   LIG    1       16.848 -30.390  14.235  0.00  0.00    +0.109 C 
ATOM     26  C   LIG    1       15.899 -31.470  14.758  0.00  0.00    +0.033 C 
BRANCH  25  28
ATOM     27  C   LIG    1       16.961 -27.821  14.467  0.00  0.00    +0.006 C 
ATOM     28  C   LIG    1       16.100 -29.041  14.163  0.00  0.00    +0.023 C 
ENDBRANCH  25  28
ENDBRANCH  19  25
ENDBRANCH  13  22
ENDBRANCH   7  16
ENDBRANCH   1  10
BRANCH   4  29
ATOM     29  O   LIG    1       25.735 -25.399   5.722  0.00  0.00    -0.489 OA
BRANCH  29  30
ATOM     30  C   LIG    1       25.808 -24.455   6.812  0.00  0.00    +0.263 C 
BRANCH  30  31
ATOM     31  C   LIG    1       25.023 -23.168   6.497  0.00  0.00    +0.185 C 
ATOM     32  O   LIG    1       25.595 -22.405   5.415  0.00  0.00    -0.334 OA
ATOM     33  C   LIG    1       25.498 -21.004   5.769  0.00  0.00    +0.219 C 
ATOM     34  O   LIG    1       25.262 -20.943   7.196  0.00  0.00    -0.341 OA
ATOM     35  C   LIG    1       24.996 -22.246   7.687  0.00  0.00    +0.198 C 
BRANCH  33  36
ATOM     36  C   LIG    1       24.300 -20.315   5.061  0.00  0.00    +0.031 A 
ATOM     37  C   LIG    1       24.370 -19.225   4.165  0.00  0.00    +0.051 A 
ATOM     38 CL   LIG    1       25.825 -18.603   3.477  0.00  0.00    -0.083 Cl
ATOM     39  C   LIG    1       23.208 -18.560   3.724  0.00  0.00    +0.040 A 
ATOM     40  C   LIG    1       21.951 -19.004   4.105  0.00  0.00    +0.042 A 
ATOM     41 CL   LIG    1       20.544 -18.184   3.555  0.00  0.00    -0.084 Cl
ATOM     42  C   LIG    1       21.835 -20.116   4.919  0.00  0.00    +0.020 A 
ATOM     43  C   LIG    1       22.990 -20.756   5.388  0.00  0.00    +0.012 A 
ENDBRANCH  33  36
BRANCH  33  44
ATOM     44  C   LIG    1       26.884 -20.338   5.557  0.00  0.00    +0.215 C 
BRANCH  44  45
ATOM     45  N   LIG    1       27.826 -20.512   6.646  0.00  0.00    -0.246 N 
ATOM     46  N   LIG    1       28.447 -21.697   6.833  0.00  0.00    -0.158 NA
ATOM     47  C   LIG    1       29.178 -21.447   7.923  0.00  0.00    +0.244 A 
ATOM     48  N   LIG    1       29.045 -20.195   8.440  0.00  0.00    -0.223 NA
ATOM     49  C   LIG    1       28.180 -19.636   7.629  0.00  0.00    +0.219 A 
ENDBRANCH  44  45
ENDBRANCH  33  44
ENDBRANCH  30  31
ENDBRANCH  29  30
ENDBRANCH   4  29
TORSDOF 11
ENDMDL
MODEL 7
REMARK VINA RESULT:      -8.5      5.090     12.604
REMARK  Name = *****
REMARK                            x       y       z     vdW  Elec       q    Type
REMARK                         _______ _______ _______ _____ _____    ______ ____
ROOT
ATOM      1  C   LIG    1       25.234 -29.654   7.530  0.00  0.00    +0.030 A 
ATOM      2  C   LIG    1       24.705 -29.516   6.234  0.00  0.00    +0.027 A 
ATOM      3  C   LIG    1       24.882 -28.341   5.476  0.00  0.00    +0.047 A 
ATOM      4  C   LIG    1       25.536 -27.239   6.025  0.00  0.00    +0.121 A 
ATOM      5  C   LIG    1       26.104 -27.375   7.291  0.00  0.00    +0.047 A 
ATOM      6  C   LIG    1       25.975 -28.571   8.018  0.00  0.00    +0.027 A 
ENDROOT
BRANCH   1  10
ATOM      7  N   LIG    1       23.831 -32.251  10.615  0.00  0.00    -0.327 N 
ATOM      8  C   LIG    1       23.418 -32.538   9.217  0.00  0.00    +0.124 C 
ATOM      9  C   LIG    1       23.616 -31.295   8.306  0.00  0.00    +0.124 C 
ATOM     10  N   LIG    1       25.009 -30.768   8.370  0.00  0.00    -0.327 N 
ATOM     11  C   LIG    1       25.560 -30.649   9.743  0.00  0.00    +0.124 C 
ATOM     12  C   LIG    1       25.265 -31.873  10.641  0.00  0.00    +0.124 C 
BRANCH   7  16
ATOM     13  C   LIG    1       20.985 -30.142  13.007  0.00  0.00    +0.052 A 
ATOM     14  C   LIG    1       21.421 -29.635  11.784  0.00  0.00    +0.028 A 
ATOM     15  C   LIG    1       22.365 -30.339  11.012  0.00  0.00    +0.025 A 
ATOM     16  C   LIG    1       22.906 -31.571  11.415  0.00  0.00    +0.030 A 
ATOM     17  C   LIG    1       22.420 -32.080  12.622  0.00  0.00    +0.025 A 
ATOM     18  C   LIG    1       21.499 -31.377  13.410  0.00  0.00    +0.028 A 
BRANCH  13  22
ATOM     19  N   LIG    1       18.128 -28.792  14.707  0.00  0.00    -0.210 N 
ATOM     20  C   LIG    1       18.735 -29.853  14.036  0.00  0.00    +0.351 C 
ATOM     21  O   LIG    1       18.191 -30.925  13.734  0.00  0.00    -0.244 OA
ATOM     22  N   LIG    1       20.032 -29.469  13.799  0.00  0.00    -0.250 N 
ATOM     23  C   LIG    1       20.150 -28.274  14.420  0.00  0.00    +0.230 C 
ATOM     24  N   LIG    1       19.072 -27.821  14.975  0.00  0.00    -0.157 NA
BRANCH  19  25
ATOM     25  C   LIG    1       16.734 -28.642  15.108  0.00  0.00    +0.109 C 
ATOM     26  C   LIG    1       15.776 -29.234  14.072  0.00  0.00    +0.033 C 
BRANCH  25  28
ATOM     27  C   LIG    1       15.851 -26.393  14.200  0.00  0.00    +0.006 C 
ATOM     28  C   LIG    1       16.322 -27.186  15.413  0.00  0.00    +0.023 C 
ENDBRANCH  25  28
ENDBRANCH  19  25
ENDBRANCH  13  22
ENDBRANCH   7  16
ENDBRANCH   1  10
BRANCH   4  29
ATOM     29  O   LIG    1       25.562 -26.082   5.280  0.00  0.00    -0.489 OA
BRANCH  29  30
ATOM     30  C   LIG    1       25.940 -24.898   6.015  0.00  0.00    +0.263 C 
BRANCH  30  31
ATOM     31  C   LIG    1       24.928 -23.756   5.805  0.00  0.00    +0.185 C 
ATOM     32  O   LIG    1       25.543 -22.453   5.763  0.00  0.00    -0.334 OA
ATOM     33  C   LIG    1       24.679 -21.538   6.480  0.00  0.00    +0.219 C 
ATOM     34  O   LIG    1       23.787 -22.343   7.287  0.00  0.00    -0.341 OA
ATOM     35  C   LIG    1       23.926 -23.707   6.928  0.00  0.00    +0.198 C 
BRANCH  33  36
ATOM     36  C   LIG    1       23.808 -20.693   5.512  0.00  0.00    +0.031 A 
ATOM     37  C   LIG    1       24.272 -19.712   4.607  0.00  0.00    +0.051 A 
ATOM     38 CL   LIG    1       25.929 -19.435   4.213  0.00  0.00    -0.083 Cl
ATOM     39  C   LIG    1       23.378 -18.876   3.908  0.00  0.00    +0.040 A 
ATOM     40  C   LIG    1       22.008 -19.041   4.036  0.00  0.00    +0.042 A 
ATOM     41 CL   LIG    1       20.931 -18.016   3.173  0.00  0.00    -0.084 Cl
ATOM     42  C   LIG    1       21.512 -20.042   4.851  0.00  0.00    +0.020 A 
ATOM     43  C   LIG    1       22.398 -20.849   5.575  0.00  0.00    +0.012 A 
ENDBRANCH  33  36
BRANCH  33  44
ATOM     44  C   LIG    1       25.535 -20.736   7.496  0.00  0.00    +0.215 C 
BRANCH  44  45
ATOM     45  N   LIG    1       26.971 -20.889   7.353  0.00  0.00    -0.246 N 
ATOM     46  N   LIG    1       27.665 -21.675   8.204  0.00  0.00    -0.158 NA
ATOM     47  C   LIG    1       28.913 -21.519   7.756  0.00  0.00    +0.244 A 
ATOM     48  N   LIG    1       29.051 -20.676   6.695  0.00  0.00    -0.223 NA
ATOM     49  C   LIG    1       27.819 -20.285   6.474  0.00  0.00    +0.219 A 
ENDBRANCH  44  45
ENDBRANCH  33  44
ENDBRANCH  30  31
ENDBRANCH  29  30
ENDBRANCH   4  29
TORSDOF 11
ENDMDL
MODEL 8
REMARK VINA RESULT:      -7.6      4.860     12.897
REMARK  Name = *****
REMARK                            x       y       z     vdW  Elec       q    Type
REMARK                         _______ _______ _______ _____ _____    ______ ____
ROOT
ATOM      1  C   LIG    1       25.500 -29.519   8.467  0.00  0.00    +0.030 A 
ATOM      2  C   LIG    1       24.534 -29.700   7.461  0.00  0.00    +0.027 A 
ATOM      3  C   LIG    1       24.312 -28.736   6.457  0.00  0.00    +0.047 A 
ATOM      4  C   LIG    1       25.005 -27.526   6.475  0.00  0.00    +0.121 A 
ATOM      5  C   LIG    1       25.996 -27.350   7.439  0.00  0.00    +0.047 A 
ATOM      6  C   LIG    1       26.255 -28.341   8.402  0.00  0.00    +0.027 A 
ENDROOT
BRANCH   1  10
ATOM      7  N   LIG    1       25.001 -31.849  12.010  0.00  0.00    -0.327 N 
ATOM      8  C   LIG    1       25.076 -32.562  10.709  0.00  0.00    +0.124 C 
ATOM      9  C   LIG    1       24.802 -31.596   9.522  0.00  0.00    +0.124 C 
ATOM     10  N   LIG    1       25.701 -30.406   9.549  0.00  0.00    -0.327 N 
ATOM     11  C   LIG    1       25.831 -29.763  10.880  0.00  0.00    +0.124 C 
ATOM     12  C   LIG    1       26.016 -30.767  12.042  0.00  0.00    +0.124 C 
BRANCH   7  16
ATOM     13  C   LIG    1       21.123 -31.176  13.673  0.00  0.00    +0.052 A 
ATOM     14  C   LIG    1       22.224 -31.436  14.486  0.00  0.00    +0.028 A 
ATOM     15  C   LIG    1       23.494 -31.664  13.922  0.00  0.00    +0.025 A 
ATOM     16  C   LIG    1       23.723 -31.635  12.536  0.00  0.00    +0.030 A 
ATOM     17  C   LIG    1       22.614 -31.327  11.745  0.00  0.00    +0.025 A 
ATOM     18  C   LIG    1       21.340 -31.122  12.294  0.00  0.00    +0.028 A 
BRANCH  13  22
ATOM     19  N   LIG    1       17.988 -29.935  14.900  0.00  0.00    -0.210 N 
ATOM     20  C   LIG    1       19.078 -29.800  14.043  0.00  0.00    +0.351 C 
ATOM     21  O   LIG    1       19.291 -28.843  13.284  0.00  0.00    -0.244 OA
ATOM     22  N   LIG    1       19.840 -30.932  14.206  0.00  0.00    -0.250 N 
ATOM     23  C   LIG    1       19.122 -31.703  15.053  0.00  0.00    +0.230 C 
ATOM     24  N   LIG    1       18.024 -31.180  15.495  0.00  0.00    -0.157 NA
BRANCH  19  25
ATOM     25  C   LIG    1       16.927 -28.975  15.186  0.00  0.00    +0.109 C 
ATOM     26  C   LIG    1       15.895 -28.913  14.057  0.00  0.00    +0.033 C 
BRANCH  25  28
ATOM     27  C   LIG    1       16.844 -26.460  14.608  0.00  0.00    +0.006 C 
ATOM     28  C   LIG    1       17.436 -27.550  15.493  0.00  0.00    +0.023 C 
ENDBRANCH  25  28
ENDBRANCH  19  25
ENDBRANCH  13  22
ENDBRANCH   7  16
ENDBRANCH   1  10
BRANCH   4  29
ATOM     29  O   LIG    1       24.649 -26.578   5.543  0.00  0.00    -0.489 OA
BRANCH  29  30
ATOM     30  C   LIG    1       24.053 -25.383   6.091  0.00  0.00    +0.263 C 
BRANCH  30  31
ATOM     31  C   LIG    1       24.992 -24.170   5.956  0.00  0.00    +0.185 C 
ATOM     32  O   LIG    1       24.786 -23.176   6.980  0.00  0.00    -0.334 OA
ATOM     33  C   LIG    1       24.897 -21.875   6.355  0.00  0.00    +0.219 C 
ATOM     34  O   LIG    1       24.755 -22.076   4.929  0.00  0.00    -0.341 OA
ATOM     35  C   LIG    1       24.779 -23.465   4.643  0.00  0.00    +0.198 C 
BRANCH  33  36
ATOM     36  C   LIG    1       26.289 -21.235   6.606  0.00  0.00    +0.031 A 
ATOM     37  C   LIG    1       26.954 -20.317   5.762  0.00  0.00    +0.051 A 
ATOM     38 CL   LIG    1       26.241 -19.527   4.404  0.00  0.00    -0.083 Cl
ATOM     39  C   LIG    1       28.292 -19.941   5.995  0.00  0.00    +0.040 A 
ATOM     40  C   LIG    1       28.976 -20.409   7.106  0.00  0.00    +0.042 A 
ATOM     41 CL   LIG    1       30.606 -19.937   7.378  0.00  0.00    -0.084 Cl
ATOM     42  C   LIG    1       28.335 -21.247   8.001  0.00  0.00    +0.020 A 
ATOM     43  C   LIG    1       27.018 -21.651   7.752  0.00  0.00    +0.012 A 
ENDBRANCH  33  36
BRANCH  33  44
ATOM     44  C   LIG    1       23.672 -21.015   6.768  0.00  0.00    +0.215 C 
BRANCH  44  45
ATOM     45  N   LIG    1       22.986 -20.351   5.676  0.00  0.00    -0.246 N 
ATOM     46  N   LIG    1       23.468 -19.199   5.164  0.00  0.00    -0.158 NA
ATOM     47  C   LIG    1       22.553 -18.916   4.232  0.00  0.00    +0.244 A 
ATOM     48  N   LIG    1       21.524 -19.803   4.138  0.00  0.00    -0.223 NA
ATOM     49  C   LIG    1       21.814 -20.683   5.064  0.00  0.00    +0.219 A 
ENDBRANCH  44  45
ENDBRANCH  33  44
ENDBRANCH  30  31
ENDBRANCH  29  30
ENDBRANCH   4  29
TORSDOF 11
ENDMDL
MODEL 9
REMARK VINA RESULT:      -7.4      2.237      3.111
REMARK  Name = *****
REMARK                            x       y       z     vdW  Elec       q    Type
REMARK                         _______ _______ _______ _____ _____    ______ ____
ROOT
ATOM      1  C   LIG    1       24.679 -25.517   5.782  0.00  0.00    +0.030 A 
ATOM      2  C   LIG    1       24.325 -26.493   6.730  0.00  0.00    +0.027 A 
ATOM      3  C   LIG    1       24.650 -27.853   6.559  0.00  0.00    +0.047 A 
ATOM      4  C   LIG    1       25.277 -28.287   5.393  0.00  0.00    +0.121 A 
ATOM      5  C   LIG    1       25.673 -27.328   4.463  0.00  0.00    +0.047 A 
ATOM      6  C   LIG    1       25.400 -25.964   4.667  0.00  0.00    +0.027 A 
ENDROOT
BRANCH   1  10
ATOM      7  N   LIG    1       24.660 -21.289   6.375  0.00  0.00    -0.327 N 
ATOM      8  C   LIG    1       24.560 -21.800   4.984  0.00  0.00    +0.124 C 
ATOM      9  C   LIG    1       25.027 -23.280   4.894  0.00  0.00    +0.124 C 
ATOM     10  N   LIG    1       24.300 -24.157   5.856  0.00  0.00    -0.327 N 
ATOM     11  C   LIG    1       24.187 -23.605   7.229  0.00  0.00    +0.124 C 
ATOM     12  C   LIG    1       23.804 -22.106   7.268  0.00  0.00    +0.124 C 
BRANCH   7  16
ATOM     13  C   LIG    1       28.518 -20.042   7.727  0.00  0.00    +0.052 A 
ATOM     14  C   LIG    1       27.534 -20.452   8.624  0.00  0.00    +0.028 A 
ATOM     15  C   LIG    1       26.265 -20.852   8.163  0.00  0.00    +0.025 A 
ATOM     16  C   LIG    1       25.926 -20.870   6.799  0.00  0.00    +0.030 A 
ATOM     17  C   LIG    1       26.943 -20.498   5.917  0.00  0.00    +0.025 A 
ATOM     18  C   LIG    1       28.201 -20.075   6.366  0.00  0.00    +0.028 A 
BRANCH  13  22
ATOM     19  N   LIG    1       31.486 -18.509   9.036  0.00  0.00    -0.210 N 
ATOM     20  C   LIG    1       30.105 -18.684   9.086  0.00  0.00    +0.351 C 
ATOM     21  O   LIG    1       29.324 -18.084   9.840  0.00  0.00    -0.244 OA
ATOM     22  N   LIG    1       29.802 -19.647   8.154  0.00  0.00    -0.250 N 
ATOM     23  C   LIG    1       31.004 -20.055   7.688  0.00  0.00    +0.230 C 
ATOM     24  N   LIG    1       32.033 -19.432   8.166  0.00  0.00    -0.157 NA
BRANCH  19  25
ATOM     25  C   LIG    1       32.311 -17.542   9.751  0.00  0.00    +0.109 C 
ATOM     26  C   LIG    1       31.721 -17.189  11.118  0.00  0.00    +0.033 C 
BRANCH  25  28
ATOM     27  C   LIG    1       32.466 -14.965   9.781  0.00  0.00    +0.006 C 
ATOM     28  C   LIG    1       32.582 -16.243   8.960  0.00  0.00    +0.023 C 
ENDBRANCH  25  28
ENDBRANCH  19  25
ENDBRANCH  13  22
ENDBRANCH   7  16
ENDBRANCH   1  10
BRANCH   4  29
ATOM     29  O   LIG    1       25.449 -29.644   5.232  0.00  0.00    -0.489 OA
BRANCH  29  30
ATOM     30  C   LIG    1       24.264 -30.436   5.461  0.00  0.00    +0.263 C 
BRANCH  30  31
ATOM     31  C   LIG    1       24.229 -30.999   6.894  0.00  0.00    +0.185 C 
ATOM     32  O   LIG    1       25.524 -31.023   7.526  0.00  0.00    -0.334 OA
ATOM     33  C   LIG    1       25.622 -32.257   8.277  0.00  0.00    +0.219 C 
ATOM     34  O   LIG    1       24.591 -33.141   7.776  0.00  0.00    -0.341 OA
ATOM     35  C   LIG    1       23.734 -32.421   6.905  0.00  0.00    +0.198 C 
BRANCH  33  36
ATOM     36  C   LIG    1       25.356 -32.031   9.790  0.00  0.00    +0.031 A 
ATOM     37  C   LIG    1       26.058 -31.149  10.642  0.00  0.00    +0.051 A 
ATOM     38 CL   LIG    1       27.188 -29.956  10.115  0.00  0.00    -0.083 Cl
ATOM     39  C   LIG    1       25.855 -31.157  12.036  0.00  0.00    +0.040 A 
ATOM     40  C   LIG    1       24.904 -31.988  12.608  0.00  0.00    +0.042 A 
ATOM     41 CL   LIG    1       24.666 -31.982  14.311  0.00  0.00    -0.084 Cl
ATOM     42  C   LIG    1       24.140 -32.810  11.801  0.00  0.00    +0.020 A 
ATOM     43  C   LIG    1       24.365 -32.830  10.419  0.00  0.00    +0.012 A 
ENDBRANCH  33  36
BRANCH  33  44
ATOM     44  C   LIG    1       26.963 -32.954   7.922  0.00  0.00    +0.215 C 
BRANCH  44  45
ATOM     45  N   LIG    1       27.141 -33.271   6.517  0.00  0.00    -0.246 N 
ATOM     46  N   LIG    1       26.073 -33.511   5.728  0.00  0.00    -0.158 NA
ATOM     47  C   LIG    1       26.659 -33.785   4.559  0.00  0.00    +0.244 A 
ATOM     48  N   LIG    1       28.020 -33.749   4.567  0.00  0.00    -0.223 NA
ATOM     49  C   LIG    1       28.295 -33.439   5.811  0.00  0.00    +0.219 A 
ENDBRANCH  44  45
ENDBRANCH  33  44
ENDBRANCH  30  31
ENDBRANCH  29  30
ENDBRANCH   4  29
TORSDOF 11
ENDMDL
