MODEL 1
REMARK VINA RESULT:     -10.1      0.000      0.000
REMARK  Name = *****
REMARK                            x       y       z     vdW  Elec       q    Type
REMARK                         _______ _______ _______ _____ _____    ______ ____
ROOT
ATOM      1  C   LIG    1       27.693 -20.557   7.358  0.00  0.00    +0.165 C 
ATOM      2  C   LIG    1       26.729 -21.548   7.942  0.00  0.00    +0.249 C 
ATOM      3  O   LIG    1       26.830 -21.998   9.081  0.00  0.00    -0.273 OA
ATOM      4  N   LIG    1       25.838 -21.893   6.921  0.00  0.00    -0.180 N 
ATOM      5  N   LIG    1       25.981 -20.984   5.830  0.00  0.00    -0.180 N 
ATOM      6  C   LIG    1       27.101 -20.161   6.042  0.00  0.00    +0.249 C 
ATOM      7  O   LIG    1       27.511 -19.223   5.365  0.00  0.00    -0.273 OA
ENDROOT
BRANCH   4   8
ATOM      8  C   LIG    1       25.329 -23.224   6.743  0.00  0.00    +0.057 A 
ATOM      9  C   LIG    1       23.948 -23.483   6.748  0.00  0.00    +0.029 A 
ATOM     10  C   LIG    1       23.446 -24.761   6.471  0.00  0.00    +0.047 A 
ATOM     11  C   LIG    1       24.317 -25.797   6.176  0.00  0.00    +0.117 A 
ATOM     12  C   LIG    1       25.687 -25.587   6.197  0.00  0.00    +0.047 A 
ATOM     13  C   LIG    1       26.185 -24.311   6.493  0.00  0.00    +0.029 A 
BRANCH  11  14
ATOM     14  O   LIG    1       23.786 -27.011   5.861  0.00  0.00    -0.507 OA
ATOM     15  H   LIG    1       23.160 -27.269   6.558  0.00  0.00    +0.292 HD
ENDBRANCH  11  14
ENDBRANCH   4   8
BRANCH   5  16
ATOM     16  C   LIG    1       24.841 -20.381   5.223  0.00  0.00    +0.057 A 
ATOM     17  C   LIG    1       24.923 -19.879   3.917  0.00  0.00    +0.025 A 
ATOM     18  C   LIG    1       23.825 -19.244   3.336  0.00  0.00    +0.002 A 
ATOM     19  C   LIG    1       22.644 -19.097   4.059  0.00  0.00    +0.000 A 
ATOM     20  C   LIG    1       22.551 -19.601   5.355  0.00  0.00    +0.002 A 
ATOM     21  C   LIG    1       23.641 -20.252   5.930  0.00  0.00    +0.025 A 
ENDBRANCH   5  16
BRANCH   1  22
ATOM     22  C   LIG    1       29.097 -21.139   7.196  0.00  0.00    +0.022 C 
BRANCH  22  23
ATOM     23  C   LIG    1       30.215 -20.366   7.918  0.00  0.00    +0.001 C 
BRANCH  23  25
ATOM     24  C   LIG    1       30.129 -18.081   9.061  0.00  0.00    +0.004 C 
ATOM     25  C   LIG    1       30.088 -18.849   7.748  0.00  0.00    -0.003 C 
ENDBRANCH  23  25
ENDBRANCH  22  23
ENDBRANCH   1  22
TORSDOF 6
ENDMDL
MODEL 2
REMARK VINA RESULT:      -8.6      1.809      5.934
REMARK  Name = *****
REMARK                            x       y       z     vdW  Elec       q    Type
REMARK                         _______ _______ _______ _____ _____    ______ ____
ROOT
ATOM      1  C   LIG    1       23.341 -21.163   7.147  0.00  0.00    +0.165 C 
ATOM      2  C   LIG    1       24.667 -20.999   7.832  0.00  0.00    +0.249 C 
ATOM      3  O   LIG    1       24.842 -20.263   8.800  0.00  0.00    -0.273 OA
ATOM      4  N   LIG    1       25.597 -21.731   7.087  0.00  0.00    -0.180 N 
ATOM      5  N   LIG    1       24.915 -22.577   6.162  0.00  0.00    -0.180 N 
ATOM      6  C   LIG    1       23.544 -22.261   6.152  0.00  0.00    +0.249 C 
ATOM      7  O   LIG    1       22.629 -22.804   5.540  0.00  0.00    -0.273 OA
ENDROOT
BRANCH   4   8
ATOM      8  C   LIG    1       26.944 -21.287   6.863  0.00  0.00    +0.057 A 
ATOM      9  C   LIG    1       27.239 -20.314   5.893  0.00  0.00    +0.029 A 
ATOM     10  C   LIG    1       28.535 -19.805   5.743  0.00  0.00    +0.047 A 
ATOM     11  C   LIG    1       29.554 -20.253   6.569  0.00  0.00    +0.117 A 
ATOM     12  C   LIG    1       29.307 -21.237   7.513  0.00  0.00    +0.047 A 
ATOM     13  C   LIG    1       28.013 -21.758   7.646  0.00  0.00    +0.029 A 
BRANCH  11  14
ATOM     14  O   LIG    1       30.787 -19.693   6.427  0.00  0.00    -0.507 OA
ATOM     15  H   LIG    1       31.251 -19.736   7.280  0.00  0.00    +0.292 HD
ENDBRANCH  11  14
ENDBRANCH   4   8
BRANCH   5  16
ATOM     16  C   LIG    1       25.261 -23.954   6.032  0.00  0.00    +0.057 A 
ATOM     17  C   LIG    1       25.089 -24.610   4.805  0.00  0.00    +0.025 A 
ATOM     18  C   LIG    1       25.380 -25.969   4.686  0.00  0.00    +0.002 A 
ATOM     19  C   LIG    1       25.835 -26.682   5.792  0.00  0.00    +0.000 A 
ATOM     20  C   LIG    1       26.018 -26.036   7.013  0.00  0.00    +0.002 A 
ATOM     21  C   LIG    1       25.743 -24.674   7.130  0.00  0.00    +0.025 A 
ENDBRANCH   5  16
BRANCH   1  22
ATOM     22  C   LIG    1       22.871 -19.871   6.479  0.00  0.00    +0.022 C 
BRANCH  22  23
ATOM     23  C   LIG    1       22.502 -20.000   4.990  0.00  0.00    +0.001 C 
BRANCH  23  25
ATOM     24  C   LIG    1       24.568 -19.885   3.488  0.00  0.00    +0.004 C 
ATOM     25  C   LIG    1       23.386 -19.134   4.086  0.00  0.00    -0.003 C 
ENDBRANCH  23  25
ENDBRANCH  22  23
ENDBRANCH   1  22
TORSDOF 6
ENDMDL
MODEL 3
REMARK VINA RESULT:      -8.5      1.407      4.720
REMARK  Name = *****
REMARK                            x       y       z     vdW  Elec       q    Type
REMARK                         _______ _______ _______ _____ _____    ______ ____
ROOT
ATOM      1  C   LIG    1       27.889 -20.804   7.216  0.00  0.00    +0.165 C 
ATOM      2  C   LIG    1       27.260 -20.452   5.900  0.00  0.00    +0.249 C 
ATOM      3  O   LIG    1       27.794 -19.722   5.069  0.00  0.00    -0.273 OA
ATOM      4  N   LIG    1       25.978 -21.012   5.904  0.00  0.00    -0.180 N 
ATOM      5  N   LIG    1       25.858 -21.931   6.989  0.00  0.00    -0.180 N 
ATOM      6  C   LIG    1       26.987 -21.833   7.821  0.00  0.00    +0.249 C 
ATOM      7  O   LIG    1       27.280 -22.497   8.811  0.00  0.00    -0.273 OA
ENDROOT
BRANCH   4   8
ATOM      8  C   LIG    1       24.836 -20.358   5.329  0.00  0.00    +0.057 A 
ATOM      9  C   LIG    1       23.614 -20.285   6.019  0.00  0.00    +0.029 A 
ATOM     10  C   LIG    1       22.531 -19.560   5.507  0.00  0.00    +0.047 A 
ATOM     11  C   LIG    1       22.657 -18.887   4.302  0.00  0.00    +0.117 A 
ATOM     12  C   LIG    1       23.836 -18.965   3.578  0.00  0.00    +0.047 A 
ATOM     13  C   LIG    1       24.910 -19.708   4.085  0.00  0.00    +0.029 A 
BRANCH  11  14
ATOM     14  O   LIG    1       21.598 -18.150   3.866  0.00  0.00    -0.507 OA
ATOM     15  H   LIG    1       21.876 -17.628   3.095  0.00  0.00    +0.292 HD
ENDBRANCH  11  14
ENDBRANCH   4   8
BRANCH   5  16
ATOM     16  C   LIG    1       25.312 -23.233   6.792  0.00  0.00    +0.057 A 
ATOM     17  C   LIG    1       26.157 -24.314   6.507  0.00  0.00    +0.025 A 
ATOM     18  C   LIG    1       25.624 -25.581   6.265  0.00  0.00    +0.002 A 
ATOM     19  C   LIG    1       24.245 -25.772   6.295  0.00  0.00    +0.000 A 
ATOM     20  C   LIG    1       23.398 -24.704   6.585  0.00  0.00    +0.002 A 
ATOM     21  C   LIG    1       23.930 -23.442   6.845  0.00  0.00    +0.025 A 
ENDBRANCH   5  16
BRANCH   1  22
ATOM     22  C   LIG    1       28.051 -19.586   8.125  0.00  0.00    +0.022 C 
BRANCH  22  23
ATOM     23  C   LIG    1       29.485 -19.043   8.246  0.00  0.00    +0.001 C 
BRANCH  23  25
ATOM     24  C   LIG    1       31.085 -20.953   8.824  0.00  0.00    +0.004 C 
ATOM     25  C   LIG    1       30.537 -20.036   7.739  0.00  0.00    -0.003 C 
ENDBRANCH  23  25
ENDBRANCH  22  23
ENDBRANCH   1  22
TORSDOF 6
ENDMDL
MODEL 4
REMARK VINA RESULT:      -7.6      2.022      6.418
REMARK  Name = *****
REMARK                            x       y       z     vdW  Elec       q    Type
REMARK                         _______ _______ _______ _____ _____    ______ ____
ROOT
ATOM      1  C   LIG    1       24.370 -24.804   6.581  0.00  0.00    +0.165 C 
ATOM      2  C   LIG    1       23.432 -23.633   6.616  0.00  0.00    +0.249 C 
ATOM      3  O   LIG    1       22.218 -23.743   6.776  0.00  0.00    -0.273 OA
ATOM      4  N   LIG    1       24.194 -22.497   6.324  0.00  0.00    -0.180 N 
ATOM      5  N   LIG    1       25.583 -22.818   6.398  0.00  0.00    -0.180 N 
ATOM      6  C   LIG    1       25.742 -24.208   6.541  0.00  0.00    +0.249 C 
ATOM      7  O   LIG    1       26.771 -24.857   6.699  0.00  0.00    -0.273 OA
ENDROOT
BRANCH   4   8
ATOM      8  C   LIG    1       23.704 -21.410   5.525  0.00  0.00    +0.057 A 
ATOM      9  C   LIG    1       22.772 -20.491   6.037  0.00  0.00    +0.029 A 
ATOM     10  C   LIG    1       22.372 -19.371   5.297  0.00  0.00    +0.047 A 
ATOM     11  C   LIG    1       22.906 -19.148   4.037  0.00  0.00    +0.117 A 
ATOM     12  C   LIG    1       23.800 -20.051   3.487  0.00  0.00    +0.047 A 
ATOM     13  C   LIG    1       24.183 -21.180   4.223  0.00  0.00    +0.029 A 
BRANCH  11  14
ATOM     14  O   LIG    1       22.530 -18.019   3.373  0.00  0.00    -0.507 OA
ATOM     15  H   LIG    1       22.539 -18.200   2.419  0.00  0.00    +0.292 HD
ENDBRANCH  11  14
ENDBRANCH   4   8
BRANCH   5  16
ATOM     16  C   LIG    1       26.491 -21.987   7.116  0.00  0.00    +0.057 A 
ATOM     17  C   LIG    1       26.020 -21.138   8.127  0.00  0.00    +0.025 A 
ATOM     18  C   LIG    1       26.898 -20.287   8.799  0.00  0.00    +0.002 A 
ATOM     19  C   LIG    1       28.249 -20.272   8.459  0.00  0.00    +0.000 A 
ATOM     20  C   LIG    1       28.727 -21.119   7.461  0.00  0.00    +0.002 A 
ATOM     21  C   LIG    1       27.854 -21.982   6.801  0.00  0.00    +0.025 A 
ENDBRANCH   5  16
BRANCH   1  22
ATOM     22  C   LIG    1       24.113 -25.718   5.384  0.00  0.00    +0.022 C 
BRANCH  22  23
ATOM     23  C   LIG    1       24.932 -27.020   5.364  0.00  0.00    +0.001 C 
BRANCH  23  25
ATOM     24  C   LIG    1       24.117 -29.336   6.075  0.00  0.00    +0.004 C 
ATOM     25  C   LIG    1       24.579 -27.957   6.523  0.00  0.00    -0.003 C 
ENDBRANCH  23  25
ENDBRANCH  22  23
ENDBRANCH   1  22
TORSDOF 6
ENDMDL
