MODEL 1
REMARK VINA RESULT:      -8.3      0.000      0.000
REMARK  Name = *****
REMARK                            x       y       z     vdW  Elec       q    Type
REMARK                         _______ _______ _______ _____ _____    ______ ____
ROOT
ATOM      1  C   LIG    1       23.644 -22.405   7.120  0.00  0.00    +0.042 C 
ATOM      2  C   LIG    1       24.770 -21.675   6.389  0.00  0.00    +0.069 C 
ATOM      3  C   LIG    1       26.004 -21.253   7.265  0.00  0.00    -0.000 C 
ATOM      4  C   LIG    1       25.545 -20.713   8.644  0.00  0.00    +0.014 C 
ATOM      5  C   LIG    1       26.638 -20.039   6.451  0.00  0.00    +0.001 C 
ATOM      6  C   LIG    1       28.033 -20.277   5.838  0.00  0.00    -0.004 C 
ATOM      7  C   LIG    1       28.911 -21.132   6.740  0.00  0.00    -0.001 C 
ATOM      8  C   LIG    1       28.231 -22.495   6.865  0.00  0.00    +0.005 C 
ATOM      9  C   LIG    1       29.764 -20.386   7.923  0.00  0.00    -0.022 C 
ATOM     10  C   LIG    1       30.312 -21.517   8.822  0.00  0.00    +0.012 C 
ATOM     11  C   LIG    1       30.794 -19.646   6.982  0.00  0.00    +0.001 C 
ATOM     12  C   LIG    1       32.024 -18.931   7.565  0.00  0.00    +0.059 C 
ATOM     13  C   LIG    1       31.556 -18.123   8.690  0.00  0.00    +0.040 A 
ATOM     14  C   LIG    1       30.287 -18.117   9.195  0.00  0.00    -0.006 A 
ATOM     15  C   LIG    1       30.161 -16.737   9.538  0.00  0.00    +0.138 A 
ATOM     16  N   LIG    1       31.330 -16.082   9.540  0.00  0.00    -0.182 NA
ATOM     17  N   LIG    1       32.224 -16.994   9.111  0.00  0.00    -0.281 N 
ATOM     18  H   LIG    1       33.175 -16.735   8.971  0.00  0.00    +0.189 HD
ATOM     19  C   LIG    1       29.923 -18.566   6.213  0.00  0.00    +0.005 C 
ATOM     20  C   LIG    1       29.228 -19.241   8.948  0.00  0.00    +0.045 C 
ATOM     21  C   LIG    1       28.804 -19.064   5.312  0.00  0.00    +0.004 C 
ATOM     22  C   LIG    1       25.597 -19.698   5.351  0.00  0.00    +0.007 C 
ATOM     23  C   LIG    1       26.935 -22.444   7.616  0.00  0.00    +0.010 C 
ATOM     24  C   LIG    1       24.293 -20.348   5.799  0.00  0.00    +0.035 C 
ENDROOT
BRANCH   2  25
ATOM     25  O   LIG    1       25.171 -22.480   5.272  0.00  0.00    -0.388 OA
ATOM     26  H   LIG    1       26.072 -22.240   5.005  0.00  0.00    +0.210 HD
ENDBRANCH   2  25
TORSDOF 1
ENDMDL
MODEL 2
REMARK VINA RESULT:      -6.8      4.119      6.873
REMARK  Name = *****
REMARK                            x       y       z     vdW  Elec       q    Type
REMARK                         _______ _______ _______ _____ _____    ______ ____
ROOT
ATOM      1  C   LIG    1       31.289 -18.949   7.865  0.00  0.00    +0.042 C 
ATOM      2  C   LIG    1       29.947 -18.983   7.136  0.00  0.00    +0.069 C 
ATOM      3  C   LIG    1       29.040 -20.237   7.411  0.00  0.00    -0.000 C 
ATOM      4  C   LIG    1       29.890 -21.533   7.459  0.00  0.00    +0.014 C 
ATOM      5  C   LIG    1       28.109 -20.311   6.121  0.00  0.00    +0.001 C 
ATOM      6  C   LIG    1       26.607 -20.041   6.343  0.00  0.00    -0.004 C 
ATOM      7  C   LIG    1       26.119 -20.604   7.670  0.00  0.00    -0.001 C 
ATOM      8  C   LIG    1       26.880 -19.870   8.774  0.00  0.00    +0.005 C 
ATOM      9  C   LIG    1       25.653 -22.173   7.722  0.00  0.00    -0.022 C 
ATOM     10  C   LIG    1       25.492 -22.514   9.220  0.00  0.00    +0.012 C 
ATOM     11  C   LIG    1       24.333 -22.012   6.870  0.00  0.00    +0.001 C 
ATOM     12  C   LIG    1       23.319 -23.162   6.759  0.00  0.00    +0.059 C 
ATOM     13  C   LIG    1       24.078 -24.374   6.459  0.00  0.00    +0.040 A 
ATOM     14  C   LIG    1       25.440 -24.473   6.417  0.00  0.00    -0.006 A 
ATOM     15  C   LIG    1       25.590 -25.399   5.341  0.00  0.00    +0.138 A 
ATOM     16  N   LIG    1       24.449 -26.019   5.011  0.00  0.00    -0.182 NA
ATOM     17  N   LIG    1       23.519 -25.446   5.800  0.00  0.00    -0.281 N 
ATOM     18  H   LIG    1       22.560 -25.700   5.708  0.00  0.00    +0.189 HD
ATOM     19  C   LIG    1       24.844 -21.671   5.408  0.00  0.00    +0.005 C 
ATOM     20  C   LIG    1       26.425 -23.448   7.070  0.00  0.00    +0.045 C 
ATOM     21  C   LIG    1       25.638 -20.390   5.211  0.00  0.00    +0.004 C 
ATOM     22  C   LIG    1       28.716 -19.291   5.120  0.00  0.00    +0.007 C 
ATOM     23  C   LIG    1       28.344 -20.189   8.797  0.00  0.00    +0.010 C 
ATOM     24  C   LIG    1       30.130 -19.014   5.618  0.00  0.00    +0.035 C 
ENDROOT
BRANCH   2  25
ATOM     25  O   LIG    1       29.252 -17.761   7.423  0.00  0.00    -0.388 OA
ATOM     26  H   LIG    1       29.036 -17.308   6.593  0.00  0.00    +0.210 HD
ENDBRANCH   2  25
TORSDOF 1
ENDMDL
MODEL 3
REMARK VINA RESULT:      -6.5      9.705     11.985
REMARK  Name = *****
REMARK                            x       y       z     vdW  Elec       q    Type
REMARK                         _______ _______ _______ _____ _____    ______ ____
ROOT
ATOM      1  C   LIG    1       26.697 -27.090  15.148  0.00  0.00    +0.042 C 
ATOM      2  C   LIG    1       25.581 -27.833  14.415  0.00  0.00    +0.069 C 
ATOM      3  C   LIG    1       25.900 -28.285  12.944  0.00  0.00    -0.000 C 
ATOM      4  C   LIG    1       26.677 -27.179  12.183  0.00  0.00    +0.014 C 
ATOM      5  C   LIG    1       24.459 -28.415  12.276  0.00  0.00    +0.001 C 
ATOM      6  C   LIG    1       24.013 -29.837  11.879  0.00  0.00    -0.004 C 
ATOM      7  C   LIG    1       25.175 -30.671  11.357  0.00  0.00    -0.001 C 
ATOM      8  C   LIG    1       26.175 -30.813  12.505  0.00  0.00    +0.005 C 
ATOM      9  C   LIG    1       25.563 -30.551   9.771  0.00  0.00    -0.022 C 
ATOM     10  C   LIG    1       26.921 -31.272   9.616  0.00  0.00    +0.012 C 
ATOM     11  C   LIG    1       24.285 -31.284   9.202  0.00  0.00    +0.001 C 
ATOM     12  C   LIG    1       24.193 -31.676   7.718  0.00  0.00    +0.059 C 
ATOM     13  C   LIG    1       24.608 -30.509   6.941  0.00  0.00    +0.040 A 
ATOM     14  C   LIG    1       25.103 -29.343   7.454  0.00  0.00    -0.006 A 
ATOM     15  C   LIG    1       24.524 -28.406   6.546  0.00  0.00    +0.138 A 
ATOM     16  N   LIG    1       24.021 -28.977   5.442  0.00  0.00    -0.182 NA
ATOM     17  N   LIG    1       24.180 -30.299   5.649  0.00  0.00    -0.281 N 
ATOM     18  H   LIG    1       23.832 -30.954   4.985  0.00  0.00    +0.189 HD
ATOM     19  C   LIG    1       23.087 -30.294   9.518  0.00  0.00    +0.005 C 
ATOM     20  C   LIG    1       25.696 -29.188   8.892  0.00  0.00    +0.045 C 
ATOM     21  C   LIG    1       22.787 -29.981  10.975  0.00  0.00    +0.004 C 
ATOM     22  C   LIG    1       23.476 -27.790  13.303  0.00  0.00    +0.007 C 
ATOM     23  C   LIG    1       26.836 -29.520  12.878  0.00  0.00    +0.010 C 
ATOM     24  C   LIG    1       24.336 -26.961  14.249  0.00  0.00    +0.035 C 
ENDROOT
BRANCH   2  25
ATOM     25  O   LIG    1       25.177 -28.944  15.228  0.00  0.00    -0.388 OA
ATOM     26  H   LIG    1       24.984 -29.707  14.661  0.00  0.00    +0.210 HD
ENDBRANCH   2  25
TORSDOF 1
ENDMDL
MODEL 4
REMARK VINA RESULT:      -5.6      9.436     11.026
REMARK  Name = *****
REMARK                            x       y       z     vdW  Elec       q    Type
REMARK                         _______ _______ _______ _____ _____    ______ ____
ROOT
ATOM      1  C   LIG    1       23.297 -32.702   6.604  0.00  0.00    +0.042 C 
ATOM      2  C   LIG    1       24.298 -31.631   7.037  0.00  0.00    +0.069 C 
ATOM      3  C   LIG    1       24.294 -31.255   8.562  0.00  0.00    -0.000 C 
ATOM      4  C   LIG    1       22.845 -31.177   9.109  0.00  0.00    +0.014 C 
ATOM      5  C   LIG    1       24.902 -29.782   8.581  0.00  0.00    +0.001 C 
ATOM      6  C   LIG    1       26.280 -29.618   9.254  0.00  0.00    -0.004 C 
ATOM      7  C   LIG    1       26.429 -30.522  10.470  0.00  0.00    -0.001 C 
ATOM      8  C   LIG    1       26.337 -31.963   9.971  0.00  0.00    +0.005 C 
ATOM      9  C   LIG    1       25.868 -29.980  11.910  0.00  0.00    -0.022 C 
ATOM     10  C   LIG    1       25.900 -31.200  12.859  0.00  0.00    +0.012 C 
ATOM     11  C   LIG    1       26.959 -28.860  12.135  0.00  0.00    +0.001 C 
ATOM     12  C   LIG    1       27.076 -28.129  13.482  0.00  0.00    +0.059 C 
ATOM     13  C   LIG    1       25.724 -27.732  13.872  0.00  0.00    +0.040 A 
ATOM     14  C   LIG    1       24.573 -28.068  13.216  0.00  0.00    -0.006 A 
ATOM     15  C   LIG    1       23.824 -26.866  13.395  0.00  0.00    +0.138 A 
ATOM     16  N   LIG    1       24.343 -26.050  14.323  0.00  0.00    -0.182 NA
ATOM     17  N   LIG    1       25.484 -26.658  14.700  0.00  0.00    -0.281 N 
ATOM     18  H   LIG    1       26.093 -26.218  15.354  0.00  0.00    +0.189 HD
ATOM     19  C   LIG    1       26.650 -27.777  11.019  0.00  0.00    +0.005 C 
ATOM     20  C   LIG    1       24.444 -29.248  12.198  0.00  0.00    +0.045 C 
ATOM     21  C   LIG    1       26.766 -28.200   9.563  0.00  0.00    +0.004 C 
ATOM     22  C   LIG    1       24.955 -29.343   7.093  0.00  0.00    +0.007 C 
ATOM     23  C   LIG    1       24.977 -32.325   9.452  0.00  0.00    +0.010 C 
ATOM     24  C   LIG    1       24.025 -30.294   6.347  0.00  0.00    +0.035 C 
ENDROOT
BRANCH   2  25
ATOM     25  O   LIG    1       25.602 -32.039   6.601  0.00  0.00    -0.388 OA
ATOM     26  H   LIG    1       26.018 -31.318   6.103  0.00  0.00    +0.210 HD
ENDBRANCH   2  25
TORSDOF 1
ENDMDL
MODEL 5
REMARK VINA RESULT:      -5.5     10.761     13.025
REMARK  Name = *****
REMARK                            x       y       z     vdW  Elec       q    Type
REMARK                         _______ _______ _______ _____ _____    ______ ____
ROOT
ATOM      1  C   LIG    1       25.073 -26.454  15.170  0.00  0.00    +0.042 C 
ATOM      2  C   LIG    1       23.969 -27.260  14.486  0.00  0.00    +0.069 C 
ATOM      3  C   LIG    1       24.426 -28.216  13.326  0.00  0.00    -0.000 C 
ATOM      4  C   LIG    1       25.502 -27.535  12.441  0.00  0.00    +0.014 C 
ATOM      5  C   LIG    1       23.109 -28.388  12.447  0.00  0.00    +0.001 C 
ATOM      6  C   LIG    1       22.478 -29.795  12.424  0.00  0.00    -0.004 C 
ATOM      7  C   LIG    1       23.535 -30.891  12.439  0.00  0.00    -0.001 C 
ATOM      8  C   LIG    1       24.300 -30.757  13.755  0.00  0.00    +0.005 C 
ATOM      9  C   LIG    1       24.183 -31.361  11.010  0.00  0.00    -0.022 C 
ATOM     10  C   LIG    1       25.393 -32.251  11.370  0.00  0.00    +0.012 C 
ATOM     11  C   LIG    1       22.897 -32.082  10.442  0.00  0.00    +0.001 C 
ATOM     12  C   LIG    1       22.969 -32.937   9.167  0.00  0.00    +0.059 C 
ATOM     13  C   LIG    1       23.707 -32.161   8.172  0.00  0.00    +0.040 A 
ATOM     14  C   LIG    1       24.320 -30.959   8.391  0.00  0.00    -0.006 A 
ATOM     15  C   LIG    1       24.072 -30.320   7.138  0.00  0.00    +0.138 A 
ATOM     16  N   LIG    1       23.653 -31.164   6.186  0.00  0.00    -0.182 NA
ATOM     17  N   LIG    1       23.532 -32.348   6.818  0.00  0.00    -0.281 N 
ATOM     18  H   LIG    1       23.178 -33.141   6.332  0.00  0.00    +0.189 HD
ATOM     19  C   LIG    1       21.866 -30.905  10.181  0.00  0.00    +0.005 C 
ATOM     20  C   LIG    1       24.699 -30.401   9.802  0.00  0.00    +0.045 C 
ATOM     21  C   LIG    1       21.403 -30.085  11.374  0.00  0.00    +0.004 C 
ATOM     22  C   LIG    1       22.108 -27.339  13.003  0.00  0.00    +0.007 C 
ATOM     23  C   LIG    1       25.120 -29.505  13.841  0.00  0.00    +0.010 C 
ATOM     24  C   LIG    1       22.946 -26.350  13.804  0.00  0.00    +0.035 C 
ENDROOT
BRANCH   2  25
ATOM     25  O   LIG    1       23.246 -27.973  15.499  0.00  0.00    -0.388 OA
ATOM     26  H   LIG    1       22.368 -28.212  15.164  0.00  0.00    +0.210 HD
ENDBRANCH   2  25
TORSDOF 1
ENDMDL
MODEL 6
REMARK VINA RESULT:      -5.5      9.191     10.776
REMARK  Name = *****
REMARK                            x       y       z     vdW  Elec       q    Type
REMARK                         _______ _______ _______ _____ _____    ______ ____
ROOT
ATOM      1  C   LIG    1       22.221 -32.346   9.810  0.00  0.00    +0.042 C 
ATOM      2  C   LIG    1       23.534 -31.567   9.869  0.00  0.00    +0.069 C 
ATOM      3  C   LIG    1       23.717 -30.609  11.100  0.00  0.00    -0.000 C 
ATOM      4  C   LIG    1       22.398 -29.859  11.418  0.00  0.00    +0.014 C 
ATOM      5  C   LIG    1       24.775 -29.536  10.580  0.00  0.00    +0.001 C 
ATOM      6  C   LIG    1       26.157 -29.549  11.264  0.00  0.00    -0.004 C 
ATOM      7  C   LIG    1       26.052 -29.859  12.751  0.00  0.00    -0.001 C 
ATOM      8  C   LIG    1       25.472 -31.267  12.874  0.00  0.00    +0.005 C 
ATOM      9  C   LIG    1       25.760 -28.620  13.781  0.00  0.00    -0.022 C 
ATOM     10  C   LIG    1       25.430 -29.275  15.141  0.00  0.00    +0.012 C 
ATOM     11  C   LIG    1       27.166 -27.914  13.640  0.00  0.00    +0.001 C 
ATOM     12  C   LIG    1       27.571 -26.765  14.578  0.00  0.00    +0.059 C 
ATOM     13  C   LIG    1       26.441 -25.840  14.633  0.00  0.00    +0.040 A 
ATOM     14  C   LIG    1       25.218 -26.038  14.058  0.00  0.00    -0.006 A 
ATOM     15  C   LIG    1       24.912 -24.702  13.656  0.00  0.00    +0.138 A 
ATOM     16  N   LIG    1       25.708 -23.783  14.219  0.00  0.00    -0.182 NA
ATOM     17  N   LIG    1       26.602 -24.503  14.924  0.00  0.00    -0.281 N 
ATOM     18  H   LIG    1       27.347 -24.046  15.401  0.00  0.00    +0.189 HD
ATOM     19  C   LIG    1       27.183 -27.358  12.155  0.00  0.00    +0.005 C 
ATOM     20  C   LIG    1       24.667 -27.428  13.600  0.00  0.00    +0.045 C 
ATOM     21  C   LIG    1       27.093 -28.363  11.017  0.00  0.00    +0.004 C 
ATOM     22  C   LIG    1       24.906 -29.799   9.055  0.00  0.00    +0.007 C 
ATOM     23  C   LIG    1       24.049 -31.365  12.413  0.00  0.00    +0.010 C 
ATOM     24  C   LIG    1       23.686 -30.628   8.671  0.00  0.00    +0.035 C 
ENDROOT
BRANCH   2  25
ATOM     25  O   LIG    1       24.614 -32.507   9.770  0.00  0.00    -0.388 OA
ATOM     26  H   LIG    1       24.305 -33.385  10.043  0.00  0.00    +0.210 HD
ENDBRANCH   2  25
TORSDOF 1
ENDMDL
MODEL 7
REMARK VINA RESULT:      -5.5     10.174     12.427
REMARK  Name = *****
REMARK                            x       y       z     vdW  Elec       q    Type
REMARK                         _______ _______ _______ _____ _____    ______ ____
ROOT
ATOM      1  C   LIG    1       25.016 -33.270   5.242  0.00  0.00    +0.042 C 
ATOM      2  C   LIG    1       24.147 -32.663   6.342  0.00  0.00    +0.069 C 
ATOM      3  C   LIG    1       24.912 -32.019   7.554  0.00  0.00    -0.000 C 
ATOM      4  C   LIG    1       26.128 -32.891   7.966  0.00  0.00    +0.014 C 
ATOM      5  C   LIG    1       23.848 -32.076   8.737  0.00  0.00    +0.001 C 
ATOM      6  C   LIG    1       23.316 -30.721   9.247  0.00  0.00    -0.004 C 
ATOM      7  C   LIG    1       24.397 -29.650   9.244  0.00  0.00    -0.001 C 
ATOM      8  C   LIG    1       24.826 -29.451   7.791  0.00  0.00    +0.005 C 
ATOM      9  C   LIG    1       25.384 -29.542  10.546  0.00  0.00    -0.022 C 
ATOM     10  C   LIG    1       26.523 -28.583  10.132  0.00  0.00    +0.012 C 
ATOM     11  C   LIG    1       24.307 -28.990  11.561  0.00  0.00    +0.001 C 
ATOM     12  C   LIG    1       24.720 -28.474  12.950  0.00  0.00    +0.059 C 
ATOM     13  C   LIG    1       25.627 -29.467  13.523  0.00  0.00    +0.040 A 
ATOM     14  C   LIG    1       26.107 -30.574  12.881  0.00  0.00    -0.006 A 
ATOM     15  C   LIG    1       26.124 -31.503  13.966  0.00  0.00    +0.138 A 
ATOM     16  N   LIG    1       25.984 -30.922  15.165  0.00  0.00    -0.182 NA
ATOM     17  N   LIG    1       25.783 -29.620  14.883  0.00  0.00    -0.281 N 
ATOM     18  H   LIG    1       25.596 -28.973  15.616  0.00  0.00    +0.189 HD
ATOM     19  C   LIG    1       23.304 -30.200  11.771  0.00  0.00    +0.005 C 
ATOM     20  C   LIG    1       26.116 -30.767  11.329  0.00  0.00    +0.045 C 
ATOM     21  C   LIG    1       22.533 -30.704  10.562  0.00  0.00    +0.004 C 
ATOM     22  C   LIG    1       22.690 -32.962   8.202  0.00  0.00    +0.007 C 
ATOM     23  C   LIG    1       25.535 -30.639   7.214  0.00  0.00    +0.010 C 
ATOM     24  C   LIG    1       23.264 -33.718   7.010  0.00  0.00    +0.035 C 
ENDROOT
BRANCH   2  25
ATOM     25  O   LIG    1       23.247 -31.726   5.734  0.00  0.00    -0.388 OA
ATOM     26  H   LIG    1       23.725 -31.198   5.075  0.00  0.00    +0.210 HD
ENDBRANCH   2  25
TORSDOF 1
ENDMDL
MODEL 8
REMARK VINA RESULT:      -5.5     10.264     12.591
REMARK  Name = *****
REMARK                            x       y       z     vdW  Elec       q    Type
REMARK                         _______ _______ _______ _____ _____    ______ ____
ROOT
ATOM      1  C   LIG    1       26.251 -31.373   8.171  0.00  0.00    +0.042 C 
ATOM      2  C   LIG    1       26.280 -30.507   9.430  0.00  0.00    +0.069 C 
ATOM      3  C   LIG    1       24.926 -30.380  10.215  0.00  0.00    -0.000 C 
ATOM      4  C   LIG    1       23.732 -30.223   9.237  0.00  0.00    +0.014 C 
ATOM      5  C   LIG    1       25.087 -29.010  11.012  0.00  0.00    +0.001 C 
ATOM      6  C   LIG    1       25.168 -29.115  12.548  0.00  0.00    -0.004 C 
ATOM      7  C   LIG    1       24.261 -30.211  13.091  0.00  0.00    -0.001 C 
ATOM      8  C   LIG    1       24.768 -31.534  12.518  0.00  0.00    +0.005 C 
ATOM      9  C   LIG    1       22.693 -29.844  13.384  0.00  0.00    -0.022 C 
ATOM     10  C   LIG    1       21.987 -31.194  13.643  0.00  0.00    +0.012 C 
ATOM     11  C   LIG    1       22.943 -28.907  14.631  0.00  0.00    +0.001 C 
ATOM     12  C   LIG    1       21.772 -28.418  15.500  0.00  0.00    +0.059 C 
ATOM     13  C   LIG    1       20.736 -27.935  14.588  0.00  0.00    +0.040 A 
ATOM     14  C   LIG    1       20.766 -28.027  13.225  0.00  0.00    -0.006 A 
ATOM     15  C   LIG    1       20.144 -26.789  12.878  0.00  0.00    +0.138 A 
ATOM     16  N   LIG    1       19.528 -26.197  13.910  0.00  0.00    -0.182 NA
ATOM     17  N   LIG    1       19.812 -26.985  14.965  0.00  0.00    -0.281 N 
ATOM     18  H   LIG    1       19.508 -26.728  15.877  0.00  0.00    +0.189 HD
ATOM     19  C   LIG    1       23.668 -27.632  14.030  0.00  0.00    +0.005 C 
ATOM     20  C   LIG    1       21.682 -29.007  12.422  0.00  0.00    +0.045 C 
ATOM     21  C   LIG    1       25.022 -27.829  13.366  0.00  0.00    +0.004 C 
ATOM     22  C   LIG    1       26.366 -28.348  10.431  0.00  0.00    +0.007 C 
ATOM     23  C   LIG    1       24.578 -31.650  11.035  0.00  0.00    +0.010 C 
ATOM     24  C   LIG    1       26.633 -29.055   9.107  0.00  0.00    +0.035 C 
ENDROOT
BRANCH   2  25
ATOM     25  O   LIG    1       27.333 -30.988  10.277  0.00  0.00    -0.388 OA
ATOM     26  H   LIG    1       27.446 -31.943  10.145  0.00  0.00    +0.210 HD
ENDBRANCH   2  25
TORSDOF 1
ENDMDL
