MODEL 1
REMARK VINA RESULT:      -3.6      0.000      0.000
REMARK  Name = *****
REMARK                            x       y       z     vdW  Elec       q    Type
REMARK                         _______ _______ _______ _____ _____    ______ ____
ROOT
ATOM      1  C   LIG    1       24.132 -15.859   3.791  0.00  0.00    +0.143 C 
ATOM      2  N   LIG    1       23.842 -17.257   4.066  0.00  0.00    -0.228 N 
ATOM      3  C   LIG    1       24.753 -18.197   3.603  0.00  0.00    +0.242 C 
ATOM      4  O   LIG    1       25.746 -17.861   2.949  0.00  0.00    -0.274 OA
ATOM      5  C   LIG    1       24.498 -19.664   3.953  0.00  0.00    +0.142 C 
ATOM      6  C   LIG    1       24.539 -20.439   2.616  0.00  0.00    +0.035 C 
ATOM      7  C   LIG    1       23.130 -19.945   4.549  0.00  0.00    +0.239 C 
ATOM      8  O   LIG    1       22.711 -21.079   4.789  0.00  0.00    -0.274 OA
ATOM      9  N   LIG    1       22.348 -18.871   4.844  0.00  0.00    -0.239 N 
ATOM     10  H   LIG    1       21.442 -19.075   5.242  0.00  0.00    +0.159 HD
ATOM     11  C   LIG    1       22.621 -17.558   4.625  0.00  0.00    +0.315 C 
ATOM     12  O   LIG    1       21.769 -16.718   4.913  0.00  0.00    -0.252 OA
ENDROOT
BRANCH   5  13
ATOM     13  C   LIG    1       25.565 -20.096   4.989  0.00  0.00    -0.050 C 
ATOM     14  C   LIG    1       26.943 -19.462   4.846  0.00  0.00    +0.032 C 
ATOM     15  C   LIG    1       28.042 -20.158   5.652  0.00  0.00    +0.005 C 
ATOM     16  C   LIG    1       27.569 -20.472   7.062  0.00  0.00    +0.004 C 
ATOM     17  C   LIG    1       26.340 -21.375   7.028  0.00  0.00    +0.027 C 
ATOM     18  C   LIG    1       25.333 -20.976   5.987  0.00  0.00    -0.026 C 
ENDBRANCH   5  13
TORSDOF 1
ENDMDL
MODEL 2
REMARK VINA RESULT:      -3.6      4.154      6.083
REMARK  Name = *****
REMARK                            x       y       z     vdW  Elec       q    Type
REMARK                         _______ _______ _______ _____ _____    ______ ____
ROOT
ATOM      1  C   LIG    1       28.865 -13.695   3.312  0.00  0.00    +0.143 C 
ATOM      2  N   LIG    1       27.505 -13.579   3.814  0.00  0.00    -0.228 N 
ATOM      3  C   LIG    1       26.480 -13.966   2.962  0.00  0.00    +0.242 C 
ATOM      4  O   LIG    1       26.711 -14.353   1.812  0.00  0.00    -0.274 OA
ATOM      5  C   LIG    1       25.051 -13.921   3.506  0.00  0.00    +0.142 C 
ATOM      6  C   LIG    1       24.229 -13.091   2.493  0.00  0.00    +0.035 C 
ATOM      7  C   LIG    1       24.902 -13.207   4.838  0.00  0.00    +0.239 C 
ATOM      8  O   LIG    1       23.815 -12.979   5.372  0.00  0.00    -0.274 OA
ATOM      9  N   LIG    1       26.045 -12.822   5.468  0.00  0.00    -0.239 N 
ATOM     10  H   LIG    1       25.930 -12.350   6.354  0.00  0.00    +0.159 HD
ATOM     11  C   LIG    1       27.324 -12.956   5.028  0.00  0.00    +0.315 C 
ATOM     12  O   LIG    1       28.239 -12.502   5.713  0.00  0.00    -0.252 OA
ENDROOT
BRANCH   5  13
ATOM     13  C   LIG    1       24.569 -15.380   3.695  0.00  0.00    -0.050 C 
ATOM     14  C   LIG    1       23.103 -15.567   4.065  0.00  0.00    +0.032 C 
ATOM     15  C   LIG    1       22.756 -16.968   4.574  0.00  0.00    +0.005 C 
ATOM     16  C   LIG    1       23.389 -18.038   3.699  0.00  0.00    +0.004 C 
ATOM     17  C   LIG    1       24.907 -17.887   3.678  0.00  0.00    +0.027 C 
ATOM     18  C   LIG    1       25.364 -16.462   3.543  0.00  0.00    -0.026 C 
ENDBRANCH   5  13
TORSDOF 1
ENDMDL
MODEL 3
REMARK VINA RESULT:      -3.1      1.193      1.801
REMARK  Name = *****
REMARK                            x       y       z     vdW  Elec       q    Type
REMARK                         _______ _______ _______ _____ _____    ______ ____
ROOT
ATOM      1  C   LIG    1       25.603 -15.259   3.621  0.00  0.00    +0.143 C 
ATOM      2  N   LIG    1       24.734 -16.406   3.831  0.00  0.00    -0.228 N 
ATOM      3  C   LIG    1       25.219 -17.648   3.445  0.00  0.00    +0.242 C 
ATOM      4  O   LIG    1       26.325 -17.767   2.908  0.00  0.00    -0.274 OA
ATOM      5  C   LIG    1       24.346 -18.871   3.731  0.00  0.00    +0.142 C 
ATOM      6  C   LIG    1       24.204 -19.623   2.388  0.00  0.00    +0.035 C 
ATOM      7  C   LIG    1       22.929 -18.549   4.172  0.00  0.00    +0.239 C 
ATOM      8  O   LIG    1       22.056 -19.402   4.340  0.00  0.00    -0.274 OA
ATOM      9  N   LIG    1       22.634 -17.241   4.408  0.00  0.00    -0.239 N 
ATOM     10  H   LIG    1       21.688 -17.043   4.704  0.00  0.00    +0.159 HD
ATOM     11  C   LIG    1       23.446 -16.162   4.251  0.00  0.00    +0.315 C 
ATOM     12  O   LIG    1       22.992 -15.040   4.466  0.00  0.00    -0.252 OA
ENDROOT
BRANCH   5  13
ATOM     13  C   LIG    1       25.022 -19.682   4.864  0.00  0.00    -0.050 C 
ATOM     14  C   LIG    1       24.095 -20.481   5.771  0.00  0.00    +0.032 C 
ATOM     15  C   LIG    1       24.751 -20.978   7.061  0.00  0.00    +0.005 C 
ATOM     16  C   LIG    1       26.123 -21.570   6.782  0.00  0.00    +0.004 C 
ATOM     17  C   LIG    1       27.035 -20.532   6.137  0.00  0.00    +0.027 C 
ATOM     18  C   LIG    1       26.356 -19.717   5.072  0.00  0.00    -0.026 C 
ENDBRANCH   5  13
TORSDOF 1
ENDMDL
MODEL 4
REMARK VINA RESULT:      -3.0      1.923      4.909
REMARK  Name = *****
REMARK                            x       y       z     vdW  Elec       q    Type
REMARK                         _______ _______ _______ _____ _____    ______ ____
ROOT
ATOM      1  C   LIG    1       23.226 -21.566   7.061  0.00  0.00    +0.143 C 
ATOM      2  N   LIG    1       24.016 -20.879   6.052  0.00  0.00    -0.228 N 
ATOM      3  C   LIG    1       23.334 -20.340   4.971  0.00  0.00    +0.242 C 
ATOM      4  O   LIG    1       22.111 -20.474   4.851  0.00  0.00    -0.274 OA
ATOM      5  C   LIG    1       24.145 -19.548   3.943  0.00  0.00    +0.142 C 
ATOM      6  C   LIG    1       23.813 -20.166   2.565  0.00  0.00    +0.035 C 
ATOM      7  C   LIG    1       25.651 -19.670   4.095  0.00  0.00    +0.239 C 
ATOM      8  O   LIG    1       26.457 -19.193   3.295  0.00  0.00    -0.274 OA
ATOM      9  N   LIG    1       26.114 -20.329   5.192  0.00  0.00    -0.239 N 
ATOM     10  H   LIG    1       27.118 -20.399   5.280  0.00  0.00    +0.159 HD
ATOM     11  C   LIG    1       25.387 -20.945   6.161  0.00  0.00    +0.315 C 
ATOM     12  O   LIG    1       25.979 -21.540   7.061  0.00  0.00    -0.252 OA
ENDROOT
BRANCH   5  13
ATOM     13  C   LIG    1       23.772 -18.053   4.094  0.00  0.00    -0.050 C 
ATOM     14  C   LIG    1       22.421 -17.754   4.731  0.00  0.00    +0.032 C 
ATOM     15  C   LIG    1       21.946 -16.310   4.549  0.00  0.00    +0.005 C 
ATOM     16  C   LIG    1       23.072 -15.327   4.824  0.00  0.00    +0.004 C 
ATOM     17  C   LIG    1       24.246 -15.578   3.883  0.00  0.00    +0.027 C 
ATOM     18  C   LIG    1       24.570 -17.035   3.706  0.00  0.00    -0.026 C 
ENDBRANCH   5  13
TORSDOF 1
ENDMDL
MODEL 5
REMARK VINA RESULT:      -2.6      2.040      5.032
REMARK  Name = *****
REMARK                            x       y       z     vdW  Elec       q    Type
REMARK                         _______ _______ _______ _____ _____    ______ ____
ROOT
ATOM      1  C   LIG    1       25.338 -21.569   7.062  0.00  0.00    +0.143 C 
ATOM      2  N   LIG    1       25.482 -20.746   5.872  0.00  0.00    -0.228 N 
ATOM      3  C   LIG    1       24.382 -20.645   5.033  0.00  0.00    +0.242 C 
ATOM      4  O   LIG    1       23.338 -21.263   5.266  0.00  0.00    -0.274 OA
ATOM      5  C   LIG    1       24.497 -19.720   3.820  0.00  0.00    +0.142 C 
ATOM      6  C   LIG    1       24.099 -20.570   2.591  0.00  0.00    +0.035 C 
ATOM      7  C   LIG    1       25.902 -19.220   3.535  0.00  0.00    +0.239 C 
ATOM      8  O   LIG    1       26.201 -18.558   2.541  0.00  0.00    -0.274 OA
ATOM      9  N   LIG    1       26.864 -19.514   4.452  0.00  0.00    -0.239 N 
ATOM     10  H   LIG    1       27.793 -19.172   4.249  0.00  0.00    +0.159 HD
ATOM     11  C   LIG    1       26.735 -20.253   5.586  0.00  0.00    +0.315 C 
ATOM     12  O   LIG    1       27.732 -20.460   6.276  0.00  0.00    -0.252 OA
ENDROOT
BRANCH   5  13
ATOM     13  C   LIG    1       23.597 -18.486   4.077  0.00  0.00    -0.050 C 
ATOM     14  C   LIG    1       22.134 -18.770   4.393  0.00  0.00    +0.032 C 
ATOM     15  C   LIG    1       21.221 -17.545   4.299  0.00  0.00    +0.005 C 
ATOM     16  C   LIG    1       21.854 -16.340   4.978  0.00  0.00    +0.004 C 
ATOM     17  C   LIG    1       23.194 -16.003   4.334  0.00  0.00    +0.027 C 
ATOM     18  C   LIG    1       24.040 -17.211   4.044  0.00  0.00    -0.026 C 
ENDBRANCH   5  13
TORSDOF 1
ENDMDL
MODEL 6
REMARK VINA RESULT:      -2.3      2.011      4.325
REMARK  Name = *****
REMARK                            x       y       z     vdW  Elec       q    Type
REMARK                         _______ _______ _______ _____ _____    ______ ____
ROOT
ATOM      1  C   LIG    1       21.977 -20.670   5.182  0.00  0.00    +0.143 C 
ATOM      2  N   LIG    1       23.366 -20.269   5.022  0.00  0.00    -0.228 N 
ATOM      3  C   LIG    1       23.715 -19.654   3.829  0.00  0.00    +0.242 C 
ATOM      4  O   LIG    1       22.889 -19.491   2.924  0.00  0.00    -0.274 OA
ATOM      5  C   LIG    1       25.155 -19.159   3.680  0.00  0.00    +0.142 C 
ATOM      6  C   LIG    1       25.687 -19.768   2.362  0.00  0.00    +0.035 C 
ATOM      7  C   LIG    1       26.104 -19.637   4.765  0.00  0.00    +0.239 C 
ATOM      8  O   LIG    1       27.318 -19.430   4.748  0.00  0.00    -0.274 OA
ATOM      9  N   LIG    1       25.560 -20.313   5.813  0.00  0.00    -0.239 N 
ATOM     10  H   LIG    1       26.204 -20.623   6.528  0.00  0.00    +0.159 HD
ATOM     11  C   LIG    1       24.259 -20.663   5.993  0.00  0.00    +0.315 C 
ATOM     12  O   LIG    1       23.953 -21.323   6.985  0.00  0.00    -0.252 OA
ENDROOT
BRANCH   5  13
ATOM     13  C   LIG    1       25.131 -17.611   3.720  0.00  0.00    -0.050 C 
ATOM     14  C   LIG    1       26.400 -16.903   3.263  0.00  0.00    +0.032 C 
ATOM     15  C   LIG    1       26.463 -15.420   3.637  0.00  0.00    +0.005 C 
ATOM     16  C   LIG    1       25.141 -14.728   3.344  0.00  0.00    +0.004 C 
ATOM     17  C   LIG    1       24.006 -15.382   4.125  0.00  0.00    +0.027 C 
ATOM     18  C   LIG    1       24.066 -16.884   4.121  0.00  0.00    -0.026 C 
ENDBRANCH   5  13
TORSDOF 1
ENDMDL
MODEL 7
REMARK VINA RESULT:      -2.2      3.786      5.736
REMARK  Name = *****
REMARK                            x       y       z     vdW  Elec       q    Type
REMARK                         _______ _______ _______ _____ _____    ______ ____
ROOT
ATOM      1  C   LIG    1       23.433 -12.046   4.674  0.00  0.00    +0.143 C 
ATOM      2  N   LIG    1       24.491 -12.747   3.964  0.00  0.00    -0.228 N 
ATOM      3  C   LIG    1       25.246 -13.658   4.689  0.00  0.00    +0.242 C 
ATOM      4  O   LIG    1       25.053 -13.835   5.896  0.00  0.00    -0.274 OA
ATOM      5  C   LIG    1       26.311 -14.457   3.935  0.00  0.00    +0.142 C 
ATOM      6  C   LIG    1       27.631 -14.261   4.716  0.00  0.00    +0.035 C 
ATOM      7  C   LIG    1       26.592 -13.967   2.526  0.00  0.00    +0.239 C 
ATOM      8  O   LIG    1       27.490 -14.417   1.813  0.00  0.00    -0.274 OA
ATOM      9  N   LIG    1       25.782 -12.988   2.036  0.00  0.00    -0.239 N 
ATOM     10  H   LIG    1       25.981 -12.674   1.096  0.00  0.00    +0.159 HD
ATOM     11  C   LIG    1       24.767 -12.349   2.675  0.00  0.00    +0.315 C 
ATOM     12  O   LIG    1       24.170 -11.447   2.089  0.00  0.00    -0.252 OA
ENDROOT
BRANCH   5  13
ATOM     13  C   LIG    1       25.823 -15.923   3.838  0.00  0.00    -0.050 C 
ATOM     14  C   LIG    1       24.314 -16.136   3.842  0.00  0.00    +0.032 C 
ATOM     15  C   LIG    1       23.883 -17.583   4.092  0.00  0.00    +0.005 C 
ATOM     16  C   LIG    1       24.716 -18.550   3.265  0.00  0.00    +0.004 C 
ATOM     17  C   LIG    1       26.196 -18.414   3.607  0.00  0.00    +0.027 C 
ATOM     18  C   LIG    1       26.649 -16.988   3.746  0.00  0.00    -0.026 C 
ENDBRANCH   5  13
TORSDOF 1
ENDMDL
MODEL 8
REMARK VINA RESULT:      -1.3      3.923      5.587
REMARK  Name = *****
REMARK                            x       y       z     vdW  Elec       q    Type
REMARK                         _______ _______ _______ _____ _____    ______ ____
ROOT
ATOM      1  C   LIG    1       27.234 -13.073   6.423  0.00  0.00    +0.143 C 
ATOM      2  N   LIG    1       26.290 -13.279   5.337  0.00  0.00    -0.228 N 
ATOM      3  C   LIG    1       26.637 -14.204   4.362  0.00  0.00    +0.242 C 
ATOM      4  O   LIG    1       27.721 -14.797   4.396  0.00  0.00    -0.274 OA
ATOM      5  C   LIG    1       25.618 -14.486   3.256  0.00  0.00    +0.142 C 
ATOM      6  C   LIG    1       26.369 -14.292   1.919  0.00  0.00    +0.035 C 
ATOM      7  C   LIG    1       24.447 -13.520   3.213  0.00  0.00    +0.239 C 
ATOM      8  O   LIG    1       23.591 -13.526   2.327  0.00  0.00    -0.274 OA
ATOM      9  N   LIG    1       24.346 -12.620   4.228  0.00  0.00    -0.239 N 
ATOM     10  H   LIG    1       23.560 -11.986   4.186  0.00  0.00    +0.159 HD
ATOM     11  C   LIG    1       25.202 -12.439   5.269  0.00  0.00    +0.315 C 
ATOM     12  O   LIG    1       24.977 -11.535   6.073  0.00  0.00    -0.252 OA
ENDROOT
BRANCH   5  13
ATOM     13  C   LIG    1       25.051 -15.909   3.485  0.00  0.00    -0.050 C 
ATOM     14  C   LIG    1       23.604 -15.994   3.956  0.00  0.00    +0.032 C 
ATOM     15  C   LIG    1       23.197 -17.367   4.494  0.00  0.00    +0.005 C 
ATOM     16  C   LIG    1       23.694 -18.479   3.584  0.00  0.00    +0.004 C 
ATOM     17  C   LIG    1       25.213 -18.433   3.459  0.00  0.00    +0.027 C 
ATOM     18  C   LIG    1       25.758 -17.042   3.285  0.00  0.00    -0.026 C 
ENDBRANCH   5  13
TORSDOF 1
ENDMDL
