MODEL 1
REMARK VINA RESULT:      -2.5      0.000      0.000
REMARK  Name = *****
REMARK                            x       y       z     vdW  Elec       q    Type
REMARK                         _______ _______ _______ _____ _____    ______ ____
ROOT
ATOM      1  C   LIG    1       26.249 -17.189   3.622  0.00  0.00    +0.080 A 
ATOM      2  C   LIG    1       27.544 -16.959   4.101  0.00  0.00    +0.134 A 
ATOM      3  C   LIG    1       27.936 -15.642   4.404  0.00  0.00    +0.071 A 
ATOM      4  C   LIG    1       27.082 -14.539   4.234  0.00  0.00    +0.053 A 
ATOM      5  C   LIG    1       25.770 -14.797   3.841  0.00  0.00    +0.110 A 
ATOM      6  C   LIG    1       25.365 -16.102   3.519  0.00  0.00    +0.045 A 
ENDROOT
BRANCH   1   9
ATOM      7  N   LIG    1       25.487 -19.369   4.419  0.00  0.00    -0.310 N 
ATOM      8  H   LIG    1       25.453 -18.953   5.335  0.00  0.00    +0.149 HD
ATOM      9  C   LIG    1       25.768 -18.583   3.306  0.00  0.00    +0.248 C 
ATOM     10  O   LIG    1       25.690 -18.992   2.161  0.00  0.00    -0.270 OA
BRANCH   7  11
ATOM     11  C   LIG    1       25.177 -20.790   4.324  0.00  0.00    +0.123 C 
BRANCH  11  13
ATOM     12  N   LIG    1       22.660 -20.292   4.832  0.00  0.00    -0.298 NA
ATOM     13  C   LIG    1       23.788 -21.243   4.875  0.00  0.00    +0.074 C 
ATOM     14  C   LIG    1       23.803 -21.572   6.367  0.00  0.00    +0.021 C 
ATOM     15  C   LIG    1       23.442 -20.263   7.061  0.00  0.00    +0.017 C 
ATOM     16  C   LIG    1       22.828 -19.393   5.970  0.00  0.00    +0.085 C 
BRANCH  12  18
ATOM     17  C   LIG    1       22.109 -18.120   3.780  0.00  0.00    +0.020 C 
ATOM     18  C   LIG    1       22.414 -19.600   3.574  0.00  0.00    +0.081 C 
ENDBRANCH  12  18
ENDBRANCH  11  13
ENDBRANCH   7  11
ENDBRANCH   1   9
BRANCH   4  19
ATOM     19  N   LIG    1       27.525 -13.292   4.703  0.00  0.00    -0.356 N 
ATOM     20  H   LIG    1       28.115 -13.350   5.531  0.00  0.00    +0.142 HD
ATOM     21  H   LIG    1       27.980 -12.718   3.983  0.00  0.00    +0.142 HD
ENDBRANCH   4  19
BRANCH   5  22
ATOM     22  S   LIG    1       24.567 -13.494   3.618  0.00  0.00    -0.002 S 
ATOM     23  O   LIG    1       24.778 -12.535   4.686  0.00  0.00    -0.169 OA
ATOM     24  O   LIG    1       23.268 -14.132   3.444  0.00  0.00    -0.169 OA
BRANCH  22  25
ATOM     25  C   LIG    1       25.040 -12.738   2.075  0.00  0.00    +0.168 C 
ATOM     26  C   LIG    1       24.281 -11.447   1.826  0.00  0.00    +0.028 C 
ENDBRANCH  22  25
ENDBRANCH   5  22
BRANCH   2  27
ATOM     27  O   LIG    1       28.411 -18.015   4.182  0.00  0.00    -0.494 OA
ATOM     28  C   LIG    1       28.769 -18.436   5.494  0.00  0.00    +0.277 C 
ENDBRANCH   2  27
TORSDOF 8
ENDMDL
MODEL 2
REMARK VINA RESULT:      -2.0      0.978      1.136
REMARK  Name = *****
REMARK                            x       y       z     vdW  Elec       q    Type
REMARK                         _______ _______ _______ _____ _____    ______ ____
ROOT
ATOM      1  C   LIG    1       26.217 -17.218   3.536  0.00  0.00    +0.080 A 
ATOM      2  C   LIG    1       27.487 -17.059   4.101  0.00  0.00    +0.134 A 
ATOM      3  C   LIG    1       27.954 -15.761   4.380  0.00  0.00    +0.071 A 
ATOM      4  C   LIG    1       27.200 -14.609   4.103  0.00  0.00    +0.053 A 
ATOM      5  C   LIG    1       25.904 -14.789   3.624  0.00  0.00    +0.110 A 
ATOM      6  C   LIG    1       25.427 -16.075   3.324  0.00  0.00    +0.045 A 
ENDROOT
BRANCH   1   9
ATOM      7  N   LIG    1       25.530 -19.415   4.351  0.00  0.00    -0.310 N 
ATOM      8  H   LIG    1       25.647 -19.040   5.278  0.00  0.00    +0.149 HD
ATOM      9  C   LIG    1       25.657 -18.586   3.242  0.00  0.00    +0.248 C 
ATOM     10  O   LIG    1       25.393 -18.942   2.106  0.00  0.00    -0.270 OA
BRANCH   7  11
ATOM     11  C   LIG    1       25.172 -20.824   4.247  0.00  0.00    +0.123 C 
BRANCH  11  13
ATOM     12  N   LIG    1       22.693 -20.276   4.874  0.00  0.00    -0.298 NA
ATOM     13  C   LIG    1       23.803 -21.248   4.867  0.00  0.00    +0.074 C 
ATOM     14  C   LIG    1       23.886 -21.571   6.359  0.00  0.00    +0.021 C 
ATOM     15  C   LIG    1       23.584 -20.253   7.062  0.00  0.00    +0.017 C 
ATOM     16  C   LIG    1       22.933 -19.376   5.998  0.00  0.00    +0.085 C 
BRANCH  12  18
ATOM     17  C   LIG    1       22.170 -18.091   3.835  0.00  0.00    +0.020 C 
ATOM     18  C   LIG    1       22.399 -19.584   3.626  0.00  0.00    +0.081 C 
ENDBRANCH  12  18
ENDBRANCH  11  13
ENDBRANCH   7  11
ENDBRANCH   1   9
BRANCH   4  19
ATOM     19  N   LIG    1       27.700 -13.377   4.553  0.00  0.00    -0.356 N 
ATOM     20  H   LIG    1       28.081 -13.408   5.497  0.00  0.00    +0.142 HD
ATOM     21  H   LIG    1       28.376 -12.947   3.911  0.00  0.00    +0.142 HD
ENDBRANCH   4  19
BRANCH   5  22
ATOM     22  S   LIG    1       24.820 -13.415   3.259  0.00  0.00    -0.002 S 
ATOM     23  O   LIG    1       23.494 -13.966   3.052  0.00  0.00    -0.169 OA
ATOM     24  O   LIG    1       25.463 -12.623   2.218  0.00  0.00    -0.169 OA
BRANCH  22  25
ATOM     25  C   LIG    1       24.811 -12.468   4.768  0.00  0.00    +0.168 C 
ATOM     26  C   LIG    1       23.686 -11.450   4.787  0.00  0.00    +0.028 C 
ENDBRANCH  22  25
ENDBRANCH   5  22
BRANCH   2  27
ATOM     27  O   LIG    1       28.266 -18.170   4.289  0.00  0.00    -0.494 OA
ATOM     28  C   LIG    1       29.045 -18.198   5.480  0.00  0.00    +0.277 C 
ENDBRANCH   2  27
TORSDOF 8
ENDMDL
MODEL 3
REMARK VINA RESULT:      -1.5      2.459      6.440
REMARK  Name = *****
REMARK                            x       y       z     vdW  Elec       q    Type
REMARK                         _______ _______ _______ _____ _____    ______ ____
ROOT
ATOM      1  C   LIG    1       26.811 -17.609   4.133  0.00  0.00    +0.080 A 
ATOM      2  C   LIG    1       27.693 -18.498   4.756  0.00  0.00    +0.134 A 
ATOM      3  C   LIG    1       27.240 -19.789   5.088  0.00  0.00    +0.071 A 
ATOM      4  C   LIG    1       25.929 -20.222   4.830  0.00  0.00    +0.053 A 
ATOM      5  C   LIG    1       25.092 -19.355   4.131  0.00  0.00    +0.110 A 
ATOM      6  C   LIG    1       25.520 -18.057   3.806  0.00  0.00    +0.045 A 
ENDROOT
BRANCH   1   9
ATOM      7  N   LIG    1       26.374 -15.556   2.884  0.00  0.00    -0.310 N 
ATOM      8  H   LIG    1       25.454 -15.929   2.714  0.00  0.00    +0.149 HD
ATOM      9  C   LIG    1       27.251 -16.223   3.732  0.00  0.00    +0.248 C 
ATOM     10  O   LIG    1       28.320 -15.761   4.088  0.00  0.00    -0.270 OA
BRANCH   7  11
ATOM     11  C   LIG    1       26.701 -14.284   2.252  0.00  0.00    +0.123 C 
BRANCH  11  13
ATOM     12  N   LIG    1       25.679 -12.959   4.262  0.00  0.00    -0.298 NA
ATOM     13  C   LIG    1       25.991 -13.015   2.821  0.00  0.00    +0.074 C 
ATOM     14  C   LIG    1       24.597 -12.786   2.237  0.00  0.00    +0.021 C 
ATOM     15  C   LIG    1       23.651 -13.512   3.186  0.00  0.00    +0.017 C 
ATOM     16  C   LIG    1       24.461 -13.739   4.457  0.00  0.00    +0.085 C 
BRANCH  12  18
ATOM     17  C   LIG    1       28.055 -12.598   4.853  0.00  0.00    +0.020 C 
ATOM     18  C   LIG    1       26.747 -13.303   5.192  0.00  0.00    +0.081 C 
ENDBRANCH  12  18
ENDBRANCH  11  13
ENDBRANCH   7  11
ENDBRANCH   1   9
BRANCH   4  19
ATOM     19  N   LIG    1       25.628 -21.572   5.070  0.00  0.00    -0.356 N 
ATOM     20  H   LIG    1       25.276 -21.755   6.009  0.00  0.00    +0.142 HD
ATOM     21  H   LIG    1       25.002 -21.986   4.370  0.00  0.00    +0.142 HD
ENDBRANCH   4  19
BRANCH   5  22
ATOM     22  S   LIG    1       23.410 -19.786   3.706  0.00  0.00    -0.002 S 
ATOM     23  O   LIG    1       23.456 -21.085   3.064  0.00  0.00    -0.169 OA
ATOM     24  O   LIG    1       22.833 -18.640   3.014  0.00  0.00    -0.169 OA
BRANCH  22  25
ATOM     25  C   LIG    1       22.604 -19.961   5.285  0.00  0.00    +0.168 C 
ATOM     26  C   LIG    1       22.341 -21.417   5.624  0.00  0.00    +0.028 C 
ENDBRANCH  22  25
ENDBRANCH   5  22
BRANCH   2  27
ATOM     27  O   LIG    1       28.944 -18.055   5.093  0.00  0.00    -0.494 OA
ATOM     28  C   LIG    1       29.462 -18.520   6.335  0.00  0.00    +0.277 C 
ENDBRANCH   2  27
TORSDOF 8
ENDMDL
MODEL 4
REMARK VINA RESULT:      -1.5      2.231      3.324
REMARK  Name = *****
REMARK                            x       y       z     vdW  Elec       q    Type
REMARK                         _______ _______ _______ _____ _____    ______ ____
ROOT
ATOM      1  C   LIG    1       24.331 -16.963   3.760  0.00  0.00    +0.080 A 
ATOM      2  C   LIG    1       23.196 -16.423   4.374  0.00  0.00    +0.134 A 
ATOM      3  C   LIG    1       23.125 -15.033   4.577  0.00  0.00    +0.071 A 
ATOM      4  C   LIG    1       24.157 -14.158   4.199  0.00  0.00    +0.053 A 
ATOM      5  C   LIG    1       25.240 -14.702   3.510  0.00  0.00    +0.110 A 
ATOM      6  C   LIG    1       25.336 -16.089   3.313  0.00  0.00    +0.045 A 
ENDROOT
BRANCH   1   9
ATOM      7  N   LIG    1       25.524 -19.065   4.120  0.00  0.00    -0.310 N 
ATOM      8  H   LIG    1       26.054 -18.572   4.820  0.00  0.00    +0.149 HD
ATOM      9  C   LIG    1       24.448 -18.443   3.494  0.00  0.00    +0.248 C 
ATOM     10  O   LIG    1       23.684 -19.023   2.743  0.00  0.00    -0.270 OA
BRANCH   7  11
ATOM     11  C   LIG    1       25.903 -20.446   3.850  0.00  0.00    +0.123 C 
BRANCH  11  13
ATOM     12  N   LIG    1       24.069 -21.563   5.343  0.00  0.00    -0.298 NA
ATOM     13  C   LIG    1       25.479 -21.510   4.912  0.00  0.00    +0.074 C 
ATOM     14  C   LIG    1       26.166 -21.325   6.265  0.00  0.00    +0.021 C 
ATOM     15  C   LIG    1       25.225 -20.428   7.061  0.00  0.00    +0.017 C 
ATOM     16  C   LIG    1       23.892 -20.499   6.326  0.00  0.00    +0.085 C 
BRANCH  12  18
ATOM     17  C   LIG    1       21.677 -21.175   4.837  0.00  0.00    +0.020 C 
ATOM     18  C   LIG    1       23.050 -21.571   4.302  0.00  0.00    +0.081 C 
ENDBRANCH  12  18
ENDBRANCH  11  13
ENDBRANCH   7  11
ENDBRANCH   1   9
BRANCH   4  19
ATOM     19  N   LIG    1       23.921 -12.779   4.316  0.00  0.00    -0.356 N 
ATOM     20  H   LIG    1       24.502 -12.208   3.705  0.00  0.00    +0.142 HD
ATOM     21  H   LIG    1       22.933 -12.519   4.212  0.00  0.00    +0.142 HD
ENDBRANCH   4  19
BRANCH   5  22
ATOM     22  S   LIG    1       26.608 -13.703   2.940  0.00  0.00    -0.002 S 
ATOM     23  O   LIG    1       26.109 -12.350   2.785  0.00  0.00    -0.169 OA
ATOM     24  O   LIG    1       27.212 -14.402   1.812  0.00  0.00    -0.169 OA
BRANCH  22  25
ATOM     25  C   LIG    1       27.753 -13.732   4.305  0.00  0.00    +0.168 C 
ATOM     26  C   LIG    1       28.756 -12.595   4.222  0.00  0.00    +0.028 C 
ENDBRANCH  22  25
ENDBRANCH   5  22
BRANCH   2  27
ATOM     27  O   LIG    1       22.226 -17.277   4.828  0.00  0.00    -0.494 OA
ATOM     28  C   LIG    1       21.345 -17.808   3.845  0.00  0.00    +0.277 C 
ENDBRANCH   2  27
TORSDOF 8
ENDMDL
MODEL 5
REMARK VINA RESULT:      -1.1      2.681      6.208
REMARK  Name = *****
REMARK                            x       y       z     vdW  Elec       q    Type
REMARK                         _______ _______ _______ _____ _____    ______ ____
ROOT
ATOM      1  C   LIG    1       26.860 -17.649   4.181  0.00  0.00    +0.080 A 
ATOM      2  C   LIG    1       27.739 -18.436   4.933  0.00  0.00    +0.134 A 
ATOM      3  C   LIG    1       27.323 -19.712   5.355  0.00  0.00    +0.071 A 
ATOM      4  C   LIG    1       26.049 -20.229   5.062  0.00  0.00    +0.053 A 
ATOM      5  C   LIG    1       25.221 -19.470   4.238  0.00  0.00    +0.110 A 
ATOM      6  C   LIG    1       25.612 -18.187   3.821  0.00  0.00    +0.045 A 
ENDROOT
BRANCH   1   9
ATOM      7  N   LIG    1       26.266 -15.594   3.001  0.00  0.00    -0.310 N 
ATOM      8  H   LIG    1       25.318 -15.934   3.013  0.00  0.00    +0.149 HD
ATOM      9  C   LIG    1       27.263 -16.285   3.681  0.00  0.00    +0.248 C 
ATOM     10  O   LIG    1       28.396 -15.858   3.822  0.00  0.00    -0.270 OA
BRANCH   7  11
ATOM     11  C   LIG    1       26.512 -14.342   2.297  0.00  0.00    +0.123 C 
BRANCH  11  13
ATOM     12  N   LIG    1       25.058 -12.947   3.965  0.00  0.00    -0.298 NA
ATOM     13  C   LIG    1       26.248 -13.025   3.095  0.00  0.00    +0.074 C 
ATOM     14  C   LIG    1       26.006 -11.810   2.200  0.00  0.00    +0.021 C 
ATOM     15  C   LIG    1       24.495 -11.769   1.995  0.00  0.00    +0.017 C 
ATOM     16  C   LIG    1       23.922 -12.657   3.094  0.00  0.00    +0.085 C 
BRANCH  12  18
ATOM     17  C   LIG    1       23.680 -14.952   4.419  0.00  0.00    +0.020 C 
ATOM     18  C   LIG    1       24.823 -14.054   4.881  0.00  0.00    +0.081 C 
ENDBRANCH  12  18
ENDBRANCH  11  13
ENDBRANCH   7  11
ENDBRANCH   1   9
BRANCH   4  19
ATOM     19  N   LIG    1       25.793 -21.566   5.406  0.00  0.00    -0.356 N 
ATOM     20  H   LIG    1       26.267 -21.871   6.254  0.00  0.00    +0.142 HD
ATOM     21  H   LIG    1       24.793 -21.794   5.458  0.00  0.00    +0.142 HD
ENDBRANCH   4  19
BRANCH   5  22
ATOM     22  S   LIG    1       23.589 -20.018   3.757  0.00  0.00    -0.002 S 
ATOM     23  O   LIG    1       22.994 -20.646   4.922  0.00  0.00    -0.169 OA
ATOM     24  O   LIG    1       23.733 -20.759   2.510  0.00  0.00    -0.169 OA
BRANCH  22  25
ATOM     25  C   LIG    1       22.714 -18.503   3.420  0.00  0.00    +0.168 C 
ATOM     26  C   LIG    1       21.963 -18.003   4.641  0.00  0.00    +0.028 C 
ENDBRANCH  22  25
ENDBRANCH   5  22
BRANCH   2  27
ATOM     27  O   LIG    1       28.946 -17.904   5.300  0.00  0.00    -0.494 OA
ATOM     28  C   LIG    1       29.472 -18.342   6.548  0.00  0.00    +0.277 C 
ENDBRANCH   2  27
TORSDOF 8
ENDMDL
MODEL 6
REMARK VINA RESULT:      -1.0      2.330      4.160
REMARK  Name = *****
REMARK                            x       y       z     vdW  Elec       q    Type
REMARK                         _______ _______ _______ _____ _____    ______ ____
ROOT
ATOM      1  C   LIG    1       23.240 -16.653   4.460  0.00  0.00    +0.080 A 
ATOM      2  C   LIG    1       22.584 -15.539   4.995  0.00  0.00    +0.134 A 
ATOM      3  C   LIG    1       23.228 -14.288   4.967  0.00  0.00    +0.071 A 
ATOM      4  C   LIG    1       24.515 -14.110   4.430  0.00  0.00    +0.053 A 
ATOM      5  C   LIG    1       25.115 -15.210   3.822  0.00  0.00    +0.110 A 
ATOM      6  C   LIG    1       24.496 -16.470   3.856  0.00  0.00    +0.045 A 
ENDROOT
BRANCH   1   9
ATOM      7  N   LIG    1       22.991 -18.868   5.459  0.00  0.00    -0.310 N 
ATOM      8  H   LIG    1       23.543 -18.516   6.225  0.00  0.00    +0.149 HD
ATOM      9  C   LIG    1       22.587 -18.011   4.441  0.00  0.00    +0.248 C 
ATOM     10  O   LIG    1       21.808 -18.337   3.562  0.00  0.00    -0.270 OA
BRANCH   7  11
ATOM     11  C   LIG    1       22.605 -20.272   5.510  0.00  0.00    +0.123 C 
BRANCH  11  13
ATOM     12  N   LIG    1       25.055 -21.179   5.381  0.00  0.00    -0.298 NA
ATOM     13  C   LIG    1       23.644 -21.305   4.968  0.00  0.00    +0.074 C 
ATOM     14  C   LIG    1       23.805 -21.265   3.449  0.00  0.00    +0.021 C 
ATOM     15  C   LIG    1       24.938 -20.276   3.201  0.00  0.00    +0.017 C 
ATOM     16  C   LIG    1       25.643 -20.136   4.545  0.00  0.00    +0.085 C 
BRANCH  12  18
ATOM     17  C   LIG    1       26.731 -20.479   7.062  0.00  0.00    +0.020 C 
ATOM     18  C   LIG    1       25.325 -21.009   6.802  0.00  0.00    +0.081 C 
ENDBRANCH  12  18
ENDBRANCH  11  13
ENDBRANCH   7  11
ENDBRANCH   1   9
BRANCH   4  19
ATOM     19  N   LIG    1       25.001 -12.797   4.322  0.00  0.00    -0.356 N 
ATOM     20  H   LIG    1       25.927 -12.734   3.903  0.00  0.00    +0.142 HD
ATOM     21  H   LIG    1       24.354 -12.155   3.850  0.00  0.00    +0.142 HD
ENDBRANCH   4  19
BRANCH   5  22
ATOM     22  S   LIG    1       26.735 -15.121   3.071  0.00  0.00    -0.002 S 
ATOM     23  O   LIG    1       26.609 -14.281   1.894  0.00  0.00    -0.169 OA
ATOM     24  O   LIG    1       27.233 -16.486   2.955  0.00  0.00    -0.169 OA
BRANCH  22  25
ATOM     25  C   LIG    1       27.718 -14.258   4.281  0.00  0.00    +0.168 C 
ATOM     26  C   LIG    1       28.596 -13.198   3.640  0.00  0.00    +0.028 C 
ENDBRANCH  22  25
ENDBRANCH   5  22
BRANCH   2  27
ATOM     27  O   LIG    1       21.370 -15.720   5.602  0.00  0.00    -0.494 OA
ATOM     28  C   LIG    1       21.229 -15.167   6.905  0.00  0.00    +0.277 C 
ENDBRANCH   2  27
TORSDOF 8
ENDMDL
