MODEL 1
REMARK VINA RESULT:      -5.0      0.000      0.000
REMARK  Name = *****
REMARK                            x       y       z     vdW  Elec       q    Type
REMARK                         _______ _______ _______ _____ _____    ______ ____
ROOT
ATOM      1  C   LIG    1       24.426 -11.825   3.841  0.00  0.00    +0.012 C 
ATOM      2  C   LIG    1       25.141 -13.041   3.220  0.00  0.00    -0.020 C 
ATOM      3  C   LIG    1       25.136 -14.318   4.104  0.00  0.00    +0.032 C 
ATOM      4  C   LIG    1       26.111 -15.193   3.312  0.00  0.00    +0.140 C 
ATOM      5  C   LIG    1       27.170 -14.309   2.683  0.00  0.00    +0.079 C 
ATOM      6  O   LIG    1       26.073 -16.410   3.219  0.00  0.00    -0.297 OA
ATOM      7  C   LIG    1       23.804 -14.965   4.399  0.00  0.00    +0.019 C 
ATOM      8  C   LIG    1       25.955 -13.907   5.349  0.00  0.00    +0.015 C 
ATOM      9  C   LIG    1       27.014 -12.947   4.764  0.00  0.00    +0.005 C 
ATOM     10  C   LIG    1       26.692 -12.946   3.248  0.00  0.00    +0.003 C 
ATOM     11  C   LIG    1       24.538 -13.228   1.812  0.00  0.00    +0.012 C 
ENDROOT
TORSDOF 0
ENDMDL
MODEL 2
REMARK VINA RESULT:      -4.8      1.348      2.961
REMARK  Name = *****
REMARK                            x       y       z     vdW  Elec       q    Type
REMARK                         _______ _______ _______ _____ _____    ______ ____
ROOT
ATOM      1  C   LIG    1       27.825 -13.224   3.476  0.00  0.00    +0.012 C 
ATOM      2  C   LIG    1       26.445 -13.483   4.113  0.00  0.00    -0.020 C 
ATOM      3  C   LIG    1       25.590 -14.559   3.389  0.00  0.00    +0.032 C 
ATOM      4  C   LIG    1       24.255 -14.368   4.115  0.00  0.00    +0.140 C 
ATOM      5  C   LIG    1       24.090 -12.904   4.469  0.00  0.00    +0.079 C 
ATOM      6  O   LIG    1       23.432 -15.240   4.348  0.00  0.00    -0.297 OA
ATOM      7  C   LIG    1       26.105 -15.979   3.377  0.00  0.00    +0.019 C 
ATOM      8  C   LIG    1       25.329 -13.945   1.994  0.00  0.00    +0.015 C 
ATOM      9  C   LIG    1       25.218 -12.434   2.298  0.00  0.00    +0.005 C 
ATOM     10  C   LIG    1       25.400 -12.368   3.835  0.00  0.00    +0.003 C 
ATOM     11  C   LIG    1       26.701 -13.762   5.609  0.00  0.00    +0.012 C 
ENDROOT
TORSDOF 0
ENDMDL
MODEL 3
REMARK VINA RESULT:      -4.6      1.485      2.717
REMARK  Name = *****
REMARK                            x       y       z     vdW  Elec       q    Type
REMARK                         _______ _______ _______ _____ _____    ______ ____
ROOT
ATOM      1  C   LIG    1       23.565 -14.903   4.646  0.00  0.00    +0.012 C 
ATOM      2  C   LIG    1       24.797 -14.500   3.812  0.00  0.00    -0.020 C 
ATOM      3  C   LIG    1       25.721 -13.450   4.487  0.00  0.00    +0.032 C 
ATOM      4  C   LIG    1       26.649 -13.120   3.315  0.00  0.00    +0.140 C 
ATOM      5  C   LIG    1       25.862 -13.206   2.023  0.00  0.00    +0.079 C 
ATOM      6  O   LIG    1       27.826 -12.805   3.396  0.00  0.00    -0.297 OA
ATOM      7  C   LIG    1       26.429 -13.848   5.761  0.00  0.00    +0.019 C 
ATOM      8  C   LIG    1       24.828 -12.192   4.601  0.00  0.00    +0.015 C 
ATOM      9  C   LIG    1       23.956 -12.273   3.327  0.00  0.00    +0.005 C 
ATOM     10  C   LIG    1       24.476 -13.552   2.623  0.00  0.00    +0.003 C 
ATOM     11  C   LIG    1       25.500 -15.813   3.410  0.00  0.00    +0.012 C 
ENDROOT
TORSDOF 0
ENDMDL
MODEL 4
REMARK VINA RESULT:      -4.3      1.380      2.023
REMARK  Name = *****
REMARK                            x       y       z     vdW  Elec       q    Type
REMARK                         _______ _______ _______ _____ _____    ______ ____
ROOT
ATOM      1  C   LIG    1       26.672 -12.043   2.719  0.00  0.00    +0.012 C 
ATOM      2  C   LIG    1       25.673 -13.195   2.946  0.00  0.00    -0.020 C 
ATOM      3  C   LIG    1       25.070 -13.258   4.377  0.00  0.00    +0.032 C 
ATOM      4  C   LIG    1       24.360 -14.613   4.306  0.00  0.00    +0.140 C 
ATOM      5  C   LIG    1       25.161 -15.545   3.421  0.00  0.00    +0.079 C 
ATOM      6  O   LIG    1       23.330 -14.916   4.889  0.00  0.00    -0.297 OA
ATOM      7  C   LIG    1       24.198 -12.110   4.826  0.00  0.00    +0.019 C 
ATOM      8  C   LIG    1       26.293 -13.543   5.279  0.00  0.00    +0.015 C 
ATOM      9  C   LIG    1       27.176 -14.445   4.389  0.00  0.00    +0.005 C 
ATOM     10  C   LIG    1       26.339 -14.592   3.093  0.00  0.00    +0.003 C 
ATOM     11  C   LIG    1       24.632 -13.099   1.812  0.00  0.00    +0.012 C 
ENDROOT
TORSDOF 0
ENDMDL
MODEL 5
REMARK VINA RESULT:      -4.0      1.769      3.198
REMARK  Name = *****
REMARK                            x       y       z     vdW  Elec       q    Type
REMARK                         _______ _______ _______ _____ _____    ______ ____
ROOT
ATOM      1  C   LIG    1       25.966 -15.813   3.297  0.00  0.00    +0.012 C 
ATOM      2  C   LIG    1       25.210 -14.648   3.964  0.00  0.00    -0.020 C 
ATOM      3  C   LIG    1       25.117 -13.358   3.103  0.00  0.00    +0.032 C 
ATOM      4  C   LIG    1       24.552 -12.386   4.142  0.00  0.00    +0.140 C 
ATOM      5  C   LIG    1       25.104 -12.746   5.507  0.00  0.00    +0.079 C 
ATOM      6  O   LIG    1       23.803 -11.448   3.917  0.00  0.00    -0.297 OA
ATOM      7  C   LIG    1       24.336 -13.426   1.812  0.00  0.00    +0.019 C 
ATOM      8  C   LIG    1       26.589 -12.908   2.955  0.00  0.00    +0.015 C 
ATOM      9  C   LIG    1       27.212 -13.316   4.309  0.00  0.00    +0.005 C 
ATOM     10  C   LIG    1       26.014 -13.926   5.081  0.00  0.00    +0.003 C 
ATOM     11  C   LIG    1       23.850 -15.216   4.421  0.00  0.00    +0.012 C 
ENDROOT
TORSDOF 0
ENDMDL
MODEL 6
REMARK VINA RESULT:      -4.0      1.646      2.883
REMARK  Name = *****
REMARK                            x       y       z     vdW  Elec       q    Type
REMARK                         _______ _______ _______ _____ _____    ______ ____
ROOT
ATOM      1  C   LIG    1       26.844 -14.070   5.881  0.00  0.00    +0.012 C 
ATOM      2  C   LIG    1       26.681 -13.578   4.429  0.00  0.00    -0.020 C 
ATOM      3  C   LIG    1       25.224 -13.216   4.027  0.00  0.00    +0.032 C 
ATOM      4  C   LIG    1       25.405 -13.026   2.519  0.00  0.00    +0.140 C 
ATOM      5  C   LIG    1       26.464 -13.990   2.022  0.00  0.00    +0.079 C 
ATOM      6  O   LIG    1       24.781 -12.249   1.812  0.00  0.00    -0.297 OA
ATOM      7  C   LIG    1       24.564 -12.058   4.736  0.00  0.00    +0.019 C 
ATOM      8  C   LIG    1       24.469 -14.562   4.129  0.00  0.00    +0.015 C 
ATOM      9  C   LIG    1       25.537 -15.590   3.692  0.00  0.00    +0.005 C 
ATOM     10  C   LIG    1       26.766 -14.706   3.363  0.00  0.00    +0.003 C 
ATOM     11  C   LIG    1       27.703 -12.438   4.238  0.00  0.00    +0.012 C 
ENDROOT
TORSDOF 0
ENDMDL
MODEL 7
REMARK VINA RESULT:      -3.8      1.280      2.883
REMARK  Name = *****
REMARK                            x       y       z     vdW  Elec       q    Type
REMARK                         _______ _______ _______ _____ _____    ______ ____
ROOT
ATOM      1  C   LIG    1       24.266 -12.009   5.209  0.00  0.00    +0.012 C 
ATOM      2  C   LIG    1       25.206 -13.046   4.563  0.00  0.00    -0.020 C 
ATOM      3  C   LIG    1       25.299 -12.962   3.014  0.00  0.00    +0.032 C 
ATOM      4  C   LIG    1       26.082 -14.246   2.725  0.00  0.00    +0.140 C 
ATOM      5  C   LIG    1       25.687 -15.304   3.736  0.00  0.00    +0.079 C 
ATOM      6  O   LIG    1       26.875 -14.414   1.812  0.00  0.00    -0.297 OA
ATOM      7  C   LIG    1       25.892 -11.711   2.411  0.00  0.00    +0.019 C 
ATOM      8  C   LIG    1       23.867 -13.302   2.541  0.00  0.00    +0.015 C 
ATOM      9  C   LIG    1       23.395 -14.337   3.587  0.00  0.00    +0.005 C 
ATOM     10  C   LIG    1       24.625 -14.487   4.517  0.00  0.00    +0.003 C 
ATOM     11  C   LIG    1       26.558 -12.926   5.297  0.00  0.00    +0.012 C 
ENDROOT
TORSDOF 0
ENDMDL
MODEL 8
REMARK VINA RESULT:      -3.6      1.021      2.106
REMARK  Name = *****
REMARK                            x       y       z     vdW  Elec       q    Type
REMARK                         _______ _______ _______ _____ _____    ______ ____
ROOT
ATOM      1  C   LIG    1       24.194 -12.237   4.348  0.00  0.00    +0.012 C 
ATOM      2  C   LIG    1       24.894 -13.561   3.982  0.00  0.00    -0.020 C 
ATOM      3  C   LIG    1       26.388 -13.641   4.399  0.00  0.00    +0.032 C 
ATOM      4  C   LIG    1       26.796 -14.929   3.678  0.00  0.00    +0.140 C 
ATOM      5  C   LIG    1       26.020 -15.035   2.380  0.00  0.00    +0.079 C 
ATOM      6  O   LIG    1       27.632 -15.733   4.060  0.00  0.00    -0.297 OA
ATOM      7  C   LIG    1       26.712 -13.613   5.874  0.00  0.00    +0.019 C 
ATOM      8  C   LIG    1       27.064 -12.532   3.559  0.00  0.00    +0.015 C 
ATOM      9  C   LIG    1       26.259 -12.559   2.241  0.00  0.00    +0.005 C 
ATOM     10  C   LIG    1       25.237 -13.701   2.473  0.00  0.00    +0.003 C 
ATOM     11  C   LIG    1       24.007 -14.692   4.544  0.00  0.00    +0.012 C 
ENDROOT
TORSDOF 0
ENDMDL
MODEL 9
REMARK VINA RESULT:      -3.6      1.505      2.843
REMARK  Name = *****
REMARK                            x       y       z     vdW  Elec       q    Type
REMARK                         _______ _______ _______ _____ _____    ______ ____
ROOT
ATOM      1  C   LIG    1       23.830 -13.311   1.819  0.00  0.00    +0.012 C 
ATOM      2  C   LIG    1       24.693 -12.903   3.029  0.00  0.00    -0.020 C 
ATOM      3  C   LIG    1       25.832 -13.900   3.379  0.00  0.00    +0.032 C 
ATOM      4  C   LIG    1       26.287 -13.322   4.722  0.00  0.00    +0.140 C 
ATOM      5  C   LIG    1       25.086 -12.745   5.444  0.00  0.00    +0.079 C 
ATOM      6  O   LIG    1       27.425 -13.344   5.166  0.00  0.00    -0.297 OA
ATOM      7  C   LIG    1       26.936 -14.092   2.367  0.00  0.00    +0.019 C 
ATOM      8  C   LIG    1       25.081 -15.190   3.781  0.00  0.00    +0.015 C 
ATOM      9  C   LIG    1       23.808 -14.648   4.469  0.00  0.00    +0.005 C 
ATOM     10  C   LIG    1       23.997 -13.111   4.403  0.00  0.00    +0.003 C 
ATOM     11  C   LIG    1       25.161 -11.457   2.763  0.00  0.00    +0.012 C 
ENDROOT
TORSDOF 0
ENDMDL
