MODEL 1
REMARK VINA RESULT:      -6.1      0.000      0.000
REMARK  Name = *****
REMARK                            x       y       z     vdW  Elec       q    Type
REMARK                         _______ _______ _______ _____ _____    ______ ____
ROOT
ATOM      1  C   LIG    1       24.782 -22.202   7.318  0.00  0.00    +0.161 C 
ENDROOT
BRANCH   1   2
ATOM      2  N   LIG    1       24.800 -23.563   6.760  0.00  0.00    -0.290 N 
ATOM      3  C   LIG    1       23.676 -24.356   6.578  0.00  0.00    +0.216 C 
ATOM      4  O   LIG    1       22.509 -24.025   6.754  0.00  0.00    -0.276 OA
ATOM      5  C   LIG    1       24.126 -25.744   6.209  0.00  0.00    +0.097 C 
ATOM      6  C   LIG    1       25.598 -25.553   5.874  0.00  0.00    +0.028 C 
ATOM      7  C   LIG    1       26.005 -24.363   6.722  0.00  0.00    +0.109 C 
ENDBRANCH   1   2
BRANCH   1   8
ATOM      8  C   LIG    1       24.544 -21.156   6.210  0.00  0.00    +0.231 C 
ATOM      9  O   LIG    1       23.559 -20.421   6.192  0.00  0.00    -0.274 OA
ATOM     10  N   LIG    1       25.474 -21.083   5.215  0.00  0.00    -0.328 N 
ATOM     11  H   LIG    1       25.334 -20.413   4.472  0.00  0.00    +0.145 HD
ATOM     12  H   LIG    1       26.285 -21.694   5.187  0.00  0.00    +0.145 HD
ENDBRANCH   1   8
BRANCH   1  14
ATOM     13  C   LIG    1       26.068 -20.524   8.765  0.00  0.00    +0.006 C 
ATOM     14  C   LIG    1       26.043 -21.915   8.154  0.00  0.00    +0.028 C 
ENDBRANCH   1  14
TORSDOF 3
ENDMDL
MODEL 2
REMARK VINA RESULT:      -6.1      7.022      8.973
REMARK  Name = *****
REMARK                            x       y       z     vdW  Elec       q    Type
REMARK                         _______ _______ _______ _____ _____    ______ ____
ROOT
ATOM      1  C   LIG    1       30.602 -19.177   8.485  0.00  0.00    +0.161 C 
ENDROOT
BRANCH   1   2
ATOM      2  N   LIG    1       31.217 -18.149   9.340  0.00  0.00    -0.290 N 
ATOM      3  C   LIG    1       30.636 -17.625  10.487  0.00  0.00    +0.216 C 
ATOM      4  O   LIG    1       29.592 -17.993  11.013  0.00  0.00    -0.276 OA
ATOM      5  C   LIG    1       31.458 -16.450  10.943  0.00  0.00    +0.097 C 
ATOM      6  C   LIG    1       32.738 -16.586  10.131  0.00  0.00    +0.028 C 
ATOM      7  C   LIG    1       32.285 -17.295   8.868  0.00  0.00    +0.109 C 
ENDBRANCH   1   2
BRANCH   1   8
ATOM      8  C   LIG    1       31.157 -20.576   8.822  0.00  0.00    +0.231 C 
ATOM      9  O   LIG    1       32.250 -20.745   9.358  0.00  0.00    -0.274 OA
ATOM     10  N   LIG    1       30.386 -21.648   8.480  0.00  0.00    -0.328 N 
ATOM     11  H   LIG    1       30.733 -22.576   8.680  0.00  0.00    +0.145 HD
ATOM     12  H   LIG    1       29.490 -21.542   8.012  0.00  0.00    +0.145 HD
ENDBRANCH   1   8
BRANCH   1  14
ATOM     13  C   LIG    1       29.406 -18.840   6.245  0.00  0.00    +0.006 C 
ATOM     14  C   LIG    1       30.729 -18.823   6.992  0.00  0.00    +0.028 C 
ENDBRANCH   1  14
TORSDOF 3
ENDMDL
MODEL 3
REMARK VINA RESULT:      -6.0      1.891      3.972
REMARK  Name = *****
REMARK                            x       y       z     vdW  Elec       q    Type
REMARK                         _______ _______ _______ _____ _____    ______ ____
ROOT
ATOM      1  C   LIG    1       25.473 -22.203   6.516  0.00  0.00    +0.161 C 
ENDROOT
BRANCH   1   2
ATOM      2  N   LIG    1       24.449 -21.428   5.798  0.00  0.00    -0.290 N 
ATOM      3  C   LIG    1       24.720 -20.406   4.899  0.00  0.00    +0.216 C 
ATOM      4  O   LIG    1       25.823 -20.060   4.493  0.00  0.00    -0.276 OA
ATOM      5  C   LIG    1       23.428 -19.714   4.560  0.00  0.00    +0.097 C 
ATOM      6  C   LIG    1       22.372 -20.668   5.098  0.00  0.00    +0.028 C 
ATOM      7  C   LIG    1       23.075 -21.367   6.247  0.00  0.00    +0.109 C 
ENDBRANCH   1   2
BRANCH   1   8
ATOM      8  C   LIG    1       25.359 -23.705   6.182  0.00  0.00    +0.231 C 
ATOM      9  O   LIG    1       25.633 -24.588   6.993  0.00  0.00    -0.274 OA
ATOM     10  N   LIG    1       24.954 -24.032   4.921  0.00  0.00    -0.328 N 
ATOM     11  H   LIG    1       24.883 -25.009   4.675  0.00  0.00    +0.145 HD
ATOM     12  H   LIG    1       24.746 -23.326   4.221  0.00  0.00    +0.145 HD
ENDBRANCH   1   8
BRANCH   1  14
ATOM     13  C   LIG    1       26.083 -20.598   8.417  0.00  0.00    +0.006 C 
ATOM     14  C   LIG    1       25.441 -21.920   8.029  0.00  0.00    +0.028 C 
ENDBRANCH   1  14
TORSDOF 3
ENDMDL
MODEL 4
REMARK VINA RESULT:      -5.9      2.028      4.203
REMARK  Name = *****
REMARK                            x       y       z     vdW  Elec       q    Type
REMARK                         _______ _______ _______ _____ _____    ______ ____
ROOT
ATOM      1  C   LIG    1       24.389 -21.188   6.339  0.00  0.00    +0.161 C 
ENDROOT
BRANCH   1   2
ATOM      2  N   LIG    1       25.777 -20.870   6.707  0.00  0.00    -0.290 N 
ATOM      3  C   LIG    1       26.245 -20.764   8.009  0.00  0.00    +0.216 C 
ATOM      4  O   LIG    1       25.619 -21.009   9.034  0.00  0.00    -0.276 OA
ATOM      5  C   LIG    1       27.640 -20.204   7.971  0.00  0.00    +0.097 C 
ATOM      6  C   LIG    1       28.024 -20.328   6.504  0.00  0.00    +0.028 C 
ATOM      7  C   LIG    1       26.693 -20.243   5.779  0.00  0.00    +0.109 C 
ENDBRANCH   1   2
BRANCH   1   8
ATOM      8  C   LIG    1       24.206 -22.708   6.147  0.00  0.00    +0.231 C 
ATOM      9  O   LIG    1       23.592 -23.409   6.948  0.00  0.00    -0.274 OA
ATOM     10  N   LIG    1       24.776 -23.267   5.041  0.00  0.00    -0.328 N 
ATOM     11  H   LIG    1       24.679 -24.262   4.898  0.00  0.00    +0.145 HD
ATOM     12  H   LIG    1       25.311 -22.719   4.373  0.00  0.00    +0.145 HD
ENDBRANCH   1   8
BRANCH   1  14
ATOM     13  C   LIG    1       22.589 -19.668   5.334  0.00  0.00    +0.006 C 
ATOM     14  C   LIG    1       23.921 -20.368   5.123  0.00  0.00    +0.028 C 
ENDBRANCH   1  14
TORSDOF 3
ENDMDL
MODEL 5
REMARK VINA RESULT:      -5.8      5.533      6.987
REMARK  Name = *****
REMARK                            x       y       z     vdW  Elec       q    Type
REMARK                         _______ _______ _______ _____ _____    ______ ____
ROOT
ATOM      1  C   LIG    1       31.014 -20.192   8.421  0.00  0.00    +0.161 C 
ENDROOT
BRANCH   1   2
ATOM      2  N   LIG    1       29.841 -20.291   7.538  0.00  0.00    -0.290 N 
ATOM      3  C   LIG    1       29.610 -19.476   6.438  0.00  0.00    +0.216 C 
ATOM      4  O   LIG    1       30.371 -18.632   5.979  0.00  0.00    -0.276 OA
ATOM      5  C   LIG    1       28.214 -19.731   5.940  0.00  0.00    +0.097 C 
ATOM      6  C   LIG    1       27.816 -21.010   6.663  0.00  0.00    +0.028 C 
ATOM      7  C   LIG    1       28.626 -20.960   7.946  0.00  0.00    +0.109 C 
ENDBRANCH   1   2
BRANCH   1   8
ATOM      8  C   LIG    1       31.269 -21.528   9.148  0.00  0.00    +0.231 C 
ATOM      9  O   LIG    1       30.887 -21.741  10.297  0.00  0.00    -0.274 OA
ATOM     10  N   LIG    1       31.965 -22.483   8.467  0.00  0.00    -0.328 N 
ATOM     11  H   LIG    1       32.154 -23.362   8.926  0.00  0.00    +0.145 HD
ATOM     12  H   LIG    1       32.316 -22.328   7.526  0.00  0.00    +0.145 HD
ENDBRANCH   1   8
BRANCH   1  14
ATOM     13  C   LIG    1       31.872 -17.869   9.076  0.00  0.00    +0.006 C 
ATOM     14  C   LIG    1       30.900 -18.996   9.383  0.00  0.00    +0.028 C 
ENDBRANCH   1  14
TORSDOF 3
ENDMDL
MODEL 6
REMARK VINA RESULT:      -5.8      2.019      3.157
REMARK  Name = *****
REMARK                            x       y       z     vdW  Elec       q    Type
REMARK                         _______ _______ _______ _____ _____    ______ ____
ROOT
ATOM      1  C   LIG    1       23.887 -21.241   5.165  0.00  0.00    +0.161 C 
ENDROOT
BRANCH   1   2
ATOM      2  N   LIG    1       24.717 -21.982   6.127  0.00  0.00    -0.290 N 
ATOM      3  C   LIG    1       25.130 -23.297   5.964  0.00  0.00    +0.216 C 
ATOM      4  O   LIG    1       24.960 -24.001   4.976  0.00  0.00    -0.276 OA
ATOM      5  C   LIG    1       25.756 -23.763   7.250  0.00  0.00    +0.097 C 
ATOM      6  C   LIG    1       25.952 -22.470   8.029  0.00  0.00    +0.028 C 
ATOM      7  C   LIG    1       24.849 -21.568   7.507  0.00  0.00    +0.109 C 
ENDBRANCH   1   2
BRANCH   1   8
ATOM      8  C   LIG    1       24.754 -20.632   4.044  0.00  0.00    +0.231 C 
ATOM      9  O   LIG    1       24.373 -20.556   2.877  0.00  0.00    -0.274 OA
ATOM     10  N   LIG    1       25.996 -20.187   4.392  0.00  0.00    -0.328 N 
ATOM     11  H   LIG    1       26.587 -19.795   3.673  0.00  0.00    +0.145 HD
ATOM     12  H   LIG    1       26.349 -20.260   5.342  0.00  0.00    +0.145 HD
ENDBRANCH   1   8
BRANCH   1  14
ATOM     13  C   LIG    1       22.411 -19.160   4.926  0.00  0.00    +0.006 C 
ATOM     14  C   LIG    1       22.996 -20.200   5.868  0.00  0.00    +0.028 C 
ENDBRANCH   1  14
TORSDOF 3
ENDMDL
MODEL 7
REMARK VINA RESULT:      -5.8      1.938      3.482
REMARK  Name = *****
REMARK                            x       y       z     vdW  Elec       q    Type
REMARK                         _______ _______ _______ _____ _____    ______ ____
ROOT
ATOM      1  C   LIG    1       25.294 -22.597   7.627  0.00  0.00    +0.161 C 
ENDROOT
BRANCH   1   2
ATOM      2  N   LIG    1       24.291 -21.852   6.852  0.00  0.00    -0.290 N 
ATOM      3  C   LIG    1       23.044 -22.345   6.494  0.00  0.00    +0.216 C 
ATOM      4  O   LIG    1       22.551 -23.412   6.840  0.00  0.00    -0.276 OA
ATOM      5  C   LIG    1       22.413 -21.386   5.521  0.00  0.00    +0.097 C 
ATOM      6  C   LIG    1       23.289 -20.147   5.638  0.00  0.00    +0.028 C 
ATOM      7  C   LIG    1       24.641 -20.704   6.044  0.00  0.00    +0.109 C 
ENDBRANCH   1   2
BRANCH   1   8
ATOM      8  C   LIG    1       26.193 -21.636   8.432  0.00  0.00    +0.231 C 
ATOM      9  O   LIG    1       25.775 -20.970   9.377  0.00  0.00    -0.274 OA
ATOM     10  N   LIG    1       27.496 -21.530   8.040  0.00  0.00    -0.328 N 
ATOM     11  H   LIG    1       28.102 -20.898   8.545  0.00  0.00    +0.145 HD
ATOM     12  H   LIG    1       27.865 -22.047   7.247  0.00  0.00    +0.145 HD
ENDBRANCH   1   8
BRANCH   1  14
ATOM     13  C   LIG    1       25.658 -25.015   6.863  0.00  0.00    +0.006 C 
ATOM     14  C   LIG    1       26.095 -23.565   6.737  0.00  0.00    +0.028 C 
ENDBRANCH   1  14
TORSDOF 3
ENDMDL
MODEL 8
REMARK VINA RESULT:      -5.7      2.431      3.022
REMARK  Name = *****
REMARK                            x       y       z     vdW  Elec       q    Type
REMARK                         _______ _______ _______ _____ _____    ______ ____
ROOT
ATOM      1  C   LIG    1       26.134 -21.770   6.792  0.00  0.00    +0.161 C 
ENDROOT
BRANCH   1   2
ATOM      2  N   LIG    1       24.956 -22.651   6.791  0.00  0.00    -0.290 N 
ATOM      3  C   LIG    1       25.008 -24.038   6.786  0.00  0.00    +0.216 C 
ATOM      4  O   LIG    1       26.012 -24.734   6.880  0.00  0.00    -0.276 OA
ATOM      5  C   LIG    1       23.619 -24.567   6.553  0.00  0.00    +0.097 C 
ATOM      6  C   LIG    1       22.741 -23.342   6.767  0.00  0.00    +0.028 C 
ATOM      7  C   LIG    1       23.647 -22.184   6.390  0.00  0.00    +0.109 C 
ENDBRANCH   1   2
BRANCH   1   8
ATOM      8  C   LIG    1       26.503 -21.347   8.229  0.00  0.00    +0.231 C 
ATOM      9  O   LIG    1       27.583 -21.624   8.746  0.00  0.00    -0.274 OA
ATOM     10  N   LIG    1       25.563 -20.654   8.933  0.00  0.00    -0.328 N 
ATOM     11  H   LIG    1       25.777 -20.375   9.880  0.00  0.00    +0.145 HD
ATOM     12  H   LIG    1       24.651 -20.431   8.543  0.00  0.00    +0.145 HD
ENDBRANCH   1   8
BRANCH   1  14
ATOM     13  C   LIG    1       27.241 -19.849   5.510  0.00  0.00    +0.006 C 
ATOM     14  C   LIG    1       25.948 -20.573   5.842  0.00  0.00    +0.028 C 
ENDBRANCH   1  14
TORSDOF 3
ENDMDL
MODEL 9
REMARK VINA RESULT:      -5.7      1.605      3.640
REMARK  Name = *****
REMARK                            x       y       z     vdW  Elec       q    Type
REMARK                         _______ _______ _______ _____ _____    ______ ____
ROOT
ATOM      1  C   LIG    1       25.308 -22.865   6.215  0.00  0.00    +0.161 C 
ENDROOT
BRANCH   1   2
ATOM      2  N   LIG    1       24.523 -21.686   5.818  0.00  0.00    -0.290 N 
ATOM      3  C   LIG    1       23.509 -21.121   6.578  0.00  0.00    +0.216 C 
ATOM      4  O   LIG    1       23.178 -21.442   7.714  0.00  0.00    -0.276 OA
ATOM      5  C   LIG    1       22.803 -20.090   5.740  0.00  0.00    +0.097 C 
ATOM      6  C   LIG    1       23.743 -19.902   4.558  0.00  0.00    +0.028 C 
ATOM      7  C   LIG    1       24.445 -21.242   4.444  0.00  0.00    +0.109 C 
ENDBRANCH   1   2
BRANCH   1   8
ATOM      8  C   LIG    1       24.524 -24.165   5.941  0.00  0.00    +0.231 C 
ATOM      9  O   LIG    1       23.659 -24.592   6.704  0.00  0.00    -0.274 OA
ATOM     10  N   LIG    1       24.841 -24.854   4.807  0.00  0.00    -0.328 N 
ATOM     11  H   LIG    1       24.348 -25.714   4.611  0.00  0.00    +0.145 HD
ATOM     12  H   LIG    1       25.568 -24.541   4.170  0.00  0.00    +0.145 HD
ENDBRANCH   1   8
BRANCH   1  14
ATOM     13  C   LIG    1       26.917 -21.744   7.863  0.00  0.00    +0.006 C 
ATOM     14  C   LIG    1       25.800 -22.756   7.670  0.00  0.00    +0.028 C 
ENDBRANCH   1  14
TORSDOF 3
ENDMDL
