MODEL 1
REMARK VINA RESULT:      -7.9      0.000      0.000
REMARK  Name = *****
REMARK                            x       y       z     vdW  Elec       q    Type
REMARK                         _______ _______ _______ _____ _____    ______ ____
ROOT
ATOM      1  C   LIG    1       23.525 -22.497   6.485  0.00  0.00    +0.042 C 
ATOM      2  C   LIG    1       24.739 -21.703   6.009  0.00  0.00    +0.069 C 
ATOM      3  C   LIG    1       25.753 -21.247   7.116  0.00  0.00    -0.000 C 
ATOM      4  C   LIG    1       25.020 -20.666   8.352  0.00  0.00    +0.014 C 
ATOM      5  C   LIG    1       26.531 -20.061   6.426  0.00  0.00    +0.001 C 
ATOM      6  C   LIG    1       27.945 -20.404   5.923  0.00  0.00    -0.004 C 
ATOM      7  C   LIG    1       28.744 -21.227   6.947  0.00  0.00    -0.001 C 
ATOM      8  C   LIG    1       27.994 -22.554   7.116  0.00  0.00    +0.005 C 
ATOM      9  C   LIG    1       29.687 -20.470   8.101  0.00  0.00    -0.022 C 
ATOM     10  C   LIG    1       30.221 -21.641   8.958  0.00  0.00    +0.012 C 
ATOM     11  C   LIG    1       30.646 -19.742   7.071  0.00  0.00    +0.001 C 
ATOM     12  C   LIG    1       31.877 -18.922   7.445  0.00  0.00    +0.059 C 
ATOM     13  C   LIG    1       31.446 -18.025   8.514  0.00  0.00    +0.040 A 
ATOM     14  C   LIG    1       30.352 -18.179   9.313  0.00  0.00    -0.006 A 
ATOM     15  C   LIG    1       30.409 -16.993  10.102  0.00  0.00    +0.138 A 
ATOM     16  N   LIG    1       31.378 -16.157   9.715  0.00  0.00    -0.182 NA
ATOM     17  N   LIG    1       31.976 -16.763   8.682  0.00  0.00    -0.281 N 
ATOM     18  H   LIG    1       32.657 -16.290   8.133  0.00  0.00    +0.189 HD
ATOM     19  C   LIG    1       29.700 -18.688   6.366  0.00  0.00    +0.005 C 
ATOM     20  C   LIG    1       29.294 -19.339   9.205  0.00  0.00    +0.045 C 
ATOM     21  C   LIG    1       28.743 -19.237   5.359  0.00  0.00    +0.004 C 
ATOM     22  C   LIG    1       25.627 -19.600   5.246  0.00  0.00    +0.007 C 
ATOM     23  C   LIG    1       26.607 -22.413   7.677  0.00  0.00    +0.010 C 
ATOM     24  C   LIG    1       24.323 -20.384   5.353  0.00  0.00    +0.035 C 
ENDROOT
BRANCH   2  25
ATOM     25  O   LIG    1       25.372 -22.537   5.032  0.00  0.00    -0.388 OA
ATOM     26  H   LIG    1       25.716 -23.337   5.459  0.00  0.00    +0.210 HD
ENDBRANCH   2  25
TORSDOF 1
ENDMDL
MODEL 2
REMARK VINA RESULT:      -6.4      9.477     11.804
REMARK  Name = *****
REMARK                            x       y       z     vdW  Elec       q    Type
REMARK                         _______ _______ _______ _____ _____    ______ ____
ROOT
ATOM      1  C   LIG    1       26.271 -26.995  15.500  0.00  0.00    +0.042 C 
ATOM      2  C   LIG    1       25.333 -27.751  14.563  0.00  0.00    +0.069 C 
ATOM      3  C   LIG    1       25.803 -27.899  13.074  0.00  0.00    -0.000 C 
ATOM      4  C   LIG    1       26.364 -26.565  12.520  0.00  0.00    +0.014 C 
ATOM      5  C   LIG    1       24.463 -28.205  12.301  0.00  0.00    +0.001 C 
ATOM      6  C   LIG    1       24.255 -29.677  11.898  0.00  0.00    -0.004 C 
ATOM      7  C   LIG    1       25.529 -30.305  11.310  0.00  0.00    -0.001 C 
ATOM      8  C   LIG    1       26.575 -30.291  12.431  0.00  0.00    +0.005 C 
ATOM      9  C   LIG    1       25.837 -30.235   9.668  0.00  0.00    -0.022 C 
ATOM     10  C   LIG    1       27.231 -30.889   9.533  0.00  0.00    +0.012 C 
ATOM     11  C   LIG    1       24.542 -31.036   9.229  0.00  0.00    +0.001 C 
ATOM     12  C   LIG    1       24.215 -31.463   7.802  0.00  0.00    +0.059 C 
ATOM     13  C   LIG    1       24.428 -30.279   6.975  0.00  0.00    +0.040 A 
ATOM     14  C   LIG    1       25.174 -29.184   7.299  0.00  0.00    -0.006 A 
ATOM     15  C   LIG    1       24.963 -28.351   6.161  0.00  0.00    +0.138 A 
ATOM     16  N   LIG    1       24.073 -28.859   5.303  0.00  0.00    -0.182 NA
ATOM     17  N   LIG    1       23.685 -30.021   5.843  0.00  0.00    -0.281 N 
ATOM     18  H   LIG    1       22.930 -30.541   5.455  0.00  0.00    +0.189 HD
ATOM     19  C   LIG    1       23.357 -30.057   9.603  0.00  0.00    +0.005 C 
ATOM     20  C   LIG    1       25.917 -28.953   8.667  0.00  0.00    +0.045 C 
ATOM     21  C   LIG    1       23.020 -29.960  11.054  0.00  0.00    +0.004 C 
ATOM     22  C   LIG    1       23.320 -27.730  13.243  0.00  0.00    +0.007 C 
ATOM     23  C   LIG    1       26.961 -28.916  12.900  0.00  0.00    +0.010 C 
ATOM     24  C   LIG    1       23.982 -27.042  14.432  0.00  0.00    +0.035 C 
ENDROOT
BRANCH   2  25
ATOM     25  O   LIG    1       25.137 -29.028  15.179  0.00  0.00    -0.388 OA
ATOM     26  H   LIG    1       24.494 -28.947  15.902  0.00  0.00    +0.210 HD
ENDBRANCH   2  25
TORSDOF 1
ENDMDL
MODEL 3
REMARK VINA RESULT:      -5.9     10.547     12.252
REMARK  Name = *****
REMARK                            x       y       z     vdW  Elec       q    Type
REMARK                         _______ _______ _______ _____ _____    ______ ____
ROOT
ATOM      1  C   LIG    1       18.321 -27.988  14.835  0.00  0.00    +0.042 C 
ATOM      2  C   LIG    1       19.707 -27.480  14.445  0.00  0.00    +0.069 C 
ATOM      3  C   LIG    1       20.835 -28.562  14.313  0.00  0.00    -0.000 C 
ATOM      4  C   LIG    1       20.801 -29.565  15.495  0.00  0.00    +0.014 C 
ATOM      5  C   LIG    1       22.161 -27.719  14.447  0.00  0.00    +0.001 C 
ATOM      6  C   LIG    1       22.906 -27.447  13.128  0.00  0.00    -0.004 C 
ATOM      7  C   LIG    1       22.992 -28.699  12.239  0.00  0.00    -0.001 C 
ATOM      8  C   LIG    1       21.551 -29.068  11.871  0.00  0.00    +0.005 C 
ATOM      9  C   LIG    1       24.281 -29.755  12.374  0.00  0.00    -0.022 C 
ATOM     10  C   LIG    1       23.923 -30.891  11.388  0.00  0.00    +0.012 C 
ATOM     11  C   LIG    1       25.396 -28.697  11.990  0.00  0.00    +0.001 C 
ATOM     12  C   LIG    1       26.876 -29.011  11.799  0.00  0.00    +0.059 C 
ATOM     13  C   LIG    1       27.264 -29.815  12.954  0.00  0.00    +0.040 A 
ATOM     14  C   LIG    1       26.430 -30.513  13.776  0.00  0.00    -0.006 A 
ATOM     15  C   LIG    1       27.348 -31.033  14.735  0.00  0.00    +0.138 A 
ATOM     16  N   LIG    1       28.593 -30.578  14.563  0.00  0.00    -0.182 NA
ATOM     17  N   LIG    1       28.528 -29.763  13.503  0.00  0.00    -0.281 N 
ATOM     18  H   LIG    1       29.305 -29.198  13.240  0.00  0.00    +0.189 HD
ATOM     19  C   LIG    1       25.387 -27.691  13.212  0.00  0.00    +0.005 C 
ATOM     20  C   LIG    1       24.860 -30.547  13.674  0.00  0.00    +0.045 C 
ATOM     21  C   LIG    1       24.243 -26.732  13.262  0.00  0.00    +0.004 C 
ATOM     22  C   LIG    1       21.739 -26.382  15.122  0.00  0.00    +0.007 C 
ATOM     23  C   LIG    1       20.690 -29.442  13.045  0.00  0.00    +0.010 C 
ATOM     24  C   LIG    1       20.267 -26.519  15.497  0.00  0.00    +0.035 C 
ENDROOT
BRANCH   2  25
ATOM     25  O   LIG    1       19.515 -26.773  13.215  0.00  0.00    -0.388 OA
ATOM     26  H   LIG    1       20.375 -26.526  12.843  0.00  0.00    +0.210 HD
ENDBRANCH   2  25
TORSDOF 1
ENDMDL
MODEL 4
REMARK VINA RESULT:      -5.7      9.422     10.788
REMARK  Name = *****
REMARK                            x       y       z     vdW  Elec       q    Type
REMARK                         _______ _______ _______ _____ _____    ______ ____
ROOT
ATOM      1  C   LIG    1       22.901 -32.936   8.489  0.00  0.00    +0.042 C 
ATOM      2  C   LIG    1       24.031 -31.959   8.800  0.00  0.00    +0.069 C 
ATOM      3  C   LIG    1       23.837 -31.044  10.059  0.00  0.00    -0.000 C 
ATOM      4  C   LIG    1       22.407 -30.447  10.111  0.00  0.00    +0.014 C 
ATOM      5  C   LIG    1       24.837 -29.853   9.797  0.00  0.00    +0.001 C 
ATOM      6  C   LIG    1       26.146 -29.900  10.606  0.00  0.00    -0.004 C 
ATOM      7  C   LIG    1       25.906 -30.265  12.080  0.00  0.00    -0.001 C 
ATOM      8  C   LIG    1       25.325 -31.684  12.086  0.00  0.00    +0.005 C 
ATOM      9  C   LIG    1       25.623 -29.075  13.220  0.00  0.00    -0.022 C 
ATOM     10  C   LIG    1       25.347 -29.873  14.515  0.00  0.00    +0.012 C 
ATOM     11  C   LIG    1       27.011 -28.335  13.027  0.00  0.00    +0.001 C 
ATOM     12  C   LIG    1       27.505 -27.162  13.866  0.00  0.00    +0.059 C 
ATOM     13  C   LIG    1       26.391 -26.221  13.927  0.00  0.00    +0.040 A 
ATOM     14  C   LIG    1       25.077 -26.499  13.693  0.00  0.00    -0.006 A 
ATOM     15  C   LIG    1       24.485 -25.210  13.833  0.00  0.00    +0.138 A 
ATOM     16  N   LIG    1       25.387 -24.240  14.010  0.00  0.00    -0.182 NA
ATOM     17  N   LIG    1       26.576 -24.856  13.995  0.00  0.00    -0.281 N 
ATOM     18  H   LIG    1       27.424 -24.335  13.985  0.00  0.00    +0.189 HD
ATOM     19  C   LIG    1       26.907 -27.729  11.569  0.00  0.00    +0.005 C 
ATOM     20  C   LIG    1       24.500 -27.896  13.252  0.00  0.00    +0.045 C 
ATOM     21  C   LIG    1       27.064 -28.697  10.443  0.00  0.00    +0.004 C 
ATOM     22  C   LIG    1       25.136 -29.887   8.271  0.00  0.00    +0.007 C 
ATOM     23  C   LIG    1       23.994 -31.809  11.398  0.00  0.00    +0.010 C 
ATOM     24  C   LIG    1       24.228 -30.951   7.664  0.00  0.00    +0.035 C 
ENDROOT
BRANCH   2  25
ATOM     25  O   LIG    1       25.205 -32.770   8.919  0.00  0.00    -0.388 OA
ATOM     26  H   LIG    1       25.982 -32.203   9.050  0.00  0.00    +0.210 HD
ENDBRANCH   2  25
TORSDOF 1
ENDMDL
MODEL 5
REMARK VINA RESULT:      -5.6     10.212     12.422
REMARK  Name = *****
REMARK                            x       y       z     vdW  Elec       q    Type
REMARK                         _______ _______ _______ _____ _____    ______ ____
ROOT
ATOM      1  C   LIG    1       24.777 -33.074   5.006  0.00  0.00    +0.042 C 
ATOM      2  C   LIG    1       24.037 -32.529   6.226  0.00  0.00    +0.069 C 
ATOM      3  C   LIG    1       24.924 -32.110   7.450  0.00  0.00    -0.000 C 
ATOM      4  C   LIG    1       26.013 -33.170   7.751  0.00  0.00    +0.014 C 
ATOM      5  C   LIG    1       23.905 -32.124   8.654  0.00  0.00    +0.001 C 
ATOM      6  C   LIG    1       23.417 -30.741   9.122  0.00  0.00    -0.004 C 
ATOM      7  C   LIG    1       24.565 -29.723   9.224  0.00  0.00    -0.001 C 
ATOM      8  C   LIG    1       25.115 -29.547   7.804  0.00  0.00    +0.005 C 
ATOM      9  C   LIG    1       25.425 -29.544  10.647  0.00  0.00    -0.022 C 
ATOM     10  C   LIG    1       26.517 -28.511  10.283  0.00  0.00    +0.012 C 
ATOM     11  C   LIG    1       24.184 -29.105  11.529  0.00  0.00    +0.001 C 
ATOM     12  C   LIG    1       24.256 -28.653  12.984  0.00  0.00    +0.059 C 
ATOM     13  C   LIG    1       25.085 -29.643  13.666  0.00  0.00    +0.040 A 
ATOM     14  C   LIG    1       25.965 -30.507  13.084  0.00  0.00    -0.006 A 
ATOM     15  C   LIG    1       26.418 -31.251  14.212  0.00  0.00    +0.138 A 
ATOM     16  N   LIG    1       25.770 -30.936  15.338  0.00  0.00    -0.182 NA
ATOM     17  N   LIG    1       24.890 -29.990  14.986  0.00  0.00    -0.281 N 
ATOM     18  H   LIG    1       24.196 -29.671  15.624  0.00  0.00    +0.189 HD
ATOM     19  C   LIG    1       23.294 -30.411  11.592  0.00  0.00    +0.005 C 
ATOM     20  C   LIG    1       26.225 -30.647  11.538  0.00  0.00    +0.045 C 
ATOM     21  C   LIG    1       22.524 -30.740  10.354  0.00  0.00    +0.004 C 
ATOM     22  C   LIG    1       22.706 -32.993   8.177  0.00  0.00    +0.007 C 
ATOM     23  C   LIG    1       25.709 -30.794   7.212  0.00  0.00    +0.010 C 
ATOM     24  C   LIG    1       23.093 -33.576   6.821  0.00  0.00    +0.035 C 
ENDROOT
BRANCH   2  25
ATOM     25  O   LIG    1       23.268 -31.425   5.735  0.00  0.00    -0.388 OA
ATOM     26  H   LIG    1       23.169 -31.498   4.773  0.00  0.00    +0.210 HD
ENDBRANCH   2  25
TORSDOF 1
ENDMDL
MODEL 6
REMARK VINA RESULT:      -5.5      9.876     12.334
REMARK  Name = *****
REMARK                            x       y       z     vdW  Elec       q    Type
REMARK                         _______ _______ _______ _____ _____    ______ ____
ROOT
ATOM      1  C   LIG    1       22.820 -29.142  15.500  0.00  0.00    +0.042 C 
ATOM      2  C   LIG    1       22.643 -29.887  14.180  0.00  0.00    +0.069 C 
ATOM      3  C   LIG    1       23.522 -29.394  12.977  0.00  0.00    -0.000 C 
ATOM      4  C   LIG    1       23.525 -27.848  12.873  0.00  0.00    +0.014 C 
ATOM      5  C   LIG    1       22.752 -29.951  11.717  0.00  0.00    +0.001 C 
ATOM      6  C   LIG    1       23.374 -31.197  11.061  0.00  0.00    -0.004 C 
ATOM      7  C   LIG    1       24.901 -31.080  10.920  0.00  0.00    -0.001 C 
ATOM      8  C   LIG    1       25.463 -30.995  12.344  0.00  0.00    +0.005 C 
ATOM      9  C   LIG    1       25.583 -30.414   9.546  0.00  0.00    -0.022 C 
ATOM     10  C   LIG    1       27.097 -30.405   9.861  0.00  0.00    +0.012 C 
ATOM     11  C   LIG    1       24.990 -31.483   8.539  0.00  0.00    +0.001 C 
ATOM     12  C   LIG    1       25.310 -31.560   7.050  0.00  0.00    +0.059 C 
ATOM     13  C   LIG    1       25.168 -30.198   6.543  0.00  0.00    +0.040 A 
ATOM     14  C   LIG    1       25.194 -29.050   7.278  0.00  0.00    -0.006 A 
ATOM     15  C   LIG    1       24.945 -28.066   6.275  0.00  0.00    +0.138 A 
ATOM     16  N   LIG    1       24.673 -28.600   5.081  0.00  0.00    -0.182 NA
ATOM     17  N   LIG    1       24.737 -29.925   5.262  0.00  0.00    -0.281 N 
ATOM     18  H   LIG    1       24.452 -30.555   4.546  0.00  0.00    +0.189 HD
ATOM     19  C   LIG    1       23.434 -31.196   8.568  0.00  0.00    +0.005 C 
ATOM     20  C   LIG    1       25.332 -28.966   8.844  0.00  0.00    +0.045 C 
ATOM     21  C   LIG    1       22.703 -31.671   9.780  0.00  0.00    +0.004 C 
ATOM     22  C   LIG    1       21.309 -30.255  12.211  0.00  0.00    +0.007 C 
ATOM     23  C   LIG    1       25.016 -29.784  13.114  0.00  0.00    +0.010 C 
ATOM     24  C   LIG    1       21.215 -29.751  13.647  0.00  0.00    +0.035 C 
ENDROOT
BRANCH   2  25
ATOM     25  O   LIG    1       22.902 -31.261  14.487  0.00  0.00    -0.388 OA
ATOM     26  H   LIG    1       22.081 -31.772  14.418  0.00  0.00    +0.210 HD
ENDBRANCH   2  25
TORSDOF 1
ENDMDL
MODEL 7
REMARK VINA RESULT:      -5.4      9.960     11.912
REMARK  Name = *****
REMARK                            x       y       z     vdW  Elec       q    Type
REMARK                         _______ _______ _______ _____ _____    ______ ____
ROOT
ATOM      1  C   LIG    1       18.791 -30.848  14.534  0.00  0.00    +0.042 C 
ATOM      2  C   LIG    1       19.684 -29.632  14.301  0.00  0.00    +0.069 C 
ATOM      3  C   LIG    1       21.232 -29.890  14.309  0.00  0.00    -0.000 C 
ATOM      4  C   LIG    1       21.647 -30.805  15.490  0.00  0.00    +0.014 C 
ATOM      5  C   LIG    1       21.834 -28.459  14.586  0.00  0.00    +0.001 C 
ATOM      6  C   LIG    1       22.427 -27.744  13.358  0.00  0.00    -0.004 C 
ATOM      7  C   LIG    1       23.289 -28.682  12.498  0.00  0.00    -0.001 C 
ATOM      8  C   LIG    1       22.349 -29.773  11.971  0.00  0.00    +0.005 C 
ATOM      9  C   LIG    1       24.927 -28.845  12.790  0.00  0.00    -0.022 C 
ATOM     10  C   LIG    1       25.369 -29.930  11.781  0.00  0.00    +0.012 C 
ATOM     11  C   LIG    1       25.288 -27.325  12.526  0.00  0.00    +0.001 C 
ATOM     12  C   LIG    1       26.700 -26.748  12.508  0.00  0.00    +0.059 C 
ATOM     13  C   LIG    1       27.354 -27.262  13.708  0.00  0.00    +0.040 A 
ATOM     14  C   LIG    1       26.977 -28.351  14.437  0.00  0.00    -0.006 A 
ATOM     15  C   LIG    1       27.927 -28.323  15.500  0.00  0.00    +0.138 A 
ATOM     16  N   LIG    1       28.712 -27.242  15.467  0.00  0.00    -0.182 NA
ATOM     17  N   LIG    1       28.308 -26.544  14.398  0.00  0.00    -0.281 N 
ATOM     18  H   LIG    1       28.656 -25.629  14.221  0.00  0.00    +0.189 HD
ATOM     19  C   LIG    1       24.594 -26.566  13.728  0.00  0.00    +0.005 C 
ATOM     20  C   LIG    1       25.716 -29.251  14.156  0.00  0.00    +0.045 C 
ATOM     21  C   LIG    1       23.111 -26.413  13.638  0.00  0.00    +0.004 C 
ATOM     22  C   LIG    1       20.670 -27.626  15.195  0.00  0.00    +0.007 C 
ATOM     23  C   LIG    1       21.733 -30.629  13.042  0.00  0.00    +0.010 C 
ATOM     24  C   LIG    1       19.500 -28.583  15.400  0.00  0.00    +0.035 C 
ENDROOT
BRANCH   2  25
ATOM     25  O   LIG    1       19.253 -29.085  13.050  0.00  0.00    -0.388 OA
ATOM     26  H   LIG    1       19.983 -29.115  12.411  0.00  0.00    +0.210 HD
ENDBRANCH   2  25
TORSDOF 1
ENDMDL
MODEL 8
REMARK VINA RESULT:      -5.3     10.070     12.205
REMARK  Name = *****
REMARK                            x       y       z     vdW  Elec       q    Type
REMARK                         _______ _______ _______ _____ _____    ______ ____
ROOT
ATOM      1  C   LIG    1       19.284 -32.549  11.369  0.00  0.00    +0.042 C 
ATOM      2  C   LIG    1       20.092 -31.311  11.749  0.00  0.00    +0.069 C 
ATOM      3  C   LIG    1       21.644 -31.504  11.880  0.00  0.00    -0.000 C 
ATOM      4  C   LIG    1       21.991 -32.794  12.667  0.00  0.00    +0.014 C 
ATOM      5  C   LIG    1       22.086 -30.276  12.766  0.00  0.00    +0.001 C 
ATOM      6  C   LIG    1       22.759 -29.121  12.003  0.00  0.00    -0.004 C 
ATOM      7  C   LIG    1       23.794 -29.622  10.982  0.00  0.00    -0.001 C 
ATOM      8  C   LIG    1       23.019 -30.449   9.950  0.00  0.00    +0.005 C 
ATOM      9  C   LIG    1       25.393 -29.834  11.421  0.00  0.00    -0.022 C 
ATOM     10  C   LIG    1       26.043 -30.425  10.149  0.00  0.00    +0.012 C 
ATOM     11  C   LIG    1       25.654 -28.321  11.813  0.00  0.00    +0.001 C 
ATOM     12  C   LIG    1       27.004 -27.739  12.220  0.00  0.00    +0.059 C 
ATOM     13  C   LIG    1       27.550 -28.660  13.213  0.00  0.00    +0.040 A 
ATOM     14  C   LIG    1       27.182 -29.958  13.407  0.00  0.00    -0.006 A 
ATOM     15  C   LIG    1       27.992 -30.318  14.525  0.00  0.00    +0.138 A 
ATOM     16  N   LIG    1       28.681 -29.285  15.020  0.00  0.00    -0.182 NA
ATOM     17  N   LIG    1       28.351 -28.239  14.253  0.00  0.00    -0.281 N 
ATOM     18  H   LIG    1       28.639 -27.316  14.491  0.00  0.00    +0.189 HD
ATOM     19  C   LIG    1       24.759 -28.113  13.101  0.00  0.00    +0.005 C 
ATOM     20  C   LIG    1       26.044 -30.716  12.626  0.00  0.00    +0.045 C 
ATOM     21  C   LIG    1       23.290 -27.984  12.864  0.00  0.00    +0.004 C 
ATOM     22  C   LIG    1       20.791 -29.784  13.473  0.00  0.00    +0.007 C 
ATOM     23  C   LIG    1       22.354 -31.674  10.512  0.00  0.00    +0.010 C 
ATOM     24  C   LIG    1       19.690 -30.780  13.127  0.00  0.00    +0.035 C 
ENDROOT
BRANCH   2  25
ATOM     25  O   LIG    1       19.770 -30.333  10.754  0.00  0.00    -0.388 OA
ATOM     26  H   LIG    1       20.469 -29.662  10.717  0.00  0.00    +0.210 HD
ENDBRANCH   2  25
TORSDOF 1
ENDMDL
MODEL 9
REMARK VINA RESULT:      -5.3     10.359     12.203
REMARK  Name = *****
REMARK                            x       y       z     vdW  Elec       q    Type
REMARK                         _______ _______ _______ _____ _____    ______ ____
ROOT
ATOM      1  C   LIG    1       25.461 -33.783   4.828  0.00  0.00    +0.042 C 
ATOM      2  C   LIG    1       25.809 -32.588   5.712  0.00  0.00    +0.069 C 
ATOM      3  C   LIG    1       25.005 -32.453   7.052  0.00  0.00    -0.000 C 
ATOM      4  C   LIG    1       23.490 -32.700   6.832  0.00  0.00    +0.014 C 
ATOM      5  C   LIG    1       25.186 -30.933   7.430  0.00  0.00    +0.001 C 
ATOM      6  C   LIG    1       26.203 -30.648   8.550  0.00  0.00    -0.004 C 
ATOM      7  C   LIG    1       26.056 -31.621   9.731  0.00  0.00    -0.001 C 
ATOM      8  C   LIG    1       26.373 -33.018   9.183  0.00  0.00    +0.005 C 
ATOM      9  C   LIG    1       25.037 -31.268  11.008  0.00  0.00    -0.022 C 
ATOM     10  C   LIG    1       25.122 -32.529  11.899  0.00  0.00    +0.012 C 
ATOM     11  C   LIG    1       25.782 -29.939  11.444  0.00  0.00    +0.001 C 
ATOM     12  C   LIG    1       25.442 -29.105  12.675  0.00  0.00    +0.059 C 
ATOM     13  C   LIG    1       23.993 -28.932  12.649  0.00  0.00    +0.040 A 
ATOM     14  C   LIG    1       23.094 -29.698  11.966  0.00  0.00    -0.006 A 
ATOM     15  C   LIG    1       21.870 -29.029  12.262  0.00  0.00    +0.138 A 
ATOM     16  N   LIG    1       22.049 -27.899  12.954  0.00  0.00    -0.182 NA
ATOM     17  N   LIG    1       23.372 -27.799  13.131  0.00  0.00    -0.281 N 
ATOM     18  H   LIG    1       23.778 -26.975  13.515  0.00  0.00    +0.189 HD
ATOM     19  C   LIG    1       25.509 -28.950  10.240  0.00  0.00    +0.005 C 
ATOM     20  C   LIG    1       23.450 -30.901  11.017  0.00  0.00    +0.045 C 
ATOM     21  C   LIG    1       26.300 -29.196   8.997  0.00  0.00    +0.004 C 
ATOM     22  C   LIG    1       25.611 -30.223   6.112  0.00  0.00    +0.007 C 
ATOM     23  C   LIG    1       25.422 -33.496   8.121  0.00  0.00    +0.010 C 
ATOM     24  C   LIG    1       25.525 -31.263   5.000  0.00  0.00    +0.035 C 
ENDROOT
BRANCH   2  25
ATOM     25  O   LIG    1       27.216 -32.700   5.956  0.00  0.00    -0.388 OA
ATOM     26  H   LIG    1       27.376 -33.366   6.643  0.00  0.00    +0.210 HD
ENDBRANCH   2  25
TORSDOF 1
ENDMDL
