MODEL 1
REMARK VINA RESULT:      -7.2      0.000      0.000
REMARK  Name = *****
REMARK                            x       y       z     vdW  Elec       q    Type
REMARK                         _______ _______ _______ _____ _____    ______ ____
ROOT
ATOM      1  C   LIG    1       21.902 -18.372   4.207  0.00  0.00    +0.007 C 
ENDROOT
BRANCH   1   2
ATOM      2  C   LIG    1       22.186 -19.493   5.211  0.00  0.00    +0.041 C 
BRANCH   2   3
ATOM      3  C   LIG    1       22.712 -20.776   4.577  0.00  0.00    +0.229 C 
BRANCH   3   4
ATOM      4  O   LIG    1       23.481 -21.502   5.534  0.00  0.00    -0.492 OA
BRANCH   4   8
ATOM      5  C   LIG    1       27.351 -20.004   5.952  0.00  0.00    +0.065 A 
ATOM      6  C   LIG    1       26.755 -20.642   7.044  0.00  0.00    +0.019 A 
ATOM      7  C   LIG    1       25.460 -21.160   6.943  0.00  0.00    +0.046 A 
ATOM      8  C   LIG    1       24.746 -21.028   5.752  0.00  0.00    +0.120 A 
ATOM      9  C   LIG    1       25.348 -20.409   4.654  0.00  0.00    +0.046 A 
ATOM     10  C   LIG    1       26.644 -19.892   4.751  0.00  0.00    +0.019 A 
BRANCH   5  13
ATOM     11  N   LIG    1       29.475 -19.849   7.062  0.00  0.00    -0.099 NA
ATOM     12  H   LIG    1       30.360 -19.338   7.052  0.00  0.00    +0.363 HD
ATOM     13  C   LIG    1       28.725 -19.440   6.097  0.00  0.00    +0.308 C 
BRANCH  13  14
ATOM     14  N   LIG    1       29.197 -18.507   5.213  0.00  0.00    -0.247 N 
ATOM     15  H   LIG    1       29.599 -18.856   4.351  0.00  0.00    +0.288 HD
ATOM     16  H   LIG    1       29.746 -17.759   5.616  0.00  0.00    +0.288 HD
ENDBRANCH  13  14
ENDBRANCH   5  13
ENDBRANCH   4   8
ENDBRANCH   3   4
ENDBRANCH   2   3
ENDBRANCH   1   2
BRANCH   1  17
ATOM     17  C   LIG    1       23.077 -17.389   4.109  0.00  0.00    +0.041 C 
BRANCH  17  18
ATOM     18  C   LIG    1       22.825 -16.059   4.823  0.00  0.00    +0.229 C 
BRANCH  18  19
ATOM     19  O   LIG    1       23.170 -15.001   3.929  0.00  0.00    -0.492 OA
BRANCH  19  20
ATOM     20  C   LIG    1       24.469 -14.580   3.945  0.00  0.00    +0.120 A 
ATOM     21  C   LIG    1       25.524 -15.175   3.256  0.00  0.00    +0.046 A 
ATOM     22  C   LIG    1       26.819 -14.650   3.367  0.00  0.00    +0.019 A 
ATOM     23  C   LIG    1       27.057 -13.521   4.161  0.00  0.00    +0.065 A 
ATOM     24  C   LIG    1       25.992 -12.911   4.828  0.00  0.00    +0.019 A 
ATOM     25  C   LIG    1       24.707 -13.436   4.711  0.00  0.00    +0.046 A 
BRANCH  23  26
ATOM     26  C   LIG    1       28.436 -12.968   4.267  0.00  0.00    +0.308 C 
ATOM     27  N   LIG    1       29.382 -13.267   3.425  0.00  0.00    -0.099 NA
ATOM     28  H   LIG    1       29.041 -13.872   2.678  0.00  0.00    +0.363 HD
BRANCH  26  29
ATOM     29  N   LIG    1       28.773 -12.118   5.272  0.00  0.00    -0.247 N 
ATOM     30  H   LIG    1       29.110 -12.636   6.080  0.00  0.00    +0.288 HD
ATOM     31  H   LIG    1       28.071 -11.430   5.522  0.00  0.00    +0.288 HD
ENDBRANCH  26  29
ENDBRANCH  23  26
ENDBRANCH  19  20
ENDBRANCH  18  19
ENDBRANCH  17  18
ENDBRANCH   1  17
TORSDOF 12
ENDMDL
MODEL 2
REMARK VINA RESULT:      -7.1      0.484      6.314
REMARK  Name = *****
REMARK                            x       y       z     vdW  Elec       q    Type
REMARK                         _______ _______ _______ _____ _____    ______ ____
ROOT
ATOM      1  C   LIG    1       22.007 -18.419   4.483  0.00  0.00    +0.007 C 
ENDROOT
BRANCH   1   2
ATOM      2  C   LIG    1       23.050 -17.343   4.166  0.00  0.00    +0.041 C 
BRANCH   2   3
ATOM      3  C   LIG    1       22.762 -15.990   4.805  0.00  0.00    +0.229 C 
BRANCH   3   4
ATOM      4  O   LIG    1       23.120 -14.947   3.901  0.00  0.00    -0.492 OA
BRANCH   4   8
ATOM      5  C   LIG    1       27.018 -13.490   4.191  0.00  0.00    +0.065 A 
ATOM      6  C   LIG    1       26.793 -14.672   3.479  0.00  0.00    +0.019 A 
ATOM      7  C   LIG    1       25.500 -15.192   3.357  0.00  0.00    +0.046 A 
ATOM      8  C   LIG    1       24.425 -14.540   3.961  0.00  0.00    +0.120 A 
ATOM      9  C   LIG    1       24.646 -13.348   4.655  0.00  0.00    +0.046 A 
ATOM     10  C   LIG    1       25.937 -12.823   4.777  0.00  0.00    +0.019 A 
BRANCH   5  13
ATOM     11  N   LIG    1       29.293 -13.305   3.446  0.00  0.00    -0.099 NA
ATOM     12  H   LIG    1       30.201 -12.911   3.701  0.00  0.00    +0.363 HD
ATOM     13  C   LIG    1       28.411 -12.973   4.325  0.00  0.00    +0.308 C 
BRANCH  13  14
ATOM     14  N   LIG    1       28.755 -12.145   5.359  0.00  0.00    -0.247 N 
ATOM     15  H   LIG    1       29.696 -11.770   5.351  0.00  0.00    +0.288 HD
ATOM     16  H   LIG    1       28.474 -12.453   6.281  0.00  0.00    +0.288 HD
ENDBRANCH  13  14
ENDBRANCH   5  13
ENDBRANCH   4   8
ENDBRANCH   3   4
ENDBRANCH   2   3
ENDBRANCH   1   2
BRANCH   1  17
ATOM     17  C   LIG    1       22.516 -19.405   5.543  0.00  0.00    +0.041 C 
BRANCH  17  18
ATOM     18  C   LIG    1       22.409 -20.872   5.117  0.00  0.00    +0.229 C 
BRANCH  18  19
ATOM     19  O   LIG    1       23.546 -21.185   4.312  0.00  0.00    -0.492 OA
BRANCH  19  20
ATOM     20  C   LIG    1       24.771 -20.880   4.830  0.00  0.00    +0.120 A 
ATOM     21  C   LIG    1       25.327 -21.435   5.982  0.00  0.00    +0.046 A 
ATOM     22  C   LIG    1       26.594 -21.025   6.418  0.00  0.00    +0.019 A 
ATOM     23  C   LIG    1       27.313 -20.065   5.693  0.00  0.00    +0.065 A 
ATOM     24  C   LIG    1       26.765 -19.532   4.525  0.00  0.00    +0.019 A 
ATOM     25  C   LIG    1       25.506 -19.946   4.095  0.00  0.00    +0.046 A 
BRANCH  23  26
ATOM     26  C   LIG    1       28.662 -19.642   6.161  0.00  0.00    +0.308 C 
ATOM     27  N   LIG    1       29.338 -20.304   7.056  0.00  0.00    -0.099 NA
ATOM     28  H   LIG    1       28.851 -21.153   7.340  0.00  0.00    +0.363 HD
BRANCH  26  29
ATOM     29  N   LIG    1       29.252 -18.520   5.672  0.00  0.00    -0.247 N 
ATOM     30  H   LIG    1       28.993 -17.709   6.228  0.00  0.00    +0.288 HD
ATOM     31  H   LIG    1       29.134 -18.357   4.678  0.00  0.00    +0.288 HD
ENDBRANCH  26  29
ENDBRANCH  23  26
ENDBRANCH  19  20
ENDBRANCH  18  19
ENDBRANCH  17  18
ENDBRANCH   1  17
TORSDOF 12
ENDMDL
