MODEL 1
REMARK VINA RESULT:      -7.7      0.000      0.000
REMARK  Name = *****
REMARK                            x       y       z     vdW  Elec       q    Type
REMARK                         _______ _______ _______ _____ _____    ______ ____
ROOT
ATOM      1  C   LIG    1       23.967 -23.984   6.534  0.00  0.00    +0.234 C 
ATOM      2  N   LIG    1       25.055 -24.840   6.662  0.00  0.00    -0.288 N 
ATOM      3  C   LIG    1       25.175 -26.099   5.863  0.00  0.00    +0.163 C 
ATOM      4  C   LIG    1       26.694 -25.897   5.931  0.00  0.00    +0.051 C 
ATOM      5  C   LIG    1       26.466 -24.506   6.475  0.00  0.00    +0.111 C 
ATOM      6  O   LIG    1       22.813 -24.397   6.663  0.00  0.00    -0.274 OA
ENDROOT
BRANCH   3   7
ATOM      7  C   LIG    1       24.668 -27.453   6.439  0.00  0.00    +0.234 C 
ATOM      8  N   LIG    1       25.562 -28.101   7.256  0.00  0.00    -0.310 N 
ATOM      9  H   LIG    1       26.456 -27.659   7.435  0.00  0.00    +0.149 HD
ATOM     10  O   LIG    1       23.569 -27.937   6.171  0.00  0.00    -0.274 OA
BRANCH   8  11
ATOM     11  C   LIG    1       25.218 -29.322   7.948  0.00  0.00    +0.139 C 
BRANCH  11  12
ATOM     12  C   LIG    1       25.643 -29.243   9.390  0.00  0.00    -0.030 A 
ATOM     13  C   LIG    1       26.754 -28.478   9.760  0.00  0.00    +0.006 A 
ATOM     14  C   LIG    1       27.085 -28.314  11.108  0.00  0.00    +0.016 A 
ATOM     15  C   LIG    1       26.338 -28.939  12.111  0.00  0.00    +0.069 A 
ATOM     16  C   LIG    1       25.251 -29.745  11.738  0.00  0.00    +0.016 A 
ATOM     17  C   LIG    1       24.913 -29.903  10.389  0.00  0.00    +0.006 A 
BRANCH  15  18
ATOM     18  C   LIG    1       26.600 -28.680  13.568  0.00  0.00    +0.362 C 
ATOM     19  N   LIG    1       27.420 -29.325  14.360  0.00  0.00    +0.151 NA
BRANCH  18  20
ATOM     20  N   LIG    1       25.943 -27.626  14.160  0.00  0.00    -0.243 N 
ATOM     21  H   LIG    1       25.069 -27.934  14.575  0.00  0.00    +0.289 HD
ATOM     22  H   LIG    1       26.503 -27.075  14.800  0.00  0.00    +0.289 HD
ENDBRANCH  18  20
BRANCH  19  23
ATOM     23  O   LIG    1       28.041 -30.426  13.775  0.00  0.00    -0.311 OA
ATOM     24  H   LIG    1       27.335 -31.099  13.805  0.00  0.00    +0.360 HD
ENDBRANCH  19  23
ENDBRANCH  15  18
ENDBRANCH  11  12
ENDBRANCH   8  11
ENDBRANCH   3   7
BRANCH   1  25
ATOM     25  C   LIG    1       24.240 -22.485   6.143  0.00  0.00    +0.144 C 
BRANCH  25  26
ATOM     26  C   LIG    1       23.399 -22.037   4.899  0.00  0.00    +0.015 C 
ATOM     27  C   LIG    1       22.220 -21.086   5.191  0.00  0.00    +0.005 C 
ATOM     28  C   LIG    1       22.666 -19.672   5.528  0.00  0.00    +0.000 C 
ATOM     29  C   LIG    1       23.464 -19.068   4.379  0.00  0.00    +0.000 C 
ATOM     30  C   LIG    1       24.620 -19.957   3.934  0.00  0.00    +0.000 C 
ATOM     31  C   LIG    1       24.257 -21.434   3.769  0.00  0.00    +0.005 C 
ENDBRANCH  25  26
BRANCH  25  32
ATOM     32  N   LIG    1       23.957 -21.632   7.322  0.00  0.00    -0.296 NA
ATOM     33  H   LIG    1       23.072 -21.135   7.207  0.00  0.00    +0.123 HD
BRANCH  32  34
ATOM     34  C   LIG    1       24.998 -20.631   7.616  0.00  0.00    +0.203 C 
BRANCH  34  35
ATOM     35  C   LIG    1       25.946 -21.289   8.594  0.00  0.00    +0.321 C 
ATOM     36  O   LIG    1       25.553 -22.079   9.419  0.00  0.00    -0.249 OA
BRANCH  35  37
ATOM     37  O   LIG    1       27.265 -21.053   8.260  0.00  0.00    -0.464 OA
BRANCH  37  39
ATOM     38  C   LIG    1       28.926 -20.417   6.527  0.00  0.00    +0.048 C 
ATOM     39  C   LIG    1       27.511 -20.847   6.861  0.00  0.00    +0.229 C 
ENDBRANCH  37  39
ENDBRANCH  35  37
ENDBRANCH  34  35
ENDBRANCH  32  34
ENDBRANCH  25  32
ENDBRANCH   1  25
TORSDOF 13
ENDMDL
MODEL 2
REMARK VINA RESULT:      -7.6      4.325      8.640
REMARK  Name = *****
REMARK                            x       y       z     vdW  Elec       q    Type
REMARK                         _______ _______ _______ _____ _____    ______ ____
ROOT
ATOM      1  C   LIG    1       25.176 -23.589   5.582  0.00  0.00    +0.234 C 
ATOM      2  N   LIG    1       25.979 -23.041   6.577  0.00  0.00    -0.288 N 
ATOM      3  C   LIG    1       25.908 -21.595   6.950  0.00  0.00    +0.163 C 
ATOM      4  C   LIG    1       26.303 -22.030   8.367  0.00  0.00    +0.051 C 
ATOM      5  C   LIG    1       26.068 -23.469   7.971  0.00  0.00    +0.111 C 
ATOM      6  O   LIG    1       25.147 -23.104   4.449  0.00  0.00    -0.274 OA
ENDROOT
BRANCH   3   7
ATOM      7  C   LIG    1       26.866 -20.560   6.292  0.00  0.00    +0.234 C 
ATOM      8  N   LIG    1       28.054 -20.371   6.957  0.00  0.00    -0.310 N 
ATOM      9  H   LIG    1       28.226 -20.914   7.795  0.00  0.00    +0.149 HD
ATOM     10  O   LIG    1       26.588 -19.927   5.274  0.00  0.00    -0.274 OA
BRANCH   8  11
ATOM     11  C   LIG    1       29.094 -19.516   6.433  0.00  0.00    +0.139 C 
BRANCH  11  12
ATOM     12  C   LIG    1       29.909 -18.936   7.559  0.00  0.00    -0.030 A 
ATOM     13  C   LIG    1       31.301 -18.858   7.459  0.00  0.00    +0.006 A 
ATOM     14  C   LIG    1       32.049 -18.221   8.453  0.00  0.00    +0.016 A 
ATOM     15  C   LIG    1       31.428 -17.681   9.583  0.00  0.00    +0.069 A 
ATOM     16  C   LIG    1       30.035 -17.799   9.706  0.00  0.00    +0.016 A 
ATOM     17  C   LIG    1       29.284 -18.430   8.708  0.00  0.00    +0.006 A 
BRANCH  15  18
ATOM     18  C   LIG    1       32.194 -16.886  10.602  0.00  0.00    +0.362 C 
ATOM     19  N   LIG    1       32.910 -15.807  10.402  0.00  0.00    +0.151 NA
BRANCH  18  20
ATOM     20  N   LIG    1       32.127 -17.292  11.915  0.00  0.00    -0.243 N 
ATOM     21  H   LIG    1       32.867 -16.864  12.463  0.00  0.00    +0.289 HD
ATOM     22  H   LIG    1       31.217 -17.193  12.350  0.00  0.00    +0.289 HD
ENDBRANCH  18  20
BRANCH  19  23
ATOM     23  O   LIG    1       33.025 -15.431   9.065  0.00  0.00    -0.311 OA
ATOM     24  H   LIG    1       33.030 -14.458   9.125  0.00  0.00    +0.360 HD
ENDBRANCH  19  23
ENDBRANCH  15  18
ENDBRANCH  11  12
ENDBRANCH   8  11
ENDBRANCH   3   7
BRANCH   1  25
ATOM     25  C   LIG    1       24.243 -24.797   5.959  0.00  0.00    +0.144 C 
BRANCH  25  26
ATOM     26  C   LIG    1       25.045 -25.991   6.582  0.00  0.00    +0.015 C 
ATOM     27  C   LIG    1       24.270 -27.316   6.732  0.00  0.00    +0.005 C 
ATOM     28  C   LIG    1       24.043 -28.026   5.406  0.00  0.00    +0.000 C 
ATOM     29  C   LIG    1       25.370 -28.348   4.732  0.00  0.00    +0.000 C 
ATOM     30  C   LIG    1       26.274 -27.128   4.596  0.00  0.00    +0.000 C 
ATOM     31  C   LIG    1       26.377 -26.272   5.860  0.00  0.00    +0.005 C 
ENDBRANCH  25  26
BRANCH  25  32
ATOM     32  N   LIG    1       23.194 -24.309   6.886  0.00  0.00    -0.296 NA
ATOM     33  H   LIG    1       22.738 -25.090   7.362  0.00  0.00    +0.123 HD
BRANCH  32  34
ATOM     34  C   LIG    1       22.141 -23.499   6.246  0.00  0.00    +0.203 C 
BRANCH  34  35
ATOM     35  C   LIG    1       22.467 -22.058   6.574  0.00  0.00    +0.321 C 
ATOM     36  O   LIG    1       22.902 -21.740   7.655  0.00  0.00    -0.249 OA
BRANCH  35  37
ATOM     37  O   LIG    1       22.426 -21.259   5.448  0.00  0.00    -0.464 OA
BRANCH  37  39
ATOM     38  C   LIG    1       22.501 -18.921   4.617  0.00  0.00    +0.048 C 
ATOM     39  C   LIG    1       23.002 -19.955   5.607  0.00  0.00    +0.229 C 
ENDBRANCH  37  39
ENDBRANCH  35  37
ENDBRANCH  34  35
ENDBRANCH  32  34
ENDBRANCH  25  32
ENDBRANCH   1  25
TORSDOF 13
ENDMDL
MODEL 3
REMARK VINA RESULT:      -7.4      1.824      2.246
REMARK  Name = *****
REMARK                            x       y       z     vdW  Elec       q    Type
REMARK                         _______ _______ _______ _____ _____    ______ ____
ROOT
ATOM      1  C   LIG    1       25.836 -24.954   6.923  0.00  0.00    +0.234 C 
ATOM      2  N   LIG    1       25.679 -26.023   6.048  0.00  0.00    -0.288 N 
ATOM      3  C   LIG    1       24.613 -27.055   6.236  0.00  0.00    +0.163 C 
ATOM      4  C   LIG    1       24.598 -27.195   4.709  0.00  0.00    +0.051 C 
ATOM      5  C   LIG    1       25.455 -25.955   4.606  0.00  0.00    +0.111 C 
ATOM      6  O   LIG    1       25.964 -25.137   8.135  0.00  0.00    -0.274 OA
ENDROOT
BRANCH   3   7
ATOM      7  C   LIG    1       24.913 -28.371   7.011  0.00  0.00    +0.234 C 
ATOM      8  N   LIG    1       25.924 -28.276   7.937  0.00  0.00    -0.310 N 
ATOM      9  H   LIG    1       26.378 -27.379   8.060  0.00  0.00    +0.149 HD
ATOM     10  O   LIG    1       24.324 -29.432   6.803  0.00  0.00    -0.274 OA
BRANCH   8  11
ATOM     11  C   LIG    1       26.267 -29.376   8.807  0.00  0.00    +0.139 C 
BRANCH  11  12
ATOM     12  C   LIG    1       26.012 -29.005  10.244  0.00  0.00    -0.030 A 
ATOM     13  C   LIG    1       26.800 -28.040  10.878  0.00  0.00    +0.006 A 
ATOM     14  C   LIG    1       26.496 -27.616  12.174  0.00  0.00    +0.016 A 
ATOM     15  C   LIG    1       25.423 -28.170  12.878  0.00  0.00    +0.069 A 
ATOM     16  C   LIG    1       24.660 -29.173  12.260  0.00  0.00    +0.016 A 
ATOM     17  C   LIG    1       24.957 -29.593  10.959  0.00  0.00    +0.006 A 
BRANCH  15  18
ATOM     18  C   LIG    1       25.003 -27.645  14.222  0.00  0.00    +0.362 C 
ATOM     19  N   LIG    1       24.053 -26.783  14.482  0.00  0.00    +0.151 NA
BRANCH  18  20
ATOM     20  N   LIG    1       25.649 -28.137  15.333  0.00  0.00    -0.243 N 
ATOM     21  H   LIG    1       26.133 -27.394  15.827  0.00  0.00    +0.289 HD
ATOM     22  H   LIG    1       25.076 -28.703  15.948  0.00  0.00    +0.289 HD
ENDBRANCH  18  20
BRANCH  19  23
ATOM     23  O   LIG    1       23.440 -26.242  13.354  0.00  0.00    -0.311 OA
ATOM     24  H   LIG    1       22.935 -25.498  13.730  0.00  0.00    +0.360 HD
ENDBRANCH  19  23
ENDBRANCH  15  18
ENDBRANCH  11  12
ENDBRANCH   8  11
ENDBRANCH   3   7
BRANCH   1  25
ATOM     25  C   LIG    1       25.767 -23.496   6.338  0.00  0.00    +0.144 C 
BRANCH  25  26
ATOM     26  C   LIG    1       24.365 -23.176   5.714  0.00  0.00    +0.015 C 
ATOM     27  C   LIG    1       23.207 -22.995   6.717  0.00  0.00    +0.005 C 
ATOM     28  C   LIG    1       23.282 -21.682   7.480  0.00  0.00    +0.000 C 
ATOM     29  C   LIG    1       23.244 -20.497   6.523  0.00  0.00    +0.000 C 
ATOM     30  C   LIG    1       24.295 -20.595   5.422  0.00  0.00    +0.000 C 
ATOM     31  C   LIG    1       24.386 -21.969   4.755  0.00  0.00    +0.005 C 
ENDBRANCH  25  26
BRANCH  25  32
ATOM     32  N   LIG    1       26.108 -22.539   7.418  0.00  0.00    -0.296 NA
ATOM     33  H   LIG    1       25.320 -21.920   7.617  0.00  0.00    +0.123 HD
BRANCH  32  34
ATOM     34  C   LIG    1       27.282 -21.693   7.137  0.00  0.00    +0.203 C 
BRANCH  34  35
ATOM     35  C   LIG    1       27.256 -20.586   8.169  0.00  0.00    +0.321 C 
ATOM     36  O   LIG    1       26.391 -20.529   9.010  0.00  0.00    -0.249 OA
BRANCH  35  37
ATOM     37  O   LIG    1       28.425 -19.850   8.154  0.00  0.00    -0.464 OA
BRANCH  37  39
ATOM     38  C   LIG    1       29.610 -18.775   6.257  0.00  0.00    +0.048 C 
ATOM     39  C   LIG    1       29.253 -20.048   7.000  0.00  0.00    +0.229 C 
ENDBRANCH  37  39
ENDBRANCH  35  37
ENDBRANCH  34  35
ENDBRANCH  32  34
ENDBRANCH  25  32
ENDBRANCH   1  25
TORSDOF 13
ENDMDL
MODEL 4
REMARK VINA RESULT:      -7.3      2.266      2.867
REMARK  Name = *****
REMARK                            x       y       z     vdW  Elec       q    Type
REMARK                         _______ _______ _______ _____ _____    ______ ____
ROOT
ATOM      1  C   LIG    1       25.756 -23.616   6.636  0.00  0.00    +0.234 C 
ATOM      2  N   LIG    1       25.557 -24.757   5.866  0.00  0.00    -0.288 N 
ATOM      3  C   LIG    1       24.737 -25.911   6.351  0.00  0.00    +0.163 C 
ATOM      4  C   LIG    1       24.377 -26.161   4.881  0.00  0.00    +0.051 C 
ATOM      5  C   LIG    1       24.985 -24.825   4.523  0.00  0.00    +0.111 C 
ATOM      6  O   LIG    1       26.198 -23.692   7.784  0.00  0.00    -0.274 OA
ENDROOT
BRANCH   3   7
ATOM      7  C   LIG    1       25.411 -27.113   7.073  0.00  0.00    +0.234 C 
ATOM      8  N   LIG    1       24.713 -28.294   7.000  0.00  0.00    -0.310 N 
ATOM      9  H   LIG    1       23.843 -28.305   6.482  0.00  0.00    +0.149 HD
ATOM     10  O   LIG    1       26.471 -27.025   7.693  0.00  0.00    -0.274 OA
BRANCH   8  11
ATOM     11  C   LIG    1       25.241 -29.527   7.535  0.00  0.00    +0.139 C 
BRANCH  11  12
ATOM     12  C   LIG    1       24.741 -29.744   8.939  0.00  0.00    -0.030 A 
ATOM     13  C   LIG    1       25.548 -29.426  10.036  0.00  0.00    +0.006 A 
ATOM     14  C   LIG    1       25.047 -29.523  11.336  0.00  0.00    +0.016 A 
ATOM     15  C   LIG    1       23.744 -29.973  11.572  0.00  0.00    +0.069 A 
ATOM     16  C   LIG    1       22.949 -30.336  10.474  0.00  0.00    +0.016 A 
ATOM     17  C   LIG    1       23.447 -30.232   9.170  0.00  0.00    +0.006 A 
BRANCH  15  18
ATOM     18  C   LIG    1       23.144 -29.969  12.949  0.00  0.00    +0.362 C 
ATOM     19  N   LIG    1       22.431 -29.023  13.508  0.00  0.00    +0.151 NA
BRANCH  18  20
ATOM     20  N   LIG    1       23.312 -31.092  13.726  0.00  0.00    -0.243 N 
ATOM     21  H   LIG    1       22.423 -31.553  13.891  0.00  0.00    +0.289 HD
ATOM     22  H   LIG    1       24.028 -31.734  13.405  0.00  0.00    +0.289 HD
ENDBRANCH  18  20
BRANCH  19  23
ATOM     23  O   LIG    1       22.310 -27.864  12.745  0.00  0.00    -0.311 OA
ATOM     24  H   LIG    1       21.728 -27.312  13.299  0.00  0.00    +0.360 HD
ENDBRANCH  19  23
ENDBRANCH  15  18
ENDBRANCH  11  12
ENDBRANCH   8  11
ENDBRANCH   3   7
BRANCH   1  25
ATOM     25  C   LIG    1       25.327 -22.228   6.035  0.00  0.00    +0.144 C 
BRANCH  25  26
ATOM     26  C   LIG    1       24.113 -21.600   6.804  0.00  0.00    +0.015 C 
ATOM     27  C   LIG    1       23.444 -20.386   6.128  0.00  0.00    +0.005 C 
ATOM     28  C   LIG    1       22.611 -20.766   4.914  0.00  0.00    +0.000 C 
ATOM     29  C   LIG    1       21.504 -21.739   5.301  0.00  0.00    +0.000 C 
ATOM     30  C   LIG    1       22.027 -22.956   6.057  0.00  0.00    +0.000 C 
ATOM     31  C   LIG    1       23.026 -22.629   7.169  0.00  0.00    +0.005 C 
ENDBRANCH  25  26
BRANCH  25  32
ATOM     32  N   LIG    1       26.502 -21.324   6.052  0.00  0.00    -0.296 NA
ATOM     33  H   LIG    1       27.361 -21.842   5.858  0.00  0.00    +0.123 HD
BRANCH  32  34
ATOM     34  C   LIG    1       26.695 -20.597   7.320  0.00  0.00    +0.203 C 
BRANCH  34  35
ATOM     35  C   LIG    1       28.183 -20.622   7.594  0.00  0.00    +0.321 C 
ATOM     36  O   LIG    1       28.653 -21.316   8.464  0.00  0.00    -0.249 OA
BRANCH  35  37
ATOM     37  O   LIG    1       28.893 -19.967   6.606  0.00  0.00    -0.464 OA
BRANCH  37  39
ATOM     38  C   LIG    1       31.211 -19.298   7.189  0.00  0.00    +0.048 C 
ATOM     39  C   LIG    1       29.750 -18.914   7.070  0.00  0.00    +0.229 C 
ENDBRANCH  37  39
ENDBRANCH  35  37
ENDBRANCH  34  35
ENDBRANCH  32  34
ENDBRANCH  25  32
ENDBRANCH   1  25
TORSDOF 13
ENDMDL
MODEL 5
REMARK VINA RESULT:      -7.2      2.656      9.472
REMARK  Name = *****
REMARK                            x       y       z     vdW  Elec       q    Type
REMARK                         _______ _______ _______ _____ _____    ______ ____
ROOT
ATOM      1  C   LIG    1       23.993 -30.623  10.165  0.00  0.00    +0.234 C 
ATOM      2  N   LIG    1       24.482 -30.995   8.917  0.00  0.00    -0.288 N 
ATOM      3  C   LIG    1       25.254 -30.050   8.052  0.00  0.00    +0.163 C 
ATOM      4  C   LIG    1       25.995 -31.282   7.516  0.00  0.00    +0.051 C 
ATOM      5  C   LIG    1       25.378 -32.110   8.619  0.00  0.00    +0.111 C 
ATOM      6  O   LIG    1       23.284 -29.624  10.299  0.00  0.00    -0.274 OA
ENDROOT
BRANCH   3   7
ATOM      7  C   LIG    1       24.531 -29.199   6.969  0.00  0.00    +0.234 C 
ATOM      8  N   LIG    1       24.926 -27.885   6.910  0.00  0.00    -0.310 N 
ATOM      9  H   LIG    1       25.651 -27.574   7.546  0.00  0.00    +0.149 HD
ATOM     10  O   LIG    1       23.649 -29.642   6.233  0.00  0.00    -0.274 OA
BRANCH   8  11
ATOM     11  C   LIG    1       24.424 -26.980   5.902  0.00  0.00    +0.139 C 
BRANCH  11  12
ATOM     12  C   LIG    1       24.575 -25.553   6.358  0.00  0.00    -0.030 A 
ATOM     13  C   LIG    1       25.843 -25.023   6.617  0.00  0.00    +0.006 A 
ATOM     14  C   LIG    1       25.994 -23.670   6.934  0.00  0.00    +0.016 A 
ATOM     15  C   LIG    1       24.883 -22.828   7.035  0.00  0.00    +0.069 A 
ATOM     16  C   LIG    1       23.606 -23.370   6.820  0.00  0.00    +0.016 A 
ATOM     17  C   LIG    1       23.453 -24.722   6.494  0.00  0.00    +0.006 A 
BRANCH  15  18
ATOM     18  C   LIG    1       25.029 -21.349   7.253  0.00  0.00    +0.362 C 
ATOM     19  N   LIG    1       25.374 -20.734   8.357  0.00  0.00    +0.151 NA
BRANCH  18  20
ATOM     20  N   LIG    1       24.820 -20.517   6.177  0.00  0.00    -0.243 N 
ATOM     21  H   LIG    1       23.830 -20.443   5.967  0.00  0.00    +0.289 HD
ATOM     22  H   LIG    1       25.273 -19.613   6.237  0.00  0.00    +0.289 HD
ENDBRANCH  18  20
BRANCH  19  23
ATOM     23  O   LIG    1       25.530 -21.571   9.460  0.00  0.00    -0.311 OA
ATOM     24  H   LIG    1       26.110 -21.043  10.038  0.00  0.00    +0.360 HD
ENDBRANCH  19  23
ENDBRANCH  15  18
ENDBRANCH  11  12
ENDBRANCH   8  11
ENDBRANCH   3   7
BRANCH   1  25
ATOM     25  C   LIG    1       24.432 -31.465  11.419  0.00  0.00    +0.144 C 
BRANCH  25  26
ATOM     26  C   LIG    1       23.909 -32.941  11.352  0.00  0.00    +0.015 C 
ATOM     27  C   LIG    1       24.232 -33.825  12.574  0.00  0.00    +0.005 C 
ATOM     28  C   LIG    1       23.396 -33.476  13.796  0.00  0.00    +0.000 C 
ATOM     29  C   LIG    1       21.911 -33.633  13.499  0.00  0.00    +0.000 C 
ATOM     30  C   LIG    1       21.475 -32.869  12.254  0.00  0.00    +0.000 C 
ATOM     31  C   LIG    1       22.401 -33.040  11.049  0.00  0.00    +0.005 C 
ENDBRANCH  25  26
BRANCH  25  32
ATOM     32  N   LIG    1       25.911 -31.420  11.520  0.00  0.00    -0.296 NA
ATOM     33  H   LIG    1       26.266 -32.240  12.016  0.00  0.00    +0.123 HD
BRANCH  32  34
ATOM     34  C   LIG    1       26.441 -30.223  12.198  0.00  0.00    +0.203 C 
BRANCH  34  35
ATOM     35  C   LIG    1       27.412 -29.588  11.226  0.00  0.00    +0.321 C 
ATOM     36  O   LIG    1       27.958 -30.238  10.366  0.00  0.00    -0.249 OA
BRANCH  35  37
ATOM     37  O   LIG    1       27.388 -28.210  11.311  0.00  0.00    -0.464 OA
BRANCH  37  39
ATOM     38  C   LIG    1       26.611 -26.376  12.792  0.00  0.00    +0.048 C 
ATOM     39  C   LIG    1       26.293 -27.666  12.061  0.00  0.00    +0.229 C 
ENDBRANCH  37  39
ENDBRANCH  35  37
ENDBRANCH  34  35
ENDBRANCH  32  34
ENDBRANCH  25  32
ENDBRANCH   1  25
TORSDOF 13
ENDMDL
MODEL 6
REMARK VINA RESULT:      -7.2      2.162      2.730
REMARK  Name = *****
REMARK                            x       y       z     vdW  Elec       q    Type
REMARK                         _______ _______ _______ _____ _____    ______ ____
ROOT
ATOM      1  C   LIG    1       25.782 -23.636   6.624  0.00  0.00    +0.234 C 
ATOM      2  N   LIG    1       25.573 -24.777   5.856  0.00  0.00    -0.288 N 
ATOM      3  C   LIG    1       24.745 -25.923   6.344  0.00  0.00    +0.163 C 
ATOM      4  C   LIG    1       24.380 -26.174   4.875  0.00  0.00    +0.051 C 
ATOM      5  C   LIG    1       25.000 -24.843   4.514  0.00  0.00    +0.111 C 
ATOM      6  O   LIG    1       26.226 -23.713   7.771  0.00  0.00    -0.274 OA
ENDROOT
BRANCH   3   7
ATOM      7  C   LIG    1       25.410 -27.129   7.068  0.00  0.00    +0.234 C 
ATOM      8  N   LIG    1       24.697 -28.302   7.008  0.00  0.00    -0.310 N 
ATOM      9  H   LIG    1       23.822 -28.305   6.498  0.00  0.00    +0.149 HD
ATOM     10  O   LIG    1       26.476 -27.051   7.680  0.00  0.00    -0.274 OA
BRANCH   8  11
ATOM     11  C   LIG    1       25.214 -29.539   7.547  0.00  0.00    +0.139 C 
BRANCH  11  12
ATOM     12  C   LIG    1       24.692 -29.760   8.941  0.00  0.00    -0.030 A 
ATOM     13  C   LIG    1       25.468 -29.412  10.052  0.00  0.00    +0.006 A 
ATOM     14  C   LIG    1       24.943 -29.514  11.343  0.00  0.00    +0.016 A 
ATOM     15  C   LIG    1       23.649 -29.998  11.556  0.00  0.00    +0.069 A 
ATOM     16  C   LIG    1       22.887 -30.391  10.445  0.00  0.00    +0.016 A 
ATOM     17  C   LIG    1       23.408 -30.282   9.151  0.00  0.00    +0.006 A 
BRANCH  15  18
ATOM     18  C   LIG    1       23.021 -30.002  12.921  0.00  0.00    +0.362 C 
ATOM     19  N   LIG    1       23.070 -30.952  13.821  0.00  0.00    +0.151 NA
BRANCH  18  20
ATOM     20  N   LIG    1       22.340 -28.874  13.317  0.00  0.00    -0.243 N 
ATOM     21  H   LIG    1       22.539 -28.655  14.288  0.00  0.00    +0.289 HD
ATOM     22  H   LIG    1       22.446 -28.071  12.708  0.00  0.00    +0.289 HD
ENDBRANCH  18  20
BRANCH  19  23
ATOM     23  O   LIG    1       23.710 -32.115  13.398  0.00  0.00    -0.311 OA
ATOM     24  H   LIG    1       24.303 -31.781  12.700  0.00  0.00    +0.360 HD
ENDBRANCH  19  23
ENDBRANCH  15  18
ENDBRANCH  11  12
ENDBRANCH   8  11
ENDBRANCH   3   7
BRANCH   1  25
ATOM     25  C   LIG    1       25.364 -22.246   6.020  0.00  0.00    +0.144 C 
BRANCH  25  26
ATOM     26  C   LIG    1       24.165 -21.601   6.796  0.00  0.00    +0.015 C 
ATOM     27  C   LIG    1       23.486 -20.399   6.108  0.00  0.00    +0.005 C 
ATOM     28  C   LIG    1       22.632 -20.802   4.916  0.00  0.00    +0.000 C 
ATOM     29  C   LIG    1       21.531 -21.765   5.340  0.00  0.00    +0.000 C 
ATOM     30  C   LIG    1       22.064 -22.967   6.112  0.00  0.00    +0.000 C 
ATOM     31  C   LIG    1       23.082 -22.621   7.200  0.00  0.00    +0.005 C 
ENDBRANCH  25  26
BRANCH  25  32
ATOM     32  N   LIG    1       26.550 -21.356   6.023  0.00  0.00    -0.296 NA
ATOM     33  H   LIG    1       27.392 -21.872   5.762  0.00  0.00    +0.123 HD
BRANCH  32  34
ATOM     34  C   LIG    1       26.813 -20.692   7.312  0.00  0.00    +0.203 C 
BRANCH  34  35
ATOM     35  C   LIG    1       28.276 -20.933   7.615  0.00  0.00    +0.321 C 
ATOM     36  O   LIG    1       28.626 -21.492   8.627  0.00  0.00    -0.249 OA
BRANCH  35  37
ATOM     37  O   LIG    1       29.073 -20.656   6.523  0.00  0.00    -0.464 OA
BRANCH  37  39
ATOM     38  C   LIG    1       29.271 -18.412   5.481  0.00  0.00    +0.048 C 
ATOM     39  C   LIG    1       29.727 -19.379   6.555  0.00  0.00    +0.229 C 
ENDBRANCH  37  39
ENDBRANCH  35  37
ENDBRANCH  34  35
ENDBRANCH  32  34
ENDBRANCH  25  32
ENDBRANCH   1  25
TORSDOF 13
ENDMDL
MODEL 7
REMARK VINA RESULT:      -7.2      2.940      3.740
REMARK  Name = *****
REMARK                            x       y       z     vdW  Elec       q    Type
REMARK                         _______ _______ _______ _____ _____    ______ ____
ROOT
ATOM      1  C   LIG    1       25.751 -23.963   6.809  0.00  0.00    +0.234 C 
ATOM      2  N   LIG    1       25.570 -25.068   5.984  0.00  0.00    -0.288 N 
ATOM      3  C   LIG    1       24.708 -26.224   6.380  0.00  0.00    +0.163 C 
ATOM      4  C   LIG    1       24.415 -26.408   4.885  0.00  0.00    +0.051 C 
ATOM      5  C   LIG    1       25.063 -25.070   4.613  0.00  0.00    +0.111 C 
ATOM      6  O   LIG    1       26.136 -24.094   7.973  0.00  0.00    -0.274 OA
ENDROOT
BRANCH   3   7
ATOM      7  C   LIG    1       25.326 -27.467   7.082  0.00  0.00    +0.234 C 
ATOM      8  N   LIG    1       24.680 -28.653   6.829  0.00  0.00    -0.310 N 
ATOM      9  H   LIG    1       23.880 -28.639   6.208  0.00  0.00    +0.149 HD
ATOM     10  O   LIG    1       26.299 -27.409   7.835  0.00  0.00    -0.274 OA
BRANCH   8  11
ATOM     11  C   LIG    1       25.177 -29.915   7.326  0.00  0.00    +0.139 C 
BRANCH  11  12
ATOM     12  C   LIG    1       24.249 -30.465   8.376  0.00  0.00    -0.030 A 
ATOM     13  C   LIG    1       23.993 -29.742   9.545  0.00  0.00    +0.006 A 
ATOM     14  C   LIG    1       23.050 -30.198  10.470  0.00  0.00    +0.016 A 
ATOM     15  C   LIG    1       22.368 -31.401  10.265  0.00  0.00    +0.069 A 
ATOM     16  C   LIG    1       22.657 -32.151   9.115  0.00  0.00    +0.016 A 
ATOM     17  C   LIG    1       23.596 -31.692   8.184  0.00  0.00    +0.006 A 
BRANCH  15  18
ATOM     18  C   LIG    1       21.264 -31.849  11.180  0.00  0.00    +0.362 C 
ATOM     19  N   LIG    1       20.001 -31.506  11.138  0.00  0.00    +0.151 NA
BRANCH  18  20
ATOM     20  N   LIG    1       21.577 -32.756  12.167  0.00  0.00    -0.243 N 
ATOM     21  H   LIG    1       20.828 -33.432  12.285  0.00  0.00    +0.289 HD
ATOM     22  H   LIG    1       22.485 -33.196  12.075  0.00  0.00    +0.289 HD
ENDBRANCH  18  20
BRANCH  19  23
ATOM     23  O   LIG    1       19.696 -30.545  10.176  0.00  0.00    -0.311 OA
ATOM     24  H   LIG    1       18.906 -30.118  10.556  0.00  0.00    +0.360 HD
ENDBRANCH  19  23
ENDBRANCH  15  18
ENDBRANCH  11  12
ENDBRANCH   8  11
ENDBRANCH   3   7
BRANCH   1  25
ATOM     25  C   LIG    1       25.375 -22.543   6.247  0.00  0.00    +0.144 C 
BRANCH  25  26
ATOM     26  C   LIG    1       24.151 -21.915   6.998  0.00  0.00    +0.015 C 
ATOM     27  C   LIG    1       23.873 -20.427   6.704  0.00  0.00    +0.005 C 
ATOM     28  C   LIG    1       23.277 -20.195   5.324  0.00  0.00    +0.000 C 
ATOM     29  C   LIG    1       21.959 -20.943   5.172  0.00  0.00    +0.000 C 
ATOM     30  C   LIG    1       22.078 -22.424   5.517  0.00  0.00    +0.000 C 
ATOM     31  C   LIG    1       22.846 -22.713   6.808  0.00  0.00    +0.005 C 
ENDBRANCH  25  26
BRANCH  25  32
ATOM     32  N   LIG    1       26.570 -21.670   6.337  0.00  0.00    -0.296 NA
ATOM     33  H   LIG    1       27.379 -22.116   5.901  0.00  0.00    +0.123 HD
BRANCH  32  34
ATOM     34  C   LIG    1       26.951 -21.297   7.712  0.00  0.00    +0.203 C 
BRANCH  34  35
ATOM     35  C   LIG    1       28.456 -21.132   7.698  0.00  0.00    +0.321 C 
ATOM     36  O   LIG    1       29.138 -21.493   8.627  0.00  0.00    -0.249 OA
BRANCH  35  37
ATOM     37  O   LIG    1       28.914 -20.761   6.449  0.00  0.00    -0.464 OA
BRANCH  37  39
ATOM     38  C   LIG    1       29.383 -18.442   5.700  0.00  0.00    +0.048 C 
ATOM     39  C   LIG    1       29.853 -19.676   6.444  0.00  0.00    +0.229 C 
ENDBRANCH  37  39
ENDBRANCH  35  37
ENDBRANCH  34  35
ENDBRANCH  32  34
ENDBRANCH  25  32
ENDBRANCH   1  25
TORSDOF 13
ENDMDL
MODEL 8
REMARK VINA RESULT:      -7.1      3.464     10.119
REMARK  Name = *****
REMARK                            x       y       z     vdW  Elec       q    Type
REMARK                         _______ _______ _______ _____ _____    ______ ____
ROOT
ATOM      1  C   LIG    1       23.647 -30.724  10.119  0.00  0.00    +0.234 C 
ATOM      2  N   LIG    1       24.947 -30.670   9.628  0.00  0.00    -0.288 N 
ATOM      3  C   LIG    1       25.612 -29.377   9.276  0.00  0.00    +0.163 C 
ATOM      4  C   LIG    1       26.934 -30.048   9.671  0.00  0.00    +0.051 C 
ATOM      5  C   LIG    1       26.152 -31.196  10.266  0.00  0.00    +0.111 C 
ATOM      6  O   LIG    1       22.715 -30.193   9.512  0.00  0.00    -0.274 OA
ENDROOT
BRANCH   3   7
ATOM      7  C   LIG    1       25.563 -28.833   7.819  0.00  0.00    +0.234 C 
ATOM      8  N   LIG    1       26.076 -27.569   7.659  0.00  0.00    -0.310 N 
ATOM      9  H   LIG    1       26.454 -27.099   8.472  0.00  0.00    +0.149 HD
ATOM     10  O   LIG    1       25.078 -29.459   6.876  0.00  0.00    -0.274 OA
BRANCH   8  11
ATOM     11  C   LIG    1       26.193 -26.951   6.358  0.00  0.00    +0.139 C 
BRANCH  11  12
ATOM     12  C   LIG    1       25.465 -25.634   6.338  0.00  0.00    -0.030 A 
ATOM     13  C   LIG    1       24.068 -25.596   6.296  0.00  0.00    +0.006 A 
ATOM     14  C   LIG    1       23.388 -24.379   6.387  0.00  0.00    +0.016 A 
ATOM     15  C   LIG    1       24.087 -23.172   6.486  0.00  0.00    +0.069 A 
ATOM     16  C   LIG    1       25.490 -23.205   6.482  0.00  0.00    +0.016 A 
ATOM     17  C   LIG    1       26.173 -24.424   6.399  0.00  0.00    +0.006 A 
BRANCH  15  18
ATOM     18  C   LIG    1       23.380 -21.865   6.709  0.00  0.00    +0.362 C 
ATOM     19  N   LIG    1       22.787 -21.114   5.814  0.00  0.00    +0.151 NA
BRANCH  18  20
ATOM     20  N   LIG    1       23.296 -21.393   7.998  0.00  0.00    -0.243 N 
ATOM     21  H   LIG    1       22.550 -21.860   8.505  0.00  0.00    +0.289 HD
ATOM     22  H   LIG    1       24.169 -21.386   8.512  0.00  0.00    +0.289 HD
ENDBRANCH  18  20
BRANCH  19  23
ATOM     23  O   LIG    1       22.923 -21.564   4.502  0.00  0.00    -0.311 OA
ATOM     24  H   LIG    1       23.487 -22.351   4.612  0.00  0.00    +0.360 HD
ENDBRANCH  19  23
ENDBRANCH  15  18
ENDBRANCH  11  12
ENDBRANCH   8  11
ENDBRANCH   3   7
BRANCH   1  25
ATOM     25  C   LIG    1       23.404 -31.412  11.512  0.00  0.00    +0.144 C 
BRANCH  25  26
ATOM     26  C   LIG    1       22.976 -30.382  12.614  0.00  0.00    +0.015 C 
ATOM     27  C   LIG    1       23.260 -30.800  14.071  0.00  0.00    +0.005 C 
ATOM     28  C   LIG    1       24.735 -30.729  14.433  0.00  0.00    +0.000 C 
ATOM     29  C   LIG    1       25.270 -29.315  14.252  0.00  0.00    +0.000 C 
ATOM     30  C   LIG    1       24.979 -28.747  12.867  0.00  0.00    +0.000 C 
ATOM     31  C   LIG    1       23.546 -28.969  12.380  0.00  0.00    +0.005 C 
ENDBRANCH  25  26
BRANCH  25  32
ATOM     32  N   LIG    1       22.384 -32.474  11.340  0.00  0.00    -0.296 NA
ATOM     33  H   LIG    1       22.398 -32.840  10.387  0.00  0.00    +0.123 HD
BRANCH  32  34
ATOM     34  C   LIG    1       21.004 -32.050  11.637  0.00  0.00    +0.203 C 
BRANCH  34  35
ATOM     35  C   LIG    1       20.221 -32.252  10.359  0.00  0.00    +0.321 C 
ATOM     36  O   LIG    1       20.112 -33.344   9.852  0.00  0.00    -0.249 OA
BRANCH  35  37
ATOM     37  O   LIG    1       19.498 -31.125  10.022  0.00  0.00    -0.464 OA
BRANCH  37  39
ATOM     38  C   LIG    1       17.420 -31.517  11.322  0.00  0.00    +0.048 C 
ATOM     39  C   LIG    1       18.075 -31.307   9.971  0.00  0.00    +0.229 C 
ENDBRANCH  37  39
ENDBRANCH  35  37
ENDBRANCH  34  35
ENDBRANCH  32  34
ENDBRANCH  25  32
ENDBRANCH   1  25
TORSDOF 13
ENDMDL
MODEL 9
REMARK VINA RESULT:      -7.1      2.646      9.038
REMARK  Name = *****
REMARK                            x       y       z     vdW  Elec       q    Type
REMARK                         _______ _______ _______ _____ _____    ______ ____
ROOT
ATOM      1  C   LIG    1       24.501 -30.258  10.221  0.00  0.00    +0.234 C 
ATOM      2  N   LIG    1       24.661 -30.793   8.947  0.00  0.00    -0.288 N 
ATOM      3  C   LIG    1       25.363 -30.050   7.855  0.00  0.00    +0.163 C 
ATOM      4  C   LIG    1       25.793 -31.421   7.316  0.00  0.00    +0.051 C 
ATOM      5  C   LIG    1       25.307 -32.056   8.597  0.00  0.00    +0.111 C 
ATOM      6  O   LIG    1       23.985 -29.150  10.385  0.00  0.00    -0.274 OA
ENDROOT
BRANCH   3   7
ATOM      7  C   LIG    1       24.560 -29.174   6.851  0.00  0.00    +0.234 C 
ATOM      8  N   LIG    1       24.963 -27.863   6.780  0.00  0.00    -0.310 N 
ATOM      9  H   LIG    1       25.742 -27.569   7.356  0.00  0.00    +0.149 HD
ATOM     10  O   LIG    1       23.614 -29.597   6.185  0.00  0.00    -0.274 OA
BRANCH   8  11
ATOM     11  C   LIG    1       24.386 -26.937   5.832  0.00  0.00    +0.139 C 
BRANCH  11  12
ATOM     12  C   LIG    1       24.553 -25.522   6.317  0.00  0.00    -0.030 A 
ATOM     13  C   LIG    1       25.828 -25.000   6.556  0.00  0.00    +0.006 A 
ATOM     14  C   LIG    1       25.991 -23.655   6.900  0.00  0.00    +0.016 A 
ATOM     15  C   LIG    1       24.885 -22.814   7.049  0.00  0.00    +0.069 A 
ATOM     16  C   LIG    1       23.602 -23.348   6.855  0.00  0.00    +0.016 A 
ATOM     17  C   LIG    1       23.438 -24.692   6.502  0.00  0.00    +0.006 A 
BRANCH  15  18
ATOM     18  C   LIG    1       25.042 -21.340   7.298  0.00  0.00    +0.362 C 
ATOM     19  N   LIG    1       25.404 -20.751   8.410  0.00  0.00    +0.151 NA
BRANCH  18  20
ATOM     20  N   LIG    1       24.821 -20.484   6.243  0.00  0.00    -0.243 N 
ATOM     21  H   LIG    1       24.821 -19.519   6.557  0.00  0.00    +0.289 HD
ATOM     22  H   LIG    1       25.419 -20.630   5.438  0.00  0.00    +0.289 HD
ENDBRANCH  18  20
BRANCH  19  23
ATOM     23  O   LIG    1       25.571 -21.613   9.492  0.00  0.00    -0.311 OA
ATOM     24  H   LIG    1       24.906 -22.302   9.310  0.00  0.00    +0.360 HD
ENDBRANCH  19  23
ENDBRANCH  15  18
ENDBRANCH  11  12
ENDBRANCH   8  11
ENDBRANCH   3   7
BRANCH   1  25
ATOM     25  C   LIG    1       25.066 -31.067  11.445  0.00  0.00    +0.144 C 
BRANCH  25  26
ATOM     26  C   LIG    1       26.506 -30.597  11.849  0.00  0.00    +0.015 C 
ATOM     27  C   LIG    1       27.251 -29.738  10.807  0.00  0.00    +0.005 C 
ATOM     28  C   LIG    1       26.706 -28.322  10.705  0.00  0.00    +0.000 C 
ATOM     29  C   LIG    1       26.810 -27.604  12.045  0.00  0.00    +0.000 C 
ATOM     30  C   LIG    1       26.180 -28.394  13.187  0.00  0.00    +0.000 C 
ATOM     31  C   LIG    1       26.552 -29.878  13.212  0.00  0.00    +0.005 C 
ENDBRANCH  25  26
BRANCH  25  32
ATOM     32  N   LIG    1       24.117 -30.932  12.576  0.00  0.00    -0.296 NA
ATOM     33  H   LIG    1       24.529 -31.288  13.441  0.00  0.00    +0.123 HD
BRANCH  32  34
ATOM     34  C   LIG    1       22.828 -31.620  12.378  0.00  0.00    +0.203 C 
BRANCH  34  35
ATOM     35  C   LIG    1       21.757 -30.601  12.698  0.00  0.00    +0.321 C 
ATOM     36  O   LIG    1       20.583 -30.861  12.578  0.00  0.00    -0.249 OA
BRANCH  35  37
ATOM     37  O   LIG    1       22.282 -29.495  13.337  0.00  0.00    -0.464 OA
BRANCH  37  39
ATOM     38  C   LIG    1       22.613 -27.041  13.174  0.00  0.00    +0.048 C 
ATOM     39  C   LIG    1       21.712 -28.238  12.945  0.00  0.00    +0.229 C 
ENDBRANCH  37  39
ENDBRANCH  35  37
ENDBRANCH  34  35
ENDBRANCH  32  34
ENDBRANCH  25  32
ENDBRANCH   1  25
TORSDOF 13
ENDMDL
