MODEL 1
REMARK VINA RESULT:      -6.3      0.000      0.000
REMARK  Name = *****
REMARK                            x       y       z     vdW  Elec       q    Type
REMARK                         _______ _______ _______ _____ _____    ______ ____
ROOT
ATOM      1  C   LIG    1       28.440 -19.933   6.056  0.00  0.00    +0.025 A 
ATOM      2  C   LIG    1       29.349 -18.872   6.115  0.00  0.00    +0.023 A 
ATOM      3  C   LIG    1       30.348 -18.841   7.092  0.00  0.00    +0.017 A 
ATOM      4  C   LIG    1       30.479 -19.907   7.984  0.00  0.00    +0.059 A 
ATOM      5  C   LIG    1       29.603 -20.994   7.911  0.00  0.00    +0.017 A 
ATOM      6  C   LIG    1       28.605 -21.013   6.931  0.00  0.00    +0.023 A 
ENDROOT
BRANCH   1   7
ATOM      7  N   LIG    1       27.529 -20.020   4.998  0.00  0.00    -0.358 N 
ATOM      8  H   LIG    1       26.745 -20.640   5.182  0.00  0.00    +0.142 HD
ATOM      9  H   LIG    1       27.957 -20.210   4.097  0.00  0.00    +0.142 HD
ENDBRANCH   1   7
BRANCH   4  10
ATOM     10  C   LIG    1       31.553 -19.851   9.000  0.00  0.00    +0.337 C 
ATOM     11  O   LIG    1       31.903 -18.818   9.545  0.00  0.00    -0.245 OA
BRANCH  10  12
ATOM     12  O   LIG    1       32.136 -21.049   9.216  0.00  0.00    -0.477 OA
ATOM     13  H   LIG    1       32.994 -21.002   9.680  0.00  0.00    +0.295 HD
ENDBRANCH  10  12
ENDBRANCH   4  10
TORSDOF 3
ENDMDL
MODEL 2
REMARK VINA RESULT:      -6.3      0.073      1.529
REMARK  Name = *****
REMARK                            x       y       z     vdW  Elec       q    Type
REMARK                         _______ _______ _______ _____ _____    ______ ____
ROOT
ATOM      1  C   LIG    1       28.530 -20.018   5.986  0.00  0.00    +0.025 A 
ATOM      2  C   LIG    1       28.650 -21.029   6.943  0.00  0.00    +0.023 A 
ATOM      3  C   LIG    1       29.651 -20.976   7.918  0.00  0.00    +0.017 A 
ATOM      4  C   LIG    1       30.506 -19.874   7.974  0.00  0.00    +0.059 A 
ATOM      5  C   LIG    1       30.372 -18.835   7.048  0.00  0.00    +0.017 A 
ATOM      6  C   LIG    1       29.369 -18.901   6.076  0.00  0.00    +0.023 A 
ENDROOT
BRANCH   1   7
ATOM      7  N   LIG    1       27.449 -20.014   5.098  0.00  0.00    -0.358 N 
ATOM      8  H   LIG    1       27.643 -19.545   4.218  0.00  0.00    +0.142 HD
ATOM      9  H   LIG    1       26.577 -19.698   5.511  0.00  0.00    +0.142 HD
ENDBRANCH   1   7
BRANCH   4  10
ATOM     10  C   LIG    1       31.548 -19.840   9.024  0.00  0.00    +0.337 C 
ATOM     11  O   LIG    1       31.880 -18.821   9.603  0.00  0.00    -0.245 OA
BRANCH  10  12
ATOM     12  O   LIG    1       32.128 -21.042   9.227  0.00  0.00    -0.477 OA
ATOM     13  H   LIG    1       31.651 -21.793   8.824  0.00  0.00    +0.295 HD
ENDBRANCH  10  12
ENDBRANCH   4  10
TORSDOF 3
ENDMDL
MODEL 3
REMARK VINA RESULT:      -6.2      0.869      1.277
REMARK  Name = *****
REMARK                            x       y       z     vdW  Elec       q    Type
REMARK                         _______ _______ _______ _____ _____    ______ ____
ROOT
ATOM      1  C   LIG    1       28.213 -19.911   5.890  0.00  0.00    +0.025 A 
ATOM      2  C   LIG    1       29.024 -18.808   5.611  0.00  0.00    +0.023 A 
ATOM      3  C   LIG    1       30.124 -18.507   6.421  0.00  0.00    +0.017 A 
ATOM      4  C   LIG    1       30.452 -19.348   7.486  0.00  0.00    +0.059 A 
ATOM      5  C   LIG    1       29.673 -20.478   7.752  0.00  0.00    +0.017 A 
ATOM      6  C   LIG    1       28.574 -20.767   6.937  0.00  0.00    +0.023 A 
ENDROOT
BRANCH   1   7
ATOM      7  N   LIG    1       27.196 -20.278   5.002  0.00  0.00    -0.358 N 
ATOM      8  H   LIG    1       26.877 -21.236   5.118  0.00  0.00    +0.142 HD
ATOM      9  H   LIG    1       27.397 -20.061   4.030  0.00  0.00    +0.142 HD
ENDBRANCH   1   7
BRANCH   4  10
ATOM     10  C   LIG    1       31.627 -19.009   8.319  0.00  0.00    +0.337 C 
ATOM     11  O   LIG    1       32.054 -19.737   9.198  0.00  0.00    -0.245 OA
BRANCH  10  12
ATOM     12  O   LIG    1       32.136 -17.791   8.039  0.00  0.00    -0.477 OA
ATOM     13  H   LIG    1       33.095 -17.708   8.202  0.00  0.00    +0.295 HD
ENDBRANCH  10  12
ENDBRANCH   4  10
TORSDOF 3
ENDMDL
MODEL 4
REMARK VINA RESULT:      -6.2      0.882      1.985
REMARK  Name = *****
REMARK                            x       y       z     vdW  Elec       q    Type
REMARK                         _______ _______ _______ _____ _____    ______ ____
ROOT
ATOM      1  C   LIG    1       28.279 -19.962   5.820  0.00  0.00    +0.025 A 
ATOM      2  C   LIG    1       28.615 -20.752   6.923  0.00  0.00    +0.023 A 
ATOM      3  C   LIG    1       29.719 -20.435   7.719  0.00  0.00    +0.017 A 
ATOM      4  C   LIG    1       30.463 -19.285   7.447  0.00  0.00    +0.059 A 
ATOM      5  C   LIG    1       30.114 -18.463   6.371  0.00  0.00    +0.017 A 
ATOM      6  C   LIG    1       29.009 -18.793   5.580  0.00  0.00    +0.023 A 
ENDROOT
BRANCH   1   7
ATOM      7  N   LIG    1       27.100 -20.212   5.109  0.00  0.00    -0.358 N 
ATOM      8  H   LIG    1       26.255 -20.083   5.658  0.00  0.00    +0.142 HD
ATOM      9  H   LIG    1       27.097 -21.097   4.612  0.00  0.00    +0.142 HD
ENDBRANCH   1   7
BRANCH   4  10
ATOM     10  C   LIG    1       31.620 -18.969   8.314  0.00  0.00    +0.337 C 
ATOM     11  O   LIG    1       32.018 -19.713   9.194  0.00  0.00    -0.245 OA
BRANCH  10  12
ATOM     12  O   LIG    1       32.147 -17.752   8.063  0.00  0.00    -0.477 OA
ATOM     13  H   LIG    1       31.871 -17.057   8.691  0.00  0.00    +0.295 HD
ENDBRANCH  10  12
ENDBRANCH   4  10
TORSDOF 3
ENDMDL
MODEL 5
REMARK VINA RESULT:      -5.9      4.910      5.862
REMARK  Name = *****
REMARK                            x       y       z     vdW  Elec       q    Type
REMARK                         _______ _______ _______ _____ _____    ______ ____
ROOT
ATOM      1  C   LIG    1       24.241 -24.193   6.537  0.00  0.00    +0.025 A 
ATOM      2  C   LIG    1       23.509 -23.050   6.868  0.00  0.00    +0.023 A 
ATOM      3  C   LIG    1       24.128 -21.958   7.484  0.00  0.00    +0.017 A 
ATOM      4  C   LIG    1       25.504 -21.984   7.721  0.00  0.00    +0.059 A 
ATOM      5  C   LIG    1       26.257 -23.105   7.357  0.00  0.00    +0.017 A 
ATOM      6  C   LIG    1       25.625 -24.192   6.744  0.00  0.00    +0.023 A 
ENDROOT
BRANCH   1   7
ATOM      7  N   LIG    1       23.642 -25.224   5.805  0.00  0.00    -0.358 N 
ATOM      8  H   LIG    1       22.691 -25.433   6.094  0.00  0.00    +0.142 HD
ATOM      9  H   LIG    1       24.209 -26.064   5.735  0.00  0.00    +0.142 HD
ENDBRANCH   1   7
BRANCH   4  10
ATOM     10  C   LIG    1       26.133 -20.810   8.365  0.00  0.00    +0.337 C 
ATOM     11  O   LIG    1       25.876 -20.455   9.502  0.00  0.00    -0.245 OA
BRANCH  10  12
ATOM     12  O   LIG    1       26.974 -20.147   7.543  0.00  0.00    -0.477 OA
ATOM     13  H   LIG    1       26.710 -20.159   6.603  0.00  0.00    +0.295 HD
ENDBRANCH  10  12
ENDBRANCH   4  10
TORSDOF 3
ENDMDL
MODEL 6
REMARK VINA RESULT:      -5.9      4.901      5.872
REMARK  Name = *****
REMARK                            x       y       z     vdW  Elec       q    Type
REMARK                         _______ _______ _______ _____ _____    ______ ____
ROOT
ATOM      1  C   LIG    1       24.304 -24.137   6.365  0.00  0.00    +0.025 A 
ATOM      2  C   LIG    1       25.676 -24.117   6.630  0.00  0.00    +0.023 A 
ATOM      3  C   LIG    1       26.265 -23.019   7.262  0.00  0.00    +0.017 A 
ATOM      4  C   LIG    1       25.469 -21.954   7.687  0.00  0.00    +0.059 A 
ATOM      5  C   LIG    1       24.089 -21.978   7.465  0.00  0.00    +0.017 A 
ATOM      6  C   LIG    1       23.511 -23.081   6.828  0.00  0.00    +0.023 A 
ENDROOT
BRANCH   1   7
ATOM      7  N   LIG    1       23.704 -25.292   5.850  0.00  0.00    -0.358 N 
ATOM      8  H   LIG    1       24.106 -25.606   4.971  0.00  0.00    +0.142 HD
ATOM      9  H   LIG    1       22.690 -25.247   5.808  0.00  0.00    +0.142 HD
ENDBRANCH   1   7
BRANCH   4  10
ATOM     10  C   LIG    1       26.120 -20.810   8.364  0.00  0.00    +0.337 C 
ATOM     11  O   LIG    1       25.862 -20.476   9.507  0.00  0.00    -0.245 OA
BRANCH  10  12
ATOM     12  O   LIG    1       26.982 -20.147   7.564  0.00  0.00    -0.477 OA
ATOM     13  H   LIG    1       27.817 -20.622   7.391  0.00  0.00    +0.295 HD
ENDBRANCH  10  12
ENDBRANCH   4  10
TORSDOF 3
ENDMDL
MODEL 7
REMARK VINA RESULT:      -5.8      5.900      7.085
REMARK  Name = *****
REMARK                            x       y       z     vdW  Elec       q    Type
REMARK                         _______ _______ _______ _____ _____    ______ ____
ROOT
ATOM      1  C   LIG    1       26.202 -21.173   7.591  0.00  0.00    +0.025 A 
ATOM      2  C   LIG    1       24.830 -20.970   7.758  0.00  0.00    +0.023 A 
ATOM      3  C   LIG    1       23.913 -21.970   7.419  0.00  0.00    +0.017 A 
ATOM      4  C   LIG    1       24.373 -23.207   6.963  0.00  0.00    +0.059 A 
ATOM      5  C   LIG    1       25.746 -23.438   6.829  0.00  0.00    +0.017 A 
ATOM      6  C   LIG    1       26.652 -22.429   7.168  0.00  0.00    +0.023 A 
ENDROOT
BRANCH   1   7
ATOM      7  N   LIG    1       27.116 -20.219   8.052  0.00  0.00    -0.358 N 
ATOM      8  H   LIG    1       27.615 -20.502   8.891  0.00  0.00    +0.142 HD
ATOM      9  H   LIG    1       26.729 -19.284   8.139  0.00  0.00    +0.142 HD
ENDBRANCH   1   7
BRANCH   4  10
ATOM     10  C   LIG    1       23.380 -24.249   6.622  0.00  0.00    +0.337 C 
ATOM     11  O   LIG    1       23.686 -25.386   6.307  0.00  0.00    -0.245 OA
BRANCH  10  12
ATOM     12  O   LIG    1       22.110 -23.792   6.644  0.00  0.00    -0.477 OA
ATOM     13  H   LIG    1       21.533 -24.173   5.954  0.00  0.00    +0.295 HD
ENDBRANCH  10  12
ENDBRANCH   4  10
TORSDOF 3
ENDMDL
MODEL 8
REMARK VINA RESULT:      -5.7      6.298      7.489
REMARK  Name = *****
REMARK                            x       y       z     vdW  Elec       q    Type
REMARK                         _______ _______ _______ _____ _____    ______ ____
ROOT
ATOM      1  C   LIG    1       23.963 -22.358   7.283  0.00  0.00    +0.025 A 
ATOM      2  C   LIG    1       23.152 -23.409   6.848  0.00  0.00    +0.023 A 
ATOM      3  C   LIG    1       23.711 -24.634   6.471  0.00  0.00    +0.017 A 
ATOM      4  C   LIG    1       25.089 -24.831   6.583  0.00  0.00    +0.059 A 
ATOM      5  C   LIG    1       25.908 -23.801   7.056  0.00  0.00    +0.017 A 
ATOM      6  C   LIG    1       25.338 -22.580   7.427  0.00  0.00    +0.023 A 
ENDROOT
BRANCH   1   7
ATOM      7  N   LIG    1       23.387 -21.184   7.780  0.00  0.00    -0.358 N 
ATOM      8  H   LIG    1       22.764 -21.335   8.569  0.00  0.00    +0.142 HD
ATOM      9  H   LIG    1       22.960 -20.599   7.068  0.00  0.00    +0.142 HD
ENDBRANCH   1   7
BRANCH   4  10
ATOM     10  C   LIG    1       25.650 -26.142   6.187  0.00  0.00    +0.337 C 
ATOM     11  O   LIG    1       26.779 -26.279   5.748  0.00  0.00    -0.245 OA
BRANCH  10  12
ATOM     12  O   LIG    1       24.764 -27.152   6.310  0.00  0.00    -0.477 OA
ATOM     13  H   LIG    1       24.822 -27.638   7.154  0.00  0.00    +0.295 HD
ENDBRANCH  10  12
ENDBRANCH   4  10
TORSDOF 3
ENDMDL
MODEL 9
REMARK VINA RESULT:      -5.7      6.237      7.389
REMARK  Name = *****
REMARK                            x       y       z     vdW  Elec       q    Type
REMARK                         _______ _______ _______ _____ _____    ______ ____
ROOT
ATOM      1  C   LIG    1       23.995 -22.217   7.415  0.00  0.00    +0.025 A 
ATOM      2  C   LIG    1       25.364 -22.493   7.449  0.00  0.00    +0.023 A 
ATOM      3  C   LIG    1       25.850 -23.745   7.060  0.00  0.00    +0.017 A 
ATOM      4  C   LIG    1       24.967 -24.713   6.578  0.00  0.00    +0.059 A 
ATOM      5  C   LIG    1       23.599 -24.436   6.500  0.00  0.00    +0.017 A 
ATOM      6  C   LIG    1       23.124 -23.181   6.894  0.00  0.00    +0.023 A 
ENDROOT
BRANCH   1   7
ATOM      7  N   LIG    1       23.531 -20.924   7.681  0.00  0.00    -0.358 N 
ATOM      8  H   LIG    1       23.626 -20.285   6.896  0.00  0.00    +0.142 HD
ATOM      9  H   LIG    1       23.894 -20.523   8.540  0.00  0.00    +0.142 HD
ENDBRANCH   1   7
BRANCH   4  10
ATOM     10  C   LIG    1       25.512 -26.025   6.164  0.00  0.00    +0.337 C 
ATOM     11  O   LIG    1       26.663 -26.183   5.795  0.00  0.00    -0.245 OA
BRANCH  10  12
ATOM     12  O   LIG    1       24.588 -27.008   6.185  0.00  0.00    -0.477 OA
ATOM     13  H   LIG    1       24.960 -27.911   6.179  0.00  0.00    +0.295 HD
ENDBRANCH  10  12
ENDBRANCH   4  10
TORSDOF 3
ENDMDL
