MODEL 1
REMARK VINA RESULT:      -8.5      0.000      0.000
REMARK  Name = *****
REMARK                            x       y       z     vdW  Elec       q    Type
REMARK                         _______ _______ _______ _____ _____    ______ ____
ROOT
ATOM      1  C   LIG    1       27.622 -33.693   5.585  0.00  0.00    +0.014 C 
ATOM      2  C   LIG    1       26.545 -33.119   6.553  0.00  0.00    -0.003 C 
ATOM      3  C   LIG    1       25.190 -33.759   6.187  0.00  0.00    +0.121 C 
ATOM      4  C   LIG    1       24.728 -33.003   4.947  0.00  0.00    +0.032 C 
ATOM      5  C   LIG    1       25.387 -31.617   5.023  0.00  0.00    +0.007 C 
ATOM      6  C   LIG    1       26.313 -31.608   6.265  0.00  0.00    +0.001 C 
ATOM      7  C   LIG    1       25.908 -30.673   7.472  0.00  0.00    +0.003 C 
ATOM      8  C   LIG    1       26.475 -31.138   8.844  0.00  0.00    +0.023 C 
ATOM      9  C   LIG    1       25.892 -30.427  10.052  0.00  0.00    -0.041 A 
ATOM     10  C   LIG    1       24.537 -30.051  10.048  0.00  0.00    -0.040 A 
ATOM     11  C   LIG    1       23.705 -30.296   8.830  0.00  0.00    +0.039 C 
ATOM     12  C   LIG    1       23.949 -29.596  11.238  0.00  0.00    +0.049 A 
ATOM     13  C   LIG    1       24.689 -29.484  12.396  0.00  0.00    +0.117 A 
ATOM     14  C   LIG    1       26.047 -29.818  12.410  0.00  0.00    +0.045 A 
ATOM     15  C   LIG    1       26.634 -30.287  11.232  0.00  0.00    +0.008 A 
ATOM     16  C   LIG    1       26.347 -32.644   9.076  0.00  0.00    +0.009 C 
ATOM     17  C   LIG    1       24.440 -30.104   7.491  0.00  0.00    -0.003 C 
ATOM     18  C   LIG    1       27.020 -33.439   7.975  0.00  0.00    +0.010 C 
ENDROOT
BRANCH   3  19
ATOM     19  O   LIG    1       24.220 -33.572   7.206  0.00  0.00    -0.391 OA
ATOM     20  H   LIG    1       23.443 -33.155   6.794  0.00  0.00    +0.210 HD
ENDBRANCH   3  19
BRANCH  13  21
ATOM     21  O   LIG    1       24.057 -29.064  13.531  0.00  0.00    -0.507 OA
ATOM     22  H   LIG    1       23.446 -28.351  13.304  0.00  0.00    +0.292 HD
ENDBRANCH  13  21
BRANCH  17  23
ATOM     23  C   LIG    1       24.480 -28.610   7.017  0.00  0.00    +0.004 C 
BRANCH  23  24
ATOM     24  C   LIG    1       25.761 -27.792   7.275  0.00  0.00    +0.000 C 
BRANCH  24  25
ATOM     25  C   LIG    1       25.827 -26.506   6.444  0.00  0.00    +0.000 C 
BRANCH  25  26
ATOM     26  C   LIG    1       24.451 -25.885   6.156  0.00  0.00    -0.000 C 
BRANCH  26  27
ATOM     27  C   LIG    1       24.596 -24.428   5.685  0.00  0.00    -0.000 C 
BRANCH  27  28
ATOM     28  C   LIG    1       24.544 -23.383   6.809  0.00  0.00    +0.000 C 
BRANCH  28  29
ATOM     29  C   LIG    1       25.844 -23.200   7.613  0.00  0.00    +0.001 C 
BRANCH  29  30
ATOM     30  C   LIG    1       25.786 -22.048   8.630  0.00  0.00    +0.013 C 
BRANCH  30  31
ATOM     31  C   LIG    1       26.119 -20.685   8.009  0.00  0.00    +0.104 C 
BRANCH  31  32
ATOM     32  S   LIG    1       27.847 -20.666   7.378  0.00  0.00    +0.022 S 
ATOM     33  O   LIG    1       28.612 -19.661   8.189  0.00  0.00    -0.257 OA
BRANCH  32  34
ATOM     34  C   LIG    1       27.479 -19.893   5.755  0.00  0.00    +0.104 C 
BRANCH  34  35
ATOM     35  C   LIG    1       26.252 -20.536   5.098  0.00  0.00    +0.019 C 
BRANCH  35  36
ATOM     36  C   LIG    1       25.194 -19.540   4.578  0.00  0.00    +0.086 C 
BRANCH  36  37
ATOM     37  C   LIG    1       23.871 -20.180   4.152  0.00  0.00    +0.342 C 
ATOM     38  F   LIG    1       24.068 -21.500   3.874  0.00  0.00    -0.196 F 
ATOM     39  F   LIG    1       23.505 -19.606   2.968  0.00  0.00    -0.196 F 
BRANCH  37  40
ATOM     40  C   LIG    1       22.742 -20.033   5.188  0.00  0.00    +0.454 C 
ATOM     41  F   LIG    1       22.229 -18.775   5.189  0.00  0.00    -0.165 F 
ATOM     42  F   LIG    1       23.179 -20.271   6.449  0.00  0.00    -0.165 F 
ATOM     43  F   LIG    1       21.707 -20.876   4.960  0.00  0.00    -0.165 F 
ENDBRANCH  37  40
ENDBRANCH  36  37
ENDBRANCH  35  36
ENDBRANCH  34  35
ENDBRANCH  32  34
ENDBRANCH  31  32
ENDBRANCH  30  31
ENDBRANCH  29  30
ENDBRANCH  28  29
ENDBRANCH  27  28
ENDBRANCH  26  27
ENDBRANCH  25  26
ENDBRANCH  24  25
ENDBRANCH  23  24
ENDBRANCH  17  23
TORSDOF 17
ENDMDL
MODEL 2
REMARK VINA RESULT:      -8.4      3.635      6.940
REMARK  Name = *****
REMARK                            x       y       z     vdW  Elec       q    Type
REMARK                         _______ _______ _______ _____ _____    ______ ____
ROOT
ATOM      1  C   LIG    1       26.238 -27.208  12.480  0.00  0.00    +0.014 C 
ATOM      2  C   LIG    1       24.955 -27.590  13.276  0.00  0.00    -0.003 C 
ATOM      3  C   LIG    1       25.394 -28.353  14.544  0.00  0.00    +0.121 C 
ATOM      4  C   LIG    1       25.720 -29.759  14.055  0.00  0.00    +0.032 C 
ATOM      5  C   LIG    1       24.874 -29.977  12.790  0.00  0.00    +0.007 C 
ATOM      6  C   LIG    1       24.131 -28.651  12.492  0.00  0.00    +0.001 C 
ATOM      7  C   LIG    1       22.559 -28.642  12.655  0.00  0.00    +0.003 C 
ATOM      8  C   LIG    1       21.965 -27.233  12.941  0.00  0.00    +0.023 C 
ATOM      9  C   LIG    1       20.508 -27.226  13.366  0.00  0.00    -0.041 A 
ATOM     10  C   LIG    1       20.015 -28.271  14.169  0.00  0.00    -0.040 A 
ATOM     11  C   LIG    1       20.914 -29.406  14.539  0.00  0.00    +0.039 C 
ATOM     12  C   LIG    1       18.738 -28.152  14.738  0.00  0.00    +0.049 A 
ATOM     13  C   LIG    1       17.953 -27.045  14.494  0.00  0.00    +0.117 A 
ATOM     14  C   LIG    1       18.412 -26.013  13.668  0.00  0.00    +0.045 A 
ATOM     15  C   LIG    1       19.690 -26.118  13.111  0.00  0.00    +0.008 A 
ATOM     16  C   LIG    1       22.762 -26.436  13.974  0.00  0.00    +0.009 C 
ATOM     17  C   LIG    1       21.902 -29.838  13.440  0.00  0.00    -0.003 C 
ATOM     18  C   LIG    1       24.213 -26.280  13.565  0.00  0.00    +0.010 C 
ENDROOT
BRANCH   3  19
ATOM     19  O   LIG    1       24.349 -28.447  15.498  0.00  0.00    -0.391 OA
ATOM     20  H   LIG    1       23.847 -27.614  15.463  0.00  0.00    +0.210 HD
ENDBRANCH   3  19
BRANCH  13  21
ATOM     21  O   LIG    1       16.732 -26.970  15.099  0.00  0.00    -0.507 OA
ATOM     22  H   LIG    1       16.849 -26.648  16.002  0.00  0.00    +0.292 HD
ENDBRANCH  13  21
BRANCH  17  23
ATOM     23  C   LIG    1       21.274 -30.830  12.400  0.00  0.00    +0.004 C 
BRANCH  23  24
ATOM     24  C   LIG    1       21.242 -30.414  10.916  0.00  0.00    +0.000 C 
BRANCH  24  25
ATOM     25  C   LIG    1       22.228 -31.207  10.052  0.00  0.00    +0.000 C 
BRANCH  25  26
ATOM     26  C   LIG    1       23.345 -30.345   9.442  0.00  0.00    -0.000 C 
BRANCH  26  27
ATOM     27  C   LIG    1       24.449 -31.229   8.837  0.00  0.00    -0.000 C 
BRANCH  27  28
ATOM     28  C   LIG    1       25.685 -30.462   8.344  0.00  0.00    +0.000 C 
BRANCH  28  29
ATOM     29  C   LIG    1       25.463 -28.974   8.018  0.00  0.00    +0.001 C 
BRANCH  29  30
ATOM     30  C   LIG    1       24.785 -28.733   6.659  0.00  0.00    +0.013 C 
BRANCH  30  31
ATOM     31  C   LIG    1       24.520 -27.248   6.377  0.00  0.00    +0.104 C 
BRANCH  31  32
ATOM     32  S   LIG    1       25.683 -26.615   5.100  0.00  0.00    +0.022 S 
ATOM     33  O   LIG    1       27.038 -26.508   5.737  0.00  0.00    -0.257 OA
BRANCH  32  34
ATOM     34  C   LIG    1       24.992 -24.918   4.996  0.00  0.00    +0.104 C 
BRANCH  34  35
ATOM     35  C   LIG    1       24.917 -24.264   6.381  0.00  0.00    +0.019 C 
BRANCH  35  36
ATOM     36  C   LIG    1       23.592 -23.532   6.683  0.00  0.00    +0.086 C 
BRANCH  36  37
ATOM     37  C   LIG    1       23.759 -22.107   7.217  0.00  0.00    +0.342 C 
ATOM     38  F   LIG    1       24.842 -22.049   8.041  0.00  0.00    -0.196 F 
ATOM     39  F   LIG    1       22.679 -21.842   8.010  0.00  0.00    -0.196 F 
BRANCH  37  40
ATOM     40  C   LIG    1       23.889 -21.038   6.116  0.00  0.00    +0.454 C 
ATOM     41  F   LIG    1       22.940 -20.074   6.245  0.00  0.00    -0.165 F 
ATOM     42  F   LIG    1       23.734 -21.567   4.878  0.00  0.00    -0.165 F 
ATOM     43  F   LIG    1       25.088 -20.409   6.135  0.00  0.00    -0.165 F 
ENDBRANCH  37  40
ENDBRANCH  36  37
ENDBRANCH  35  36
ENDBRANCH  34  35
ENDBRANCH  32  34
ENDBRANCH  31  32
ENDBRANCH  30  31
ENDBRANCH  29  30
ENDBRANCH  28  29
ENDBRANCH  27  28
ENDBRANCH  26  27
ENDBRANCH  25  26
ENDBRANCH  24  25
ENDBRANCH  23  24
ENDBRANCH  17  23
TORSDOF 17
ENDMDL
MODEL 3
REMARK VINA RESULT:      -8.4      2.140      4.240
REMARK  Name = *****
REMARK                            x       y       z     vdW  Elec       q    Type
REMARK                         _______ _______ _______ _____ _____    ______ ____
ROOT
ATOM      1  C   LIG    1       26.491 -27.586  11.731  0.00  0.00    +0.014 C 
ATOM      2  C   LIG    1       25.774 -28.948  11.495  0.00  0.00    -0.003 C 
ATOM      3  C   LIG    1       26.788 -30.074  11.786  0.00  0.00    +0.121 C 
ATOM      4  C   LIG    1       27.673 -30.127  10.546  0.00  0.00    +0.032 C 
ATOM      5  C   LIG    1       26.816 -29.593   9.388  0.00  0.00    +0.007 C 
ATOM      6  C   LIG    1       25.460 -29.136   9.983  0.00  0.00    +0.001 C 
ATOM      7  C   LIG    1       24.172 -29.962   9.586  0.00  0.00    +0.003 C 
ATOM      8  C   LIG    1       23.020 -29.867  10.628  0.00  0.00    +0.023 C 
ATOM      9  C   LIG    1       21.883 -30.850  10.416  0.00  0.00    -0.041 A 
ATOM     10  C   LIG    1       22.164 -32.141   9.933  0.00  0.00    -0.040 A 
ATOM     11  C   LIG    1       23.568 -32.506   9.572  0.00  0.00    +0.039 C 
ATOM     12  C   LIG    1       21.151 -33.112   9.946  0.00  0.00    +0.049 A 
ATOM     13  C   LIG    1       19.883 -32.807  10.394  0.00  0.00    +0.117 A 
ATOM     14  C   LIG    1       19.575 -31.519  10.844  0.00  0.00    +0.045 A 
ATOM     15  C   LIG    1       20.584 -30.552  10.848  0.00  0.00    +0.008 A 
ATOM     16  C   LIG    1       23.495 -29.999  12.074  0.00  0.00    +0.009 C 
ATOM     17  C   LIG    1       24.389 -31.375   8.927  0.00  0.00    -0.003 C 
ATOM     18  C   LIG    1       24.548 -28.963  12.415  0.00  0.00    +0.010 C 
ENDROOT
BRANCH   3  19
ATOM     19  O   LIG    1       26.155 -31.336  11.933  0.00  0.00    -0.391 OA
ATOM     20  H   LIG    1       26.174 -31.562  12.879  0.00  0.00    +0.210 HD
ENDBRANCH   3  19
BRANCH  13  21
ATOM     21  O   LIG    1       18.947 -33.800  10.412  0.00  0.00    -0.507 OA
ATOM     22  H   LIG    1       19.270 -34.546   9.891  0.00  0.00    +0.292 HD
ENDBRANCH  13  21
BRANCH  17  23
ATOM     23  C   LIG    1       24.152 -31.244   7.382  0.00  0.00    +0.004 C 
BRANCH  23  24
ATOM     24  C   LIG    1       25.381 -31.131   6.459  0.00  0.00    +0.000 C 
BRANCH  24  25
ATOM     25  C   LIG    1       25.378 -29.853   5.613  0.00  0.00    +0.000 C 
BRANCH  25  26
ATOM     26  C   LIG    1       24.261 -28.866   5.988  0.00  0.00    -0.000 C 
BRANCH  26  27
ATOM     27  C   LIG    1       24.850 -27.532   6.475  0.00  0.00    -0.000 C 
BRANCH  27  28
ATOM     28  C   LIG    1       24.302 -26.290   5.755  0.00  0.00    +0.000 C 
BRANCH  28  29
ATOM     29  C   LIG    1       25.278 -25.107   5.626  0.00  0.00    +0.001 C 
BRANCH  29  30
ATOM     30  C   LIG    1       25.556 -24.386   6.955  0.00  0.00    +0.013 C 
BRANCH  30  31
ATOM     31  C   LIG    1       25.290 -22.876   6.885  0.00  0.00    +0.104 C 
BRANCH  31  32
ATOM     32  S   LIG    1       26.725 -21.934   7.547  0.00  0.00    +0.022 S 
ATOM     33  O   LIG    1       26.525 -21.791   9.028  0.00  0.00    -0.257 OA
BRANCH  32  34
ATOM     34  C   LIG    1       26.301 -20.322   6.780  0.00  0.00    +0.104 C 
BRANCH  34  35
ATOM     35  C   LIG    1       26.282 -20.422   5.250  0.00  0.00    +0.019 C 
BRANCH  35  36
ATOM     36  C   LIG    1       25.205 -19.563   4.555  0.00  0.00    +0.086 C 
BRANCH  36  37
ATOM     37  C   LIG    1       23.921 -20.316   4.198  0.00  0.00    +0.342 C 
ATOM     38  F   LIG    1       24.167 -21.656   4.170  0.00  0.00    -0.196 F 
ATOM     39  F   LIG    1       23.593 -19.976   2.917  0.00  0.00    -0.196 F 
BRANCH  37  40
ATOM     40  C   LIG    1       22.742 -20.027   5.146  0.00  0.00    +0.454 C 
ATOM     41  F   LIG    1       21.691 -20.850   4.896  0.00  0.00    -0.165 F 
ATOM     42  F   LIG    1       22.281 -18.760   5.007  0.00  0.00    -0.165 F 
ATOM     43  F   LIG    1       23.065 -20.193   6.450  0.00  0.00    -0.165 F 
ENDBRANCH  37  40
ENDBRANCH  36  37
ENDBRANCH  35  36
ENDBRANCH  34  35
ENDBRANCH  32  34
ENDBRANCH  31  32
ENDBRANCH  30  31
ENDBRANCH  29  30
ENDBRANCH  28  29
ENDBRANCH  27  28
ENDBRANCH  26  27
ENDBRANCH  25  26
ENDBRANCH  24  25
ENDBRANCH  23  24
ENDBRANCH  17  23
TORSDOF 17
ENDMDL
MODEL 4
REMARK VINA RESULT:      -8.2      3.176      6.424
REMARK  Name = *****
REMARK                            x       y       z     vdW  Elec       q    Type
REMARK                         _______ _______ _______ _____ _____    ______ ____
ROOT
ATOM      1  C   LIG    1       26.742 -26.049  13.223  0.00  0.00    +0.014 C 
ATOM      2  C   LIG    1       25.531 -26.898  13.708  0.00  0.00    -0.003 C 
ATOM      3  C   LIG    1       26.065 -27.975  14.676  0.00  0.00    +0.121 C 
ATOM      4  C   LIG    1       26.672 -29.040  13.771  0.00  0.00    +0.032 C 
ATOM      5  C   LIG    1       25.928 -28.936  12.430  0.00  0.00    +0.007 C 
ATOM      6  C   LIG    1       24.954 -27.735  12.531  0.00  0.00    +0.001 C 
ATOM      7  C   LIG    1       23.405 -28.050  12.529  0.00  0.00    +0.003 C 
ATOM      8  C   LIG    1       22.542 -26.955  13.219  0.00  0.00    +0.023 C 
ATOM      9  C   LIG    1       21.096 -27.344  13.472  0.00  0.00    -0.041 A 
ATOM     10  C   LIG    1       20.787 -28.673  13.817  0.00  0.00    -0.040 A 
ATOM     11  C   LIG    1       21.875 -29.697  13.864  0.00  0.00    +0.039 C 
ATOM     12  C   LIG    1       19.493 -28.980  14.261  0.00  0.00    +0.049 A 
ATOM     13  C   LIG    1       18.518 -28.008  14.333  0.00  0.00    +0.117 A 
ATOM     14  C   LIG    1       18.797 -26.689  13.960  0.00  0.00    +0.045 A 
ATOM     15  C   LIG    1       20.089 -26.373  13.531  0.00  0.00    +0.008 A 
ATOM     16  C   LIG    1       23.133 -26.454  14.536  0.00  0.00    +0.009 C 
ATOM     17  C   LIG    1       22.965 -29.539  12.789  0.00  0.00    -0.003 C 
ATOM     18  C   LIG    1       24.540 -25.921  14.352  0.00  0.00    +0.010 C 
ENDROOT
BRANCH   3  19
ATOM     19  O   LIG    1       25.025 -28.576  15.431  0.00  0.00    -0.391 OA
ATOM     20  H   LIG    1       24.978 -29.511  15.167  0.00  0.00    +0.210 HD
ENDBRANCH   3  19
BRANCH  13  21
ATOM     21  O   LIG    1       17.285 -28.359  14.802  0.00  0.00    -0.507 OA
ATOM     22  H   LIG    1       16.662 -28.374  14.064  0.00  0.00    +0.292 HD
ENDBRANCH  13  21
BRANCH  17  23
ATOM     23  C   LIG    1       22.576 -30.189  11.415  0.00  0.00    +0.004 C 
BRANCH  23  24
ATOM     24  C   LIG    1       23.702 -30.743  10.521  0.00  0.00    +0.000 C 
BRANCH  24  25
ATOM     25  C   LIG    1       23.729 -30.105   9.128  0.00  0.00    +0.000 C 
BRANCH  25  26
ATOM     26  C   LIG    1       25.144 -29.944   8.549  0.00  0.00    -0.000 C 
BRANCH  26  27
ATOM     27  C   LIG    1       25.290 -28.592   7.831  0.00  0.00    -0.000 C 
BRANCH  27  28
ATOM     28  C   LIG    1       24.509 -28.480   6.513  0.00  0.00    +0.000 C 
BRANCH  28  29
ATOM     29  C   LIG    1       25.313 -27.980   5.299  0.00  0.00    +0.001 C 
BRANCH  29  30
ATOM     30  C   LIG    1       25.968 -26.605   5.515  0.00  0.00    +0.013 C 
BRANCH  30  31
ATOM     31  C   LIG    1       25.169 -25.456   4.885  0.00  0.00    +0.104 C 
BRANCH  31  32
ATOM     32  S   LIG    1       25.095 -24.017   6.029  0.00  0.00    +0.022 S 
ATOM     33  O   LIG    1       26.004 -24.314   7.186  0.00  0.00    -0.257 OA
BRANCH  32  34
ATOM     34  C   LIG    1       23.373 -24.282   6.604  0.00  0.00    +0.104 C 
BRANCH  34  35
ATOM     35  C   LIG    1       22.680 -22.951   6.915  0.00  0.00    +0.019 C 
BRANCH  35  36
ATOM     36  C   LIG    1       23.532 -21.693   6.642  0.00  0.00    +0.086 C 
BRANCH  36  37
ATOM     37  C   LIG    1       22.964 -20.760   5.570  0.00  0.00    +0.342 C 
ATOM     38  F   LIG    1       22.574 -19.586   6.143  0.00  0.00    -0.196 F 
ATOM     39  F   LIG    1       21.820 -21.335   5.095  0.00  0.00    -0.196 F 
BRANCH  37  40
ATOM     40  C   LIG    1       23.938 -20.471   4.413  0.00  0.00    +0.454 C 
ATOM     41  F   LIG    1       23.587 -19.346   3.737  0.00  0.00    -0.165 F 
ATOM     42  F   LIG    1       23.954 -21.476   3.503  0.00  0.00    -0.165 F 
ATOM     43  F   LIG    1       25.213 -20.293   4.832  0.00  0.00    -0.165 F 
ENDBRANCH  37  40
ENDBRANCH  36  37
ENDBRANCH  35  36
ENDBRANCH  34  35
ENDBRANCH  32  34
ENDBRANCH  31  32
ENDBRANCH  30  31
ENDBRANCH  29  30
ENDBRANCH  28  29
ENDBRANCH  27  28
ENDBRANCH  26  27
ENDBRANCH  25  26
ENDBRANCH  24  25
ENDBRANCH  23  24
ENDBRANCH  17  23
TORSDOF 17
ENDMDL
MODEL 5
REMARK VINA RESULT:      -8.1      2.746      3.425
REMARK  Name = *****
REMARK                            x       y       z     vdW  Elec       q    Type
REMARK                         _______ _______ _______ _____ _____    ______ ____
ROOT
ATOM      1  C   LIG    1       27.645 -33.451   5.503  0.00  0.00    +0.014 C 
ATOM      2  C   LIG    1       26.617 -32.998   6.582  0.00  0.00    -0.003 C 
ATOM      3  C   LIG    1       25.329 -33.825   6.384  0.00  0.00    +0.121 C 
ATOM      4  C   LIG    1       24.631 -33.173   5.195  0.00  0.00    +0.032 C 
ATOM      5  C   LIG    1       25.099 -31.710   5.177  0.00  0.00    +0.007 C 
ATOM      6  C   LIG    1       26.150 -31.542   6.302  0.00  0.00    +0.001 C 
ATOM      7  C   LIG    1       25.760 -30.635   7.537  0.00  0.00    +0.003 C 
ATOM      8  C   LIG    1       26.536 -30.981   8.840  0.00  0.00    +0.023 C 
ATOM      9  C   LIG    1       26.002 -30.319  10.098  0.00  0.00    -0.041 A 
ATOM     10  C   LIG    1       24.617 -30.129  10.245  0.00  0.00    -0.040 A 
ATOM     11  C   LIG    1       23.694 -30.518   9.135  0.00  0.00    +0.039 C 
ATOM     12  C   LIG    1       24.111 -29.723  11.489  0.00  0.00    +0.049 A 
ATOM     13  C   LIG    1       24.954 -29.479  12.553  0.00  0.00    +0.117 A 
ATOM     14  C   LIG    1       26.338 -29.628  12.414  0.00  0.00    +0.045 A 
ATOM     15  C   LIG    1       26.847 -30.048  11.181  0.00  0.00    +0.008 A 
ATOM     16  C   LIG    1       26.643 -32.482   9.104  0.00  0.00    +0.009 C 
ATOM     17  C   LIG    1       24.239 -30.268   7.718  0.00  0.00    -0.003 C 
ATOM     18  C   LIG    1       27.289 -33.212   7.943  0.00  0.00    +0.010 C 
ENDROOT
BRANCH   3  19
ATOM     19  O   LIG    1       24.465 -33.741   7.505  0.00  0.00    -0.391 OA
ATOM     20  H   LIG    1       24.993 -33.951   8.296  0.00  0.00    +0.210 HD
ENDBRANCH   3  19
BRANCH  13  21
ATOM     21  O   LIG    1       24.403 -29.116  13.747  0.00  0.00    -0.507 OA
ATOM     22  H   LIG    1       23.981 -29.889  14.145  0.00  0.00    +0.292 HD
ENDBRANCH  13  21
BRANCH  17  23
ATOM     23  C   LIG    1       24.021 -28.796   7.223  0.00  0.00    +0.004 C 
BRANCH  23  24
ATOM     24  C   LIG    1       25.240 -28.008   6.704  0.00  0.00    +0.000 C 
BRANCH  24  25
ATOM     25  C   LIG    1       25.298 -27.935   5.175  0.00  0.00    +0.000 C 
BRANCH  25  26
ATOM     26  C   LIG    1       25.817 -26.591   4.639  0.00  0.00    -0.000 C 
BRANCH  26  27
ATOM     27  C   LIG    1       25.959 -25.567   5.777  0.00  0.00    -0.000 C 
BRANCH  27  28
ATOM     28  C   LIG    1       25.027 -24.351   5.664  0.00  0.00    +0.000 C 
BRANCH  28  29
ATOM     29  C   LIG    1       23.980 -24.204   6.783  0.00  0.00    +0.001 C 
BRANCH  29  30
ATOM     30  C   LIG    1       22.903 -23.147   6.488  0.00  0.00    +0.013 C 
BRANCH  30  31
ATOM     31  C   LIG    1       23.059 -21.880   7.339  0.00  0.00    +0.104 C 
BRANCH  31  32
ATOM     32  S   LIG    1       23.297 -20.405   6.266  0.00  0.00    +0.022 S 
ATOM     33  O   LIG    1       22.295 -20.493   5.151  0.00  0.00    -0.257 OA
BRANCH  32  34
ATOM     34  C   LIG    1       24.925 -20.895   5.577  0.00  0.00    +0.104 C 
BRANCH  34  35
ATOM     35  C   LIG    1       26.070 -20.478   6.507  0.00  0.00    +0.019 C 
BRANCH  35  36
ATOM     36  C   LIG    1       27.352 -20.004   5.789  0.00  0.00    +0.086 C 
BRANCH  36  37
ATOM     37  C   LIG    1       28.612 -20.021   6.659  0.00  0.00    +0.342 C 
ATOM     38  F   LIG    1       29.272 -21.201   6.487  0.00  0.00    -0.196 F 
ATOM     39  F   LIG    1       28.206 -20.014   7.962  0.00  0.00    -0.196 F 
BRANCH  37  40
ATOM     40  C   LIG    1       29.572 -18.848   6.391  0.00  0.00    +0.454 C 
ATOM     41  F   LIG    1       29.149 -18.087   5.348  0.00  0.00    -0.165 F 
ATOM     42  F   LIG    1       30.818 -19.277   6.074  0.00  0.00    -0.165 F 
ATOM     43  F   LIG    1       29.695 -18.018   7.454  0.00  0.00    -0.165 F 
ENDBRANCH  37  40
ENDBRANCH  36  37
ENDBRANCH  35  36
ENDBRANCH  34  35
ENDBRANCH  32  34
ENDBRANCH  31  32
ENDBRANCH  30  31
ENDBRANCH  29  30
ENDBRANCH  28  29
ENDBRANCH  27  28
ENDBRANCH  26  27
ENDBRANCH  25  26
ENDBRANCH  24  25
ENDBRANCH  23  24
ENDBRANCH  17  23
TORSDOF 17
ENDMDL
MODEL 6
REMARK VINA RESULT:      -7.8      3.415      5.560
REMARK  Name = *****
REMARK                            x       y       z     vdW  Elec       q    Type
REMARK                         _______ _______ _______ _____ _____    ______ ____
ROOT
ATOM      1  C   LIG    1       26.597 -27.194  12.591  0.00  0.00    +0.014 C 
ATOM      2  C   LIG    1       26.008 -28.588  12.227  0.00  0.00    -0.003 C 
ATOM      3  C   LIG    1       27.050 -29.659  12.612  0.00  0.00    +0.121 C 
ATOM      4  C   LIG    1       28.085 -29.611  11.494  0.00  0.00    +0.032 C 
ATOM      5  C   LIG    1       27.346 -29.089  10.252  0.00  0.00    +0.007 C 
ATOM      6  C   LIG    1       25.899 -28.740  10.682  0.00  0.00    +0.001 C 
ATOM      7  C   LIG    1       24.729 -29.629  10.102  0.00  0.00    +0.003 C 
ATOM      8  C   LIG    1       23.452 -29.644  10.990  0.00  0.00    +0.023 C 
ATOM      9  C   LIG    1       22.418 -30.688  10.607  0.00  0.00    -0.041 A 
ATOM     10  C   LIG    1       22.843 -31.940  10.127  0.00  0.00    -0.040 A 
ATOM     11  C   LIG    1       24.302 -32.204   9.938  0.00  0.00    +0.039 C 
ATOM     12  C   LIG    1       21.903 -32.972   9.983  0.00  0.00    +0.049 A 
ATOM     13  C   LIG    1       20.571 -32.764  10.275  0.00  0.00    +0.117 A 
ATOM     14  C   LIG    1       20.125 -31.515  10.718  0.00  0.00    +0.045 A 
ATOM     15  C   LIG    1       21.058 -30.488  10.878  0.00  0.00    +0.008 A 
ATOM     16  C   LIG    1       23.750 -29.799  12.481  0.00  0.00    +0.009 C 
ATOM     17  C   LIG    1       25.120 -31.001   9.435  0.00  0.00    -0.003 C 
ATOM     18  C   LIG    1       24.680 -28.713  12.983  0.00  0.00    +0.010 C 
ENDROOT
BRANCH   3  19
ATOM     19  O   LIG    1       26.489 -30.962  12.641  0.00  0.00    -0.391 OA
ATOM     20  H   LIG    1       26.719 -31.396  11.800  0.00  0.00    +0.210 HD
ENDBRANCH   3  19
BRANCH  13  21
ATOM     21  O   LIG    1       19.708 -33.813  10.145  0.00  0.00    -0.507 OA
ATOM     22  H   LIG    1       19.749 -34.354  10.945  0.00  0.00    +0.292 HD
ENDBRANCH  13  21
BRANCH  17  23
ATOM     23  C   LIG    1       25.071 -30.828   7.877  0.00  0.00    +0.004 C 
BRANCH  23  24
ATOM     24  C   LIG    1       24.344 -29.598   7.298  0.00  0.00    +0.000 C 
BRANCH  24  25
ATOM     25  C   LIG    1       25.289 -28.627   6.583  0.00  0.00    +0.000 C 
BRANCH  25  26
ATOM     26  C   LIG    1       24.639 -27.888   5.403  0.00  0.00    -0.000 C 
BRANCH  26  27
ATOM     27  C   LIG    1       25.516 -26.711   4.943  0.00  0.00    -0.000 C 
BRANCH  27  28
ATOM     28  C   LIG    1       26.258 -25.986   6.076  0.00  0.00    +0.000 C 
BRANCH  28  29
ATOM     29  C   LIG    1       25.510 -24.802   6.715  0.00  0.00    +0.001 C 
BRANCH  29  30
ATOM     30  C   LIG    1       25.073 -23.728   5.705  0.00  0.00    +0.013 C 
BRANCH  30  31
ATOM     31  C   LIG    1       23.909 -22.866   6.213  0.00  0.00    +0.104 C 
BRANCH  31  32
ATOM     32  S   LIG    1       24.469 -21.757   7.569  0.00  0.00    +0.022 S 
ATOM     33  O   LIG    1       23.386 -20.744   7.798  0.00  0.00    -0.257 OA
BRANCH  32  34
ATOM     34  C   LIG    1       25.808 -20.923   6.632  0.00  0.00    +0.104 C 
BRANCH  34  35
ATOM     35  C   LIG    1       27.176 -21.169   7.279  0.00  0.00    +0.019 C 
BRANCH  35  36
ATOM     36  C   LIG    1       28.351 -20.412   6.626  0.00  0.00    +0.086 C 
BRANCH  36  37
ATOM     37  C   LIG    1       29.375 -19.850   7.616  0.00  0.00    +0.342 C 
ATOM     38  F   LIG    1       30.058 -20.873   8.200  0.00  0.00    -0.196 F 
ATOM     39  F   LIG    1       28.678 -19.250   8.625  0.00  0.00    -0.196 F 
BRANCH  37  40
ATOM     40  C   LIG    1       30.370 -18.856   6.989  0.00  0.00    +0.454 C 
ATOM     41  F   LIG    1       31.560 -19.450   6.715  0.00  0.00    -0.165 F 
ATOM     42  F   LIG    1       30.640 -17.819   7.820  0.00  0.00    -0.165 F 
ATOM     43  F   LIG    1       29.921 -18.327   5.826  0.00  0.00    -0.165 F 
ENDBRANCH  37  40
ENDBRANCH  36  37
ENDBRANCH  35  36
ENDBRANCH  34  35
ENDBRANCH  32  34
ENDBRANCH  31  32
ENDBRANCH  30  31
ENDBRANCH  29  30
ENDBRANCH  28  29
ENDBRANCH  27  28
ENDBRANCH  26  27
ENDBRANCH  25  26
ENDBRANCH  24  25
ENDBRANCH  23  24
ENDBRANCH  17  23
TORSDOF 17
ENDMDL
MODEL 7
REMARK VINA RESULT:      -7.5      4.473     11.205
REMARK  Name = *****
REMARK                            x       y       z     vdW  Elec       q    Type
REMARK                         _______ _______ _______ _____ _____    ______ ____
ROOT
ATOM      1  C   LIG    1       31.648 -19.614   6.651  0.00  0.00    +0.014 C 
ATOM      2  C   LIG    1       30.126 -19.540   6.972  0.00  0.00    -0.003 C 
ATOM      3  C   LIG    1       29.969 -18.939   8.384  0.00  0.00    +0.121 C 
ATOM      4  C   LIG    1       30.290 -20.090   9.331  0.00  0.00    +0.032 C 
ATOM      5  C   LIG    1       29.960 -21.379   8.563  0.00  0.00    +0.007 C 
ATOM      6  C   LIG    1       29.540 -20.972   7.129  0.00  0.00    +0.001 C 
ATOM      7  C   LIG    1       28.033 -21.210   6.714  0.00  0.00    +0.003 C 
ATOM      8  C   LIG    1       27.542 -20.274   5.572  0.00  0.00    +0.023 C 
ATOM      9  C   LIG    1       26.042 -20.287   5.334  0.00  0.00    -0.041 A 
ATOM     10  C   LIG    1       25.169 -20.427   6.428  0.00  0.00    -0.040 A 
ATOM     11  C   LIG    1       25.727 -20.627   7.800  0.00  0.00    +0.039 C 
ATOM     12  C   LIG    1       23.794 -20.221   6.236  0.00  0.00    +0.049 A 
ATOM     13  C   LIG    1       23.290 -19.916   4.990  0.00  0.00    +0.117 A 
ATOM     14  C   LIG    1       24.140 -19.809   3.883  0.00  0.00    +0.045 A 
ATOM     15  C   LIG    1       25.512 -19.998   4.071  0.00  0.00    +0.008 A 
ATOM     16  C   LIG    1       27.979 -18.820   5.747  0.00  0.00    +0.009 C 
ATOM     17  C   LIG    1       26.998 -21.493   7.865  0.00  0.00    -0.003 C 
ATOM     18  C   LIG    1       29.486 -18.698   5.863  0.00  0.00    +0.010 C 
ENDROOT
BRANCH   3  19
ATOM     19  O   LIG    1       28.639 -18.516   8.637  0.00  0.00    -0.391 OA
ATOM     20  H   LIG    1       28.049 -19.255   8.406  0.00  0.00    +0.210 HD
ENDBRANCH   3  19
BRANCH  13  21
ATOM     21  O   LIG    1       21.949 -19.695   4.869  0.00  0.00    -0.507 OA
ATOM     22  H   LIG    1       21.611 -19.354   5.707  0.00  0.00    +0.292 HD
ENDBRANCH  13  21
BRANCH  17  23
ATOM     23  C   LIG    1       26.695 -23.032   7.894  0.00  0.00    +0.004 C 
BRANCH  23  24
ATOM     24  C   LIG    1       26.063 -23.679   6.646  0.00  0.00    +0.000 C 
BRANCH  24  25
ATOM     25  C   LIG    1       24.579 -24.012   6.832  0.00  0.00    +0.000 C 
BRANCH  25  26
ATOM     26  C   LIG    1       24.108 -25.220   6.006  0.00  0.00    -0.000 C 
BRANCH  26  27
ATOM     27  C   LIG    1       25.272 -25.815   5.195  0.00  0.00    -0.000 C 
BRANCH  27  28
ATOM     28  C   LIG    1       25.380 -27.346   5.260  0.00  0.00    +0.000 C 
BRANCH  28  29
ATOM     29  C   LIG    1       24.589 -28.025   6.393  0.00  0.00    +0.001 C 
BRANCH  29  30
ATOM     30  C   LIG    1       24.107 -29.443   6.047  0.00  0.00    +0.013 C 
BRANCH  30  31
ATOM     31  C   LIG    1       25.208 -30.502   6.191  0.00  0.00    +0.104 C 
BRANCH  31  32
ATOM     32  S   LIG    1       24.489 -32.118   6.698  0.00  0.00    +0.022 S 
ATOM     33  O   LIG    1       23.316 -31.830   7.588  0.00  0.00    -0.257 OA
BRANCH  32  34
ATOM     34  C   LIG    1       25.877 -32.647   7.777  0.00  0.00    +0.104 C 
BRANCH  34  35
ATOM     35  C   LIG    1       26.532 -31.445   8.468  0.00  0.00    +0.019 C 
BRANCH  35  36
ATOM     36  C   LIG    1       26.101 -31.223   9.933  0.00  0.00    +0.086 C 
BRANCH  36  37
ATOM     37  C   LIG    1       25.590 -29.813  10.239  0.00  0.00    +0.342 C 
ATOM     38  F   LIG    1       24.988 -29.798  11.462  0.00  0.00    -0.196 F 
ATOM     39  F   LIG    1       24.601 -29.535   9.339  0.00  0.00    -0.196 F 
BRANCH  37  40
ATOM     40  C   LIG    1       26.680 -28.727  10.187  0.00  0.00    +0.454 C 
ATOM     41  F   LIG    1       26.407 -27.707  11.042  0.00  0.00    -0.165 F 
ATOM     42  F   LIG    1       26.786 -28.176   8.952  0.00  0.00    -0.165 F 
ATOM     43  F   LIG    1       27.905 -29.197  10.520  0.00  0.00    -0.165 F 
ENDBRANCH  37  40
ENDBRANCH  36  37
ENDBRANCH  35  36
ENDBRANCH  34  35
ENDBRANCH  32  34
ENDBRANCH  31  32
ENDBRANCH  30  31
ENDBRANCH  29  30
ENDBRANCH  28  29
ENDBRANCH  27  28
ENDBRANCH  26  27
ENDBRANCH  25  26
ENDBRANCH  24  25
ENDBRANCH  23  24
ENDBRANCH  17  23
TORSDOF 17
ENDMDL
MODEL 8
REMARK VINA RESULT:      -7.3      4.547     11.024
REMARK  Name = *****
REMARK                            x       y       z     vdW  Elec       q    Type
REMARK                         _______ _______ _______ _____ _____    ______ ____
ROOT
ATOM      1  C   LIG    1       31.597 -19.544   6.579  0.00  0.00    +0.014 C 
ATOM      2  C   LIG    1       30.073 -19.523   6.897  0.00  0.00    -0.003 C 
ATOM      3  C   LIG    1       29.900 -19.045   8.354  0.00  0.00    +0.121 C 
ATOM      4  C   LIG    1       30.238 -20.266   9.203  0.00  0.00    +0.032 C 
ATOM      5  C   LIG    1       29.933 -21.491   8.328  0.00  0.00    +0.007 C 
ATOM      6  C   LIG    1       29.511 -20.973   6.931  0.00  0.00    +0.001 C 
ATOM      7  C   LIG    1       28.010 -21.200   6.490  0.00  0.00    +0.003 C 
ATOM      8  C   LIG    1       27.506 -20.180   5.429  0.00  0.00    +0.023 C 
ATOM      9  C   LIG    1       26.008 -20.199   5.183  0.00  0.00    -0.041 A 
ATOM     10  C   LIG    1       25.133 -20.444   6.257  0.00  0.00    -0.040 A 
ATOM     11  C   LIG    1       25.690 -20.749   7.610  0.00  0.00    +0.039 C 
ATOM     12  C   LIG    1       23.756 -20.246   6.076  0.00  0.00    +0.049 A 
ATOM     13  C   LIG    1       23.251 -19.846   4.857  0.00  0.00    +0.117 A 
ATOM     14  C   LIG    1       24.103 -19.632   3.768  0.00  0.00    +0.045 A 
ATOM     15  C   LIG    1       25.477 -19.813   3.946  0.00  0.00    +0.008 A 
ATOM     16  C   LIG    1       27.918 -18.739   5.726  0.00  0.00    +0.009 C 
ATOM     17  C   LIG    1       26.975 -21.597   7.609  0.00  0.00    -0.003 C 
ATOM     18  C   LIG    1       29.422 -18.602   5.860  0.00  0.00    +0.010 C 
ENDROOT
BRANCH   3  19
ATOM     19  O   LIG    1       28.562 -18.667   8.636  0.00  0.00    -0.391 OA
ATOM     20  H   LIG    1       28.224 -18.195   7.855  0.00  0.00    +0.210 HD
ENDBRANCH   3  19
BRANCH  13  21
ATOM     21  O   LIG    1       21.907 -19.639   4.749  0.00  0.00    -0.507 OA
ATOM     22  H   LIG    1       21.468 -20.490   4.618  0.00  0.00    +0.292 HD
ENDBRANCH  13  21
BRANCH  17  23
ATOM     23  C   LIG    1       26.699 -23.137   7.507  0.00  0.00    +0.004 C 
BRANCH  23  24
ATOM     24  C   LIG    1       25.272 -23.605   7.159  0.00  0.00    +0.000 C 
BRANCH  24  25
ATOM     25  C   LIG    1       25.187 -24.305   5.799  0.00  0.00    +0.000 C 
BRANCH  25  26
ATOM     26  C   LIG    1       24.302 -25.562   5.804  0.00  0.00    -0.000 C 
BRANCH  26  27
ATOM     27  C   LIG    1       25.163 -26.836   5.823  0.00  0.00    -0.000 C 
BRANCH  27  28
ATOM     28  C   LIG    1       24.451 -28.081   6.374  0.00  0.00    +0.000 C 
BRANCH  28  29
ATOM     29  C   LIG    1       25.237 -28.895   7.417  0.00  0.00    +0.001 C 
BRANCH  29  30
ATOM     30  C   LIG    1       24.344 -29.642   8.421  0.00  0.00    +0.013 C 
BRANCH  30  31
ATOM     31  C   LIG    1       25.118 -30.157   9.643  0.00  0.00    +0.104 C 
BRANCH  31  32
ATOM     32  S   LIG    1       26.750 -29.318   9.776  0.00  0.00    +0.022 S 
ATOM     33  O   LIG    1       27.745 -30.341  10.241  0.00  0.00    -0.257 OA
BRANCH  32  34
ATOM     34  C   LIG    1       26.336 -28.263  11.220  0.00  0.00    +0.104 C 
BRANCH  34  35
ATOM     35  C   LIG    1       25.182 -28.861  12.032  0.00  0.00    +0.019 C 
BRANCH  35  36
ATOM     36  C   LIG    1       24.417 -27.853  12.916  0.00  0.00    +0.086 C 
BRANCH  36  37
ATOM     37  C   LIG    1       22.925 -28.153  13.079  0.00  0.00    +0.342 C 
ATOM     38  F   LIG    1       22.746 -29.069  14.072  0.00  0.00    -0.196 F 
ATOM     39  F   LIG    1       22.506 -28.767  11.933  0.00  0.00    -0.196 F 
BRANCH  37  40
ATOM     40  C   LIG    1       22.064 -26.909  13.363  0.00  0.00    +0.454 C 
ATOM     41  F   LIG    1       21.609 -26.901  14.644  0.00  0.00    -0.165 F 
ATOM     42  F   LIG    1       20.969 -26.859  12.566  0.00  0.00    -0.165 F 
ATOM     43  F   LIG    1       22.741 -25.750  13.184  0.00  0.00    -0.165 F 
ENDBRANCH  37  40
ENDBRANCH  36  37
ENDBRANCH  35  36
ENDBRANCH  34  35
ENDBRANCH  32  34
ENDBRANCH  31  32
ENDBRANCH  30  31
ENDBRANCH  29  30
ENDBRANCH  28  29
ENDBRANCH  27  28
ENDBRANCH  26  27
ENDBRANCH  25  26
ENDBRANCH  24  25
ENDBRANCH  23  24
ENDBRANCH  17  23
TORSDOF 17
ENDMDL
MODEL 9
REMARK VINA RESULT:      -7.2      4.476     11.135
REMARK  Name = *****
REMARK                            x       y       z     vdW  Elec       q    Type
REMARK                         _______ _______ _______ _____ _____    ______ ____
ROOT
ATOM      1  C   LIG    1       31.562 -19.585   6.572  0.00  0.00    +0.014 C 
ATOM      2  C   LIG    1       30.040 -19.523   6.900  0.00  0.00    -0.003 C 
ATOM      3  C   LIG    1       29.886 -18.953   8.326  0.00  0.00    +0.121 C 
ATOM      4  C   LIG    1       30.214 -20.123   9.247  0.00  0.00    +0.032 C 
ATOM      5  C   LIG    1       29.886 -21.396   8.452  0.00  0.00    +0.007 C 
ATOM      6  C   LIG    1       29.459 -20.960   7.028  0.00  0.00    +0.001 C 
ATOM      7  C   LIG    1       27.952 -21.193   6.613  0.00  0.00    +0.003 C 
ATOM      8  C   LIG    1       27.453 -20.235   5.494  0.00  0.00    +0.023 C 
ATOM      9  C   LIG    1       25.953 -20.248   5.261  0.00  0.00    -0.041 A 
ATOM     10  C   LIG    1       25.084 -20.414   6.354  0.00  0.00    -0.040 A 
ATOM     11  C   LIG    1       25.648 -20.642   7.720  0.00  0.00    +0.039 C 
ATOM     12  C   LIG    1       23.708 -20.208   6.172  0.00  0.00    +0.049 A 
ATOM     13  C   LIG    1       23.199 -19.877   4.933  0.00  0.00    +0.117 A 
ATOM     14  C   LIG    1       24.044 -19.744   3.827  0.00  0.00    +0.045 A 
ATOM     15  C   LIG    1       25.417 -19.932   4.006  0.00  0.00    +0.008 A 
ATOM     16  C   LIG    1       27.887 -18.783   5.698  0.00  0.00    +0.009 C 
ATOM     17  C   LIG    1       26.921 -21.505   7.762  0.00  0.00    -0.003 C 
ATOM     18  C   LIG    1       29.393 -18.659   5.812  0.00  0.00    +0.010 C 
ENDROOT
BRANCH   3  19
ATOM     19  O   LIG    1       28.555 -18.540   8.593  0.00  0.00    -0.391 OA
ATOM     20  H   LIG    1       27.961 -19.217   8.224  0.00  0.00    +0.210 HD
ENDBRANCH   3  19
BRANCH  13  21
ATOM     21  O   LIG    1       21.856 -19.659   4.822  0.00  0.00    -0.507 OA
ATOM     22  H   LIG    1       21.389 -20.286   5.389  0.00  0.00    +0.292 HD
ENDBRANCH  13  21
BRANCH  17  23
ATOM     23  C   LIG    1       26.624 -23.045   7.758  0.00  0.00    +0.004 C 
BRANCH  23  24
ATOM     24  C   LIG    1       25.931 -23.655   6.523  0.00  0.00    +0.000 C 
BRANCH  24  25
ATOM     25  C   LIG    1       24.451 -23.972   6.764  0.00  0.00    +0.000 C 
BRANCH  25  26
ATOM     26  C   LIG    1       23.997 -25.307   6.152  0.00  0.00    -0.000 C 
BRANCH  26  27
ATOM     27  C   LIG    1       25.105 -25.911   5.273  0.00  0.00    -0.000 C 
BRANCH  27  28
ATOM     28  C   LIG    1       25.844 -27.102   5.902  0.00  0.00    +0.000 C 
BRANCH  28  29
ATOM     29  C   LIG    1       24.969 -28.089   6.695  0.00  0.00    +0.001 C 
BRANCH  29  30
ATOM     30  C   LIG    1       24.381 -29.222   5.838  0.00  0.00    +0.013 C 
BRANCH  30  31
ATOM     31  C   LIG    1       25.206 -30.514   5.906  0.00  0.00    +0.104 C 
BRANCH  31  32
ATOM     32  S   LIG    1       24.674 -31.546   7.334  0.00  0.00    +0.022 S 
ATOM     33  O   LIG    1       23.394 -30.963   7.858  0.00  0.00    -0.257 OA
BRANCH  32  34
ATOM     34  C   LIG    1       26.015 -31.042   8.480  0.00  0.00    +0.104 C 
BRANCH  34  35
ATOM     35  C   LIG    1       25.452 -30.330   9.716  0.00  0.00    +0.019 C 
BRANCH  35  36
ATOM     36  C   LIG    1       26.453 -30.149  10.876  0.00  0.00    +0.086 C 
BRANCH  36  37
ATOM     37  C   LIG    1       27.027 -28.736  11.007  0.00  0.00    +0.342 C 
ATOM     38  F   LIG    1       26.906 -28.079   9.820  0.00  0.00    -0.196 F 
ATOM     39  F   LIG    1       28.369 -28.861  11.223  0.00  0.00    -0.196 F 
BRANCH  37  40
ATOM     40  C   LIG    1       26.381 -27.900  12.128  0.00  0.00    +0.454 C 
ATOM     41  F   LIG    1       26.844 -28.269  13.352  0.00  0.00    -0.165 F 
ATOM     42  F   LIG    1       25.035 -28.055  12.163  0.00  0.00    -0.165 F 
ATOM     43  F   LIG    1       26.627 -26.575  12.002  0.00  0.00    -0.165 F 
ENDBRANCH  37  40
ENDBRANCH  36  37
ENDBRANCH  35  36
ENDBRANCH  34  35
ENDBRANCH  32  34
ENDBRANCH  31  32
ENDBRANCH  30  31
ENDBRANCH  29  30
ENDBRANCH  28  29
ENDBRANCH  27  28
ENDBRANCH  26  27
ENDBRANCH  25  26
ENDBRANCH  24  25
ENDBRANCH  23  24
ENDBRANCH  17  23
TORSDOF 17
ENDMDL
