MODEL 1
REMARK VINA RESULT:      -6.1      0.000      0.000
REMARK  Name = *****
REMARK                            x       y       z     vdW  Elec       q    Type
REMARK                         _______ _______ _______ _____ _____    ______ ____
ROOT
ATOM      1  C   LIG    1       25.561 -33.825   6.599  0.00  0.00    +0.011 C 
ATOM      2  C   LIG    1       25.736 -32.315   6.753  0.00  0.00    +0.026 C 
ATOM      3  C   LIG    1       24.441 -31.496   7.043  0.00  0.00    +0.134 C 
ATOM      4  C   LIG    1       24.616 -30.982   8.528  0.00  0.00    +0.014 C 
ATOM      5  C   LIG    1       23.790 -29.711   8.777  0.00  0.00    +0.015 C 
ATOM      6  C   LIG    1       26.132 -30.726   8.604  0.00  0.00    +0.003 C 
ATOM      7  C   LIG    1       26.766 -30.533  10.005  0.00  0.00    +0.004 C 
ATOM      8  C   LIG    1       25.988 -31.124  11.203  0.00  0.00    +0.072 C 
ATOM      9  C   LIG    1       25.033 -32.226  10.778  0.00  0.00    +0.138 C 
ATOM     10  O   LIG    1       24.887 -33.223  11.493  0.00  0.00    -0.297 OA
ATOM     11  C   LIG    1       25.386 -30.187  12.329  0.00  0.00    +0.017 C 
ATOM     12  C   LIG    1       25.835 -30.793  13.693  0.00  0.00    +0.021 C 
ATOM     13  C   LIG    1       25.872 -28.729  12.251  0.00  0.00    -0.056 C 
ATOM     14  C   LIG    1       25.381 -27.818  13.123  0.00  0.00    +0.051 C 
ATOM     15  C   LIG    1       23.874 -27.748  13.012  0.00  0.00    +0.179 C 
ATOM     16  O   LIG    1       23.262 -26.723  13.268  0.00  0.00    -0.288 OA
ATOM     17  C   LIG    1       23.166 -29.017  12.677  0.00  0.00    +0.047 C 
ATOM     18  C   LIG    1       26.275 -28.199  10.901  0.00  0.00    +0.032 C 
ATOM     19  C   LIG    1       23.855 -30.137  12.397  0.00  0.00    -0.012 C 
ATOM     20  C   LIG    1       27.288 -29.112  10.249  0.00  0.00    +0.009 C 
ATOM     21  C   LIG    1       24.170 -32.061   9.546  0.00  0.00    +0.084 C 
ATOM     22  C   LIG    1       26.705 -31.976   7.900  0.00  0.00    +0.011 C 
ENDROOT
BRANCH   3  23
ATOM     23  C   LIG    1       24.343 -30.314   6.025  0.00  0.00    +0.190 C 
ATOM     24  O   LIG    1       23.275 -29.759   5.750  0.00  0.00    -0.292 OA
BRANCH  23  25
ATOM     25  C   LIG    1       25.634 -29.837   5.375  0.00  0.00    +0.233 C 
BRANCH  25  26
ATOM     26  O   LIG    1       25.900 -28.489   5.725  0.00  0.00    -0.387 OA
ATOM     27  H   LIG    1       25.034 -28.066   5.872  0.00  0.00    +0.210 HD
ENDBRANCH  25  26
ENDBRANCH  23  25
ENDBRANCH   3  23
BRANCH   3  28
ATOM     28  O   LIG    1       23.273 -32.302   6.951  0.00  0.00    -0.380 OA
ATOM     29  H   LIG    1       22.488 -31.726   7.043  0.00  0.00    +0.211 HD
ENDBRANCH   3  28
TORSDOF 4
ENDMDL
MODEL 2
REMARK VINA RESULT:      -5.9      1.131      1.360
REMARK  Name = *****
REMARK                            x       y       z     vdW  Elec       q    Type
REMARK                         _______ _______ _______ _____ _____    ______ ____
ROOT
ATOM      1  C   LIG    1       25.167 -33.232   5.269  0.00  0.00    +0.011 C 
ATOM      2  C   LIG    1       25.687 -31.908   5.828  0.00  0.00    +0.026 C 
ATOM      3  C   LIG    1       24.609 -30.837   6.180  0.00  0.00    +0.134 C 
ATOM      4  C   LIG    1       24.647 -30.736   7.757  0.00  0.00    +0.014 C 
ATOM      5  C   LIG    1       24.136 -29.369   8.239  0.00  0.00    +0.015 C 
ATOM      6  C   LIG    1       26.141 -30.948   8.060  0.00  0.00    +0.003 C 
ATOM      7  C   LIG    1       26.548 -31.259   9.522  0.00  0.00    +0.004 C 
ATOM      8  C   LIG    1       25.450 -31.851  10.435  0.00  0.00    +0.072 C 
ATOM      9  C   LIG    1       24.337 -32.511   9.639  0.00  0.00    +0.138 C 
ATOM     10  O   LIG    1       23.822 -33.556  10.050  0.00  0.00    -0.297 OA
ATOM     11  C   LIG    1       24.916 -31.053  11.695  0.00  0.00    +0.017 C 
ATOM     12  C   LIG    1       24.953 -32.047  12.894  0.00  0.00    +0.021 C 
ATOM     13  C   LIG    1       25.760 -29.816  12.050  0.00  0.00    -0.056 C 
ATOM     14  C   LIG    1       25.369 -29.018  13.071  0.00  0.00    +0.051 C 
ATOM     15  C   LIG    1       23.971 -28.495  12.822  0.00  0.00    +0.179 C 
ATOM     16  O   LIG    1       23.602 -27.421  13.268  0.00  0.00    -0.288 OA
ATOM     17  C   LIG    1       23.036 -29.401  12.094  0.00  0.00    +0.047 C 
ATOM     18  C   LIG    1       26.512 -29.140  10.935  0.00  0.00    +0.032 C 
ATOM     19  C   LIG    1       23.460 -30.582  11.609  0.00  0.00    -0.012 C 
ATOM     20  C   LIG    1       27.360 -30.138  10.182  0.00  0.00    +0.009 C 
ATOM     21  C   LIG    1       23.772 -31.838   8.407  0.00  0.00    +0.084 C 
ATOM     22  C   LIG    1       26.494 -32.123   7.121  0.00  0.00    +0.011 C 
ENDROOT
BRANCH   3  23
ATOM     23  C   LIG    1       24.991 -29.483   5.499  0.00  0.00    +0.190 C 
ATOM     24  O   LIG    1       26.160 -29.162   5.267  0.00  0.00    -0.292 OA
BRANCH  23  25
ATOM     25  C   LIG    1       23.854 -28.551   5.101  0.00  0.00    +0.233 C 
BRANCH  25  26
ATOM     26  O   LIG    1       24.108 -27.233   5.556  0.00  0.00    -0.387 OA
ATOM     27  H   LIG    1       23.764 -27.184   6.467  0.00  0.00    +0.210 HD
ENDBRANCH  25  26
ENDBRANCH  23  25
ENDBRANCH   3  23
BRANCH   3  28
ATOM     28  O   LIG    1       23.310 -31.234   5.757  0.00  0.00    -0.380 OA
ATOM     29  H   LIG    1       22.757 -31.386   6.550  0.00  0.00    +0.211 HD
ENDBRANCH   3  28
TORSDOF 4
ENDMDL
MODEL 3
REMARK VINA RESULT:      -5.9      2.254      6.287
REMARK  Name = *****
REMARK                            x       y       z     vdW  Elec       q    Type
REMARK                         _______ _______ _______ _____ _____    ______ ____
ROOT
ATOM      1  C   LIG    1       23.997 -30.138  13.366  0.00  0.00    +0.011 C 
ATOM      2  C   LIG    1       24.710 -29.540  12.155  0.00  0.00    +0.026 C 
ATOM      3  C   LIG    1       26.033 -30.241  11.716  0.00  0.00    +0.134 C 
ATOM      4  C   LIG    1       25.689 -30.913  10.328  0.00  0.00    +0.014 C 
ATOM      5  C   LIG    1       26.953 -31.111   9.478  0.00  0.00    +0.015 C 
ATOM      6  C   LIG    1       24.715 -29.895   9.709  0.00  0.00    +0.003 C 
ATOM      7  C   LIG    1       23.878 -30.343   8.485  0.00  0.00    +0.004 C 
ATOM      8  C   LIG    1       23.671 -31.865   8.308  0.00  0.00    +0.072 C 
ATOM      9  C   LIG    1       23.860 -32.623   9.610  0.00  0.00    +0.138 C 
ATOM     10  O   LIG    1       23.125 -33.579   9.878  0.00  0.00    -0.297 OA
ATOM     11  C   LIG    1       24.267 -32.631   7.057  0.00  0.00    +0.017 C 
ATOM     12  C   LIG    1       23.104 -33.484   6.467  0.00  0.00    +0.021 C 
ATOM     13  C   LIG    1       24.806 -31.700   5.956  0.00  0.00    -0.056 C 
ATOM     14  C   LIG    1       25.395 -32.238   4.862  0.00  0.00    +0.051 C 
ATOM     15  C   LIG    1       26.569 -33.100   5.272  0.00  0.00    +0.179 C 
ATOM     16  O   LIG    1       27.530 -33.261   4.537  0.00  0.00    -0.288 OA
ATOM     17  C   LIG    1       26.449 -33.825   6.569  0.00  0.00    +0.047 C 
ATOM     18  C   LIG    1       25.301 -30.341   6.372  0.00  0.00    +0.032 C 
ATOM     19  C   LIG    1       25.384 -33.635   7.368  0.00  0.00    -0.012 C 
ATOM     20  C   LIG    1       24.255 -29.618   7.187  0.00  0.00    +0.009 C 
ATOM     21  C   LIG    1       25.017 -32.293  10.529  0.00  0.00    +0.084 C 
ATOM     22  C   LIG    1       23.806 -29.549  10.909  0.00  0.00    +0.011 C 
ENDROOT
BRANCH   3  23
ATOM     23  C   LIG    1       27.161 -29.168  11.582  0.00  0.00    +0.190 C 
ATOM     24  O   LIG    1       27.071 -28.199  10.822  0.00  0.00    -0.292 OA
BRANCH  23  25
ATOM     25  C   LIG    1       28.402 -29.338  12.448  0.00  0.00    +0.233 C 
BRANCH  25  26
ATOM     26  O   LIG    1       29.571 -29.352  11.648  0.00  0.00    -0.387 OA
ATOM     27  H   LIG    1       29.666 -30.263  11.312  0.00  0.00    +0.210 HD
ENDBRANCH  25  26
ENDBRANCH  23  25
ENDBRANCH   3  23
BRANCH   3  28
ATOM     28  O   LIG    1       26.435 -31.241  12.645  0.00  0.00    -0.380 OA
ATOM     29  H   LIG    1       25.887 -31.155  13.451  0.00  0.00    +0.211 HD
ENDBRANCH   3  28
TORSDOF 4
ENDMDL
MODEL 4
REMARK VINA RESULT:      -5.7      4.235      6.741
REMARK  Name = *****
REMARK                            x       y       z     vdW  Elec       q    Type
REMARK                         _______ _______ _______ _____ _____    ______ ____
ROOT
ATOM      1  C   LIG    1       19.663 -27.117  14.802  0.00  0.00    +0.011 C 
ATOM      2  C   LIG    1       20.485 -28.392  14.618  0.00  0.00    +0.026 C 
ATOM      3  C   LIG    1       20.986 -28.687  13.171  0.00  0.00    +0.134 C 
ATOM      4  C   LIG    1       22.554 -28.498  13.244  0.00  0.00    +0.014 C 
ATOM      5  C   LIG    1       23.263 -29.305  12.145  0.00  0.00    +0.015 C 
ATOM      6  C   LIG    1       22.876 -29.016  14.657  0.00  0.00    +0.003 C 
ATOM      7  C   LIG    1       24.270 -28.688  15.250  0.00  0.00    +0.004 C 
ATOM      8  C   LIG    1       25.005 -27.465  14.653  0.00  0.00    +0.072 C 
ATOM      9  C   LIG    1       24.050 -26.496  13.979  0.00  0.00    +0.138 C 
ATOM     10  O   LIG    1       24.232 -25.279  14.084  0.00  0.00    -0.297 OA
ATOM     11  C   LIG    1       26.368 -27.636  13.865  0.00  0.00    +0.017 C 
ATOM     12  C   LIG    1       27.358 -26.594  14.466  0.00  0.00    +0.021 C 
ATOM     13  C   LIG    1       26.988 -29.038  13.991  0.00  0.00    -0.056 C 
ATOM     14  C   LIG    1       28.124 -29.325  13.313  0.00  0.00    +0.051 C 
ATOM     15  C   LIG    1       27.916 -29.108  11.830  0.00  0.00    +0.179 C 
ATOM     16  O   LIG    1       28.541 -29.745  10.997  0.00  0.00    -0.288 OA
ATOM     17  C   LIG    1       26.990 -28.007  11.436  0.00  0.00    +0.047 C 
ATOM     18  C   LIG    1       26.056 -30.195  14.236  0.00  0.00    +0.032 C 
ATOM     19  C   LIG    1       26.308 -27.315  12.367  0.00  0.00    -0.012 C 
ATOM     20  C   LIG    1       25.166 -29.921  15.425  0.00  0.00    +0.009 C 
ATOM     21  C   LIG    1       22.944 -27.008  13.081  0.00  0.00    +0.084 C 
ATOM     22  C   LIG    1       21.749 -28.377  15.498  0.00  0.00    +0.011 C 
ENDROOT
BRANCH   3  23
ATOM     23  C   LIG    1       20.592 -30.148  12.780  0.00  0.00    +0.190 C 
ATOM     24  O   LIG    1       20.344 -31.017  13.620  0.00  0.00    -0.292 OA
BRANCH  23  25
ATOM     25  C   LIG    1       20.499 -30.478  11.296  0.00  0.00    +0.233 C 
BRANCH  25  26
ATOM     26  O   LIG    1       19.150 -30.450  10.863  0.00  0.00    -0.387 OA
ATOM     27  H   LIG    1       19.157 -30.073   9.963  0.00  0.00    +0.210 HD
ENDBRANCH  25  26
ENDBRANCH  23  25
ENDBRANCH   3  23
BRANCH   3  28
ATOM     28  O   LIG    1       20.438 -27.776  12.225  0.00  0.00    -0.380 OA
ATOM     29  H   LIG    1       20.963 -27.830  11.401  0.00  0.00    +0.211 HD
ENDBRANCH   3  28
TORSDOF 4
ENDMDL
MODEL 5
REMARK VINA RESULT:      -5.4      1.488      2.164
REMARK  Name = *****
REMARK                            x       y       z     vdW  Elec       q    Type
REMARK                         _______ _______ _______ _____ _____    ______ ____
ROOT
ATOM      1  C   LIG    1       27.320 -32.722   7.993  0.00  0.00    +0.011 C 
ATOM      2  C   LIG    1       26.655 -31.371   8.257  0.00  0.00    +0.026 C 
ATOM      3  C   LIG    1       25.095 -31.361   8.265  0.00  0.00    +0.134 C 
ATOM      4  C   LIG    1       24.705 -31.080   9.771  0.00  0.00    +0.014 C 
ATOM      5  C   LIG    1       23.310 -30.445   9.875  0.00  0.00    +0.015 C 
ATOM      6  C   LIG    1       25.824 -30.125  10.223  0.00  0.00    +0.003 C 
ATOM      7  C   LIG    1       25.999 -29.878  11.742  0.00  0.00    +0.004 C 
ATOM      8  C   LIG    1       25.438 -30.965  12.688  0.00  0.00    +0.072 C 
ATOM      9  C   LIG    1       25.289 -32.307  11.994  0.00  0.00    +0.138 C 
ATOM     10  O   LIG    1       25.555 -33.349  12.604  0.00  0.00    -0.297 OA
ATOM     11  C   LIG    1       24.245 -30.648  13.680  0.00  0.00    +0.017 C 
ATOM     12  C   LIG    1       24.686 -31.168  15.081  0.00  0.00    +0.021 C 
ATOM     13  C   LIG    1       23.908 -29.151  13.791  0.00  0.00    -0.056 C 
ATOM     14  C   LIG    1       22.866 -28.760  14.562  0.00  0.00    +0.051 C 
ATOM     15  C   LIG    1       21.591 -29.427  14.095  0.00  0.00    +0.179 C 
ATOM     16  O   LIG    1       20.502 -28.897  14.244  0.00  0.00    -0.288 OA
ATOM     17  C   LIG    1       21.719 -30.805  13.538  0.00  0.00    +0.047 C 
ATOM     18  C   LIG    1       24.215 -28.277  12.604  0.00  0.00    +0.032 C 
ATOM     19  C   LIG    1       22.928 -31.374  13.379  0.00  0.00    -0.012 C 
ATOM     20  C   LIG    1       25.653 -28.447  12.173  0.00  0.00    +0.009 C 
ATOM     21  C   LIG    1       24.707 -32.390  10.600  0.00  0.00    +0.084 C 
ATOM     22  C   LIG    1       27.080 -30.793   9.619  0.00  0.00    +0.011 C 
ENDROOT
BRANCH   3  23
ATOM     23  C   LIG    1       24.585 -30.233   7.311  0.00  0.00    +0.190 C 
ATOM     24  O   LIG    1       24.899 -29.048   7.455  0.00  0.00    -0.292 OA
BRANCH  23  25
ATOM     25  C   LIG    1       23.683 -30.644   6.156  0.00  0.00    +0.233 C 
BRANCH  25  26
ATOM     26  O   LIG    1       23.237 -29.503   5.441  0.00  0.00    -0.387 OA
ATOM     27  H   LIG    1       22.264 -29.558   5.412  0.00  0.00    +0.210 HD
ENDBRANCH  25  26
ENDBRANCH  23  25
ENDBRANCH   3  23
BRANCH   3  28
ATOM     28  O   LIG    1       24.555 -32.612   7.856  0.00  0.00    -0.380 OA
ATOM     29  H   LIG    1       24.449 -33.178   8.646  0.00  0.00    +0.211 HD
ENDBRANCH   3  28
TORSDOF 4
ENDMDL
MODEL 6
REMARK VINA RESULT:      -5.3      2.689      5.999
REMARK  Name = *****
REMARK                            x       y       z     vdW  Elec       q    Type
REMARK                         _______ _______ _______ _____ _____    ______ ____
ROOT
ATOM      1  C   LIG    1       20.983 -29.916  14.769  0.00  0.00    +0.011 C 
ATOM      2  C   LIG    1       21.202 -31.045  13.761  0.00  0.00    +0.026 C 
ATOM      3  C   LIG    1       20.878 -30.712  12.272  0.00  0.00    +0.134 C 
ATOM      4  C   LIG    1       22.284 -30.711  11.548  0.00  0.00    +0.014 C 
ATOM      5  C   LIG    1       22.136 -31.007  10.048  0.00  0.00    +0.015 C 
ATOM      6  C   LIG    1       23.035 -31.824  12.299  0.00  0.00    +0.003 C 
ATOM      7  C   LIG    1       24.571 -31.912  12.118  0.00  0.00    +0.004 C 
ATOM      8  C   LIG    1       25.290 -30.620  11.666  0.00  0.00    +0.072 C 
ATOM      9  C   LIG    1       24.478 -29.375  11.978  0.00  0.00    +0.138 C 
ATOM     10  O   LIG    1       25.049 -28.350  12.364  0.00  0.00    -0.297 OA
ATOM     11  C   LIG    1       26.026 -30.542  10.266  0.00  0.00    +0.017 C 
ATOM     12  C   LIG    1       27.444 -29.961  10.545  0.00  0.00    +0.021 C 
ATOM     13  C   LIG    1       26.177 -31.904   9.565  0.00  0.00    -0.056 C 
ATOM     14  C   LIG    1       26.736 -31.958   8.333  0.00  0.00    +0.051 C 
ATOM     15  C   LIG    1       25.958 -31.091   7.367  0.00  0.00    +0.179 C 
ATOM     16  O   LIG    1       25.912 -31.347   6.175  0.00  0.00    -0.288 OA
ATOM     17  C   LIG    1       25.337 -29.855   7.925  0.00  0.00    +0.047 C 
ATOM     18  C   LIG    1       25.154 -32.964   9.872  0.00  0.00    +0.032 C 
ATOM     19  C   LIG    1       25.396 -29.589   9.242  0.00  0.00    -0.012 C 
ATOM     20  C   LIG    1       25.028 -33.168  11.364  0.00  0.00    +0.009 C 
ATOM     21  C   LIG    1       22.990 -29.341  11.707  0.00  0.00    +0.084 C 
ATOM     22  C   LIG    1       22.663 -31.528  13.769  0.00  0.00    +0.011 C 
ENDROOT
BRANCH   3  23
ATOM     23  C   LIG    1       19.927 -31.811  11.697  0.00  0.00    +0.190 C 
ATOM     24  O   LIG    1       20.185 -33.016  11.765  0.00  0.00    -0.292 OA
BRANCH  23  25
ATOM     25  C   LIG    1       18.629 -31.348  11.049  0.00  0.00    +0.233 C 
BRANCH  25  26
ATOM     26  O   LIG    1       18.896 -30.600   9.875  0.00  0.00    -0.387 OA
ATOM     27  H   LIG    1       18.057 -30.552   9.381  0.00  0.00    +0.210 HD
ENDBRANCH  25  26
ENDBRANCH  23  25
ENDBRANCH   3  23
BRANCH   3  28
ATOM     28  O   LIG    1       20.268 -29.434  12.135  0.00  0.00    -0.380 OA
ATOM     29  H   LIG    1       20.865 -28.859  11.616  0.00  0.00    +0.211 HD
ENDBRANCH   3  28
TORSDOF 4
ENDMDL
MODEL 7
REMARK VINA RESULT:      -5.3      3.129      4.289
REMARK  Name = *****
REMARK                            x       y       z     vdW  Elec       q    Type
REMARK                         _______ _______ _______ _____ _____    ______ ____
ROOT
ATOM      1  C   LIG    1       23.653 -33.824  12.226  0.00  0.00    +0.011 C 
ATOM      2  C   LIG    1       23.807 -32.557  11.386  0.00  0.00    +0.026 C 
ATOM      3  C   LIG    1       22.886 -31.358  11.769  0.00  0.00    +0.134 C 
ATOM      4  C   LIG    1       23.869 -30.270  12.358  0.00  0.00    +0.014 C 
ATOM      5  C   LIG    1       23.281 -28.858  12.223  0.00  0.00    +0.015 C 
ATOM      6  C   LIG    1       25.128 -30.471  11.496  0.00  0.00    +0.003 C 
ATOM      7  C   LIG    1       26.450 -29.824  11.980  0.00  0.00    +0.004 C 
ATOM      8  C   LIG    1       26.551 -29.502  13.488  0.00  0.00    +0.072 C 
ATOM      9  C   LIG    1       25.586 -30.332  14.317  0.00  0.00    +0.138 C 
ATOM     10  O   LIG    1       25.936 -30.765  15.419  0.00  0.00    -0.297 OA
ATOM     11  C   LIG    1       26.674 -28.008  13.999  0.00  0.00    +0.017 C 
ATOM     12  C   LIG    1       27.865 -27.981  15.002  0.00  0.00    +0.021 C 
ATOM     13  C   LIG    1       26.946 -26.988  12.879  0.00  0.00    -0.056 C 
ATOM     14  C   LIG    1       27.012 -25.670  13.183  0.00  0.00    +0.051 C 
ATOM     15  C   LIG    1       25.723 -25.219  13.834  0.00  0.00    +0.179 C 
ATOM     16  O   LIG    1       25.324 -24.070  13.732  0.00  0.00    -0.288 OA
ATOM     17  C   LIG    1       25.018 -26.217  14.690  0.00  0.00    +0.047 C 
ATOM     18  C   LIG    1       26.456 -27.323  11.496  0.00  0.00    +0.032 C 
ATOM     19  C   LIG    1       25.471 -27.480  14.790  0.00  0.00    -0.012 C 
ATOM     20  C   LIG    1       26.943 -28.689  11.073  0.00  0.00    +0.009 C 
ATOM     21  C   LIG    1       24.158 -30.535  13.857  0.00  0.00    +0.084 C 
ATOM     22  C   LIG    1       25.245 -32.011  11.453  0.00  0.00    +0.011 C 
ENDROOT
BRANCH   3  23
ATOM     23  C   LIG    1       22.151 -30.848  10.488  0.00  0.00    +0.190 C 
ATOM     24  O   LIG    1       22.754 -30.478   9.477  0.00  0.00    -0.292 OA
BRANCH  23  25
ATOM     25  C   LIG    1       20.628 -30.833  10.509  0.00  0.00    +0.233 C 
BRANCH  25  26
ATOM     26  O   LIG    1       20.152 -29.931  11.493  0.00  0.00    -0.387 OA
ATOM     27  H   LIG    1       19.229 -29.724  11.255  0.00  0.00    +0.210 HD
ENDBRANCH  25  26
ENDBRANCH  23  25
ENDBRANCH   3  23
BRANCH   3  28
ATOM     28  O   LIG    1       21.927 -31.722  12.756  0.00  0.00    -0.380 OA
ATOM     29  H   LIG    1       21.086 -31.940  12.307  0.00  0.00    +0.211 HD
ENDBRANCH   3  28
TORSDOF 4
ENDMDL
MODEL 8
REMARK VINA RESULT:      -5.1      2.345      3.974
REMARK  Name = *****
REMARK                            x       y       z     vdW  Elec       q    Type
REMARK                         _______ _______ _______ _____ _____    ______ ____
ROOT
ATOM      1  C   LIG    1       24.161 -32.923   7.856  0.00  0.00    +0.011 C 
ATOM      2  C   LIG    1       24.819 -32.494   9.167  0.00  0.00    +0.026 C 
ATOM      3  C   LIG    1       25.065 -30.965   9.349  0.00  0.00    +0.134 C 
ATOM      4  C   LIG    1       24.068 -30.532  10.497  0.00  0.00    +0.014 C 
ATOM      5  C   LIG    1       24.565 -29.270  11.218  0.00  0.00    +0.015 C 
ATOM      6  C   LIG    1       24.068 -31.772  11.408  0.00  0.00    +0.003 C 
ATOM      7  C   LIG    1       22.951 -31.887  12.477  0.00  0.00    +0.004 C 
ATOM      8  C   LIG    1       21.659 -31.079  12.217  0.00  0.00    +0.072 C 
ATOM      9  C   LIG    1       21.483 -30.738  10.747  0.00  0.00    +0.138 C 
ATOM     10  O   LIG    1       20.358 -30.771  10.238  0.00  0.00    -0.297 OA
ATOM     11  C   LIG    1       21.226 -29.898  13.179  0.00  0.00    +0.017 C 
ATOM     12  C   LIG    1       19.729 -30.144  13.533  0.00  0.00    +0.021 C 
ATOM     13  C   LIG    1       22.039 -29.829  14.484  0.00  0.00    -0.056 C 
ATOM     14  C   LIG    1       21.802 -28.825  15.361  0.00  0.00    +0.051 C 
ATOM     15  C   LIG    1       22.004 -27.485  14.689  0.00  0.00    +0.179 C 
ATOM     16  O   LIG    1       22.356 -26.501  15.319  0.00  0.00    -0.288 OA
ATOM     17  C   LIG    1       21.652 -27.400  13.242  0.00  0.00    +0.047 C 
ATOM     18  C   LIG    1       23.445 -30.366  14.460  0.00  0.00    +0.032 C 
ATOM     19  C   LIG    1       21.267 -28.495  12.562  0.00  0.00    -0.012 C 
ATOM     20  C   LIG    1       23.469 -31.775  13.916  0.00  0.00    +0.009 C 
ATOM     21  C   LIG    1       22.656 -30.244   9.928  0.00  0.00    +0.084 C 
ATOM     22  C   LIG    1       23.979 -32.924  10.383  0.00  0.00    +0.011 C 
ENDROOT
BRANCH   3  23
ATOM     23  C   LIG    1       26.557 -30.730   9.752  0.00  0.00    +0.190 C 
ATOM     24  O   LIG    1       27.355 -31.657   9.918  0.00  0.00    -0.292 OA
BRANCH  23  25
ATOM     25  C   LIG    1       27.021 -29.290   9.922  0.00  0.00    +0.233 C 
BRANCH  25  26
ATOM     26  O   LIG    1       26.981 -28.604   8.682  0.00  0.00    -0.387 OA
ATOM     27  H   LIG    1       27.837 -28.771   8.245  0.00  0.00    +0.210 HD
ENDBRANCH  25  26
ENDBRANCH  23  25
ENDBRANCH   3  23
BRANCH   3  28
ATOM     28  O   LIG    1       24.772 -30.237   8.161  0.00  0.00    -0.380 OA
ATOM     29  H   LIG    1       25.470 -30.425   7.502  0.00  0.00    +0.211 HD
ENDBRANCH   3  28
TORSDOF 4
ENDMDL
MODEL 9
REMARK VINA RESULT:      -5.0      1.944      6.300
REMARK  Name = *****
REMARK                            x       y       z     vdW  Elec       q    Type
REMARK                         _______ _______ _______ _____ _____    ______ ____
ROOT
ATOM      1  C   LIG    1       25.599 -28.989  14.243  0.00  0.00    +0.011 C 
ATOM      2  C   LIG    1       24.630 -30.037  13.695  0.00  0.00    +0.026 C 
ATOM      3  C   LIG    1       23.636 -29.550  12.596  0.00  0.00    +0.134 C 
ATOM      4  C   LIG    1       24.107 -30.285  11.278  0.00  0.00    +0.014 C 
ATOM      5  C   LIG    1       22.951 -30.423  10.276  0.00  0.00    +0.015 C 
ATOM      6  C   LIG    1       24.585 -31.644  11.818  0.00  0.00    +0.003 C 
ATOM      7  C   LIG    1       25.440 -32.536  10.884  0.00  0.00    +0.004 C 
ATOM      8  C   LIG    1       26.186 -31.820   9.735  0.00  0.00    +0.072 C 
ATOM      9  C   LIG    1       26.385 -30.340  10.017  0.00  0.00    +0.138 C 
ATOM     10  O   LIG    1       27.441 -29.788   9.689  0.00  0.00    -0.297 OA
ATOM     11  C   LIG    1       25.831 -32.116   8.220  0.00  0.00    +0.017 C 
ATOM     12  C   LIG    1       27.183 -32.390   7.496  0.00  0.00    +0.021 C 
ATOM     13  C   LIG    1       24.908 -33.331   8.023  0.00  0.00    -0.056 C 
ATOM     14  C   LIG    1       24.485 -33.648   6.777  0.00  0.00    +0.051 C 
ATOM     15  C   LIG    1       23.749 -32.479   6.161  0.00  0.00    +0.179 C 
ATOM     16  O   LIG    1       22.868 -32.644   5.333  0.00  0.00    -0.288 OA
ATOM     17  C   LIG    1       24.222 -31.115   6.537  0.00  0.00    +0.047 C 
ATOM     18  C   LIG    1       23.972 -33.686   9.148  0.00  0.00    +0.032 C 
ATOM     19  C   LIG    1       25.194 -30.951   7.452  0.00  0.00    -0.012 C 
ATOM     20  C   LIG    1       24.729 -33.824  10.448  0.00  0.00    +0.009 C 
ATOM     21  C   LIG    1       25.257 -29.509  10.589  0.00  0.00    +0.084 C 
ATOM     22  C   LIG    1       25.383 -31.228  13.074  0.00  0.00    +0.011 C 
ENDROOT
BRANCH   3  23
ATOM     23  C   LIG    1       22.183 -29.956  13.003  0.00  0.00    +0.190 C 
ATOM     24  O   LIG    1       21.917 -31.043  13.524  0.00  0.00    -0.292 OA
BRANCH  23  25
ATOM     25  C   LIG    1       21.073 -28.944  12.753  0.00  0.00    +0.233 C 
BRANCH  25  26
ATOM     26  O   LIG    1       20.003 -29.543  12.042  0.00  0.00    -0.387 OA
ATOM     27  H   LIG    1       20.174 -29.377  11.096  0.00  0.00    +0.210 HD
ENDBRANCH  25  26
ENDBRANCH  23  25
ENDBRANCH   3  23
BRANCH   3  28
ATOM     28  O   LIG    1       23.703 -28.142  12.409  0.00  0.00    -0.380 OA
ATOM     29  H   LIG    1       24.061 -27.736  13.223  0.00  0.00    +0.211 HD
ENDBRANCH   3  28
TORSDOF 4
ENDMDL
