MODEL 1
REMARK VINA RESULT:      -5.0      0.000      0.000
REMARK  Name = *****
REMARK                            x       y       z     vdW  Elec       q    Type
REMARK                         _______ _______ _______ _____ _____    ______ ____
ROOT
ATOM      1  C   LIG    1       22.442 -31.681  10.885  0.00  0.00    +0.133 C 
ATOM      2  C   LIG    1       23.793 -31.308  10.266  0.00  0.00    +0.012 C 
ATOM      3  C   LIG    1       24.590 -32.509   9.713  0.00  0.00    +0.011 C 
ATOM      4  C   LIG    1       24.429 -32.700   8.176  0.00  0.00    +0.089 C 
ATOM      5  N   LIG    1       24.588 -31.477   7.381  0.00  0.00    -0.293 NA
ATOM      6  C   LIG    1       24.743 -30.252   8.191  0.00  0.00    +0.104 C 
ATOM      7  C   LIG    1       24.795 -29.070   7.289  0.00  0.00    +0.038 C 
ATOM      8  C   LIG    1       25.178 -29.103   5.966  0.00  0.00    -0.016 C 
ATOM      9  C   LIG    1       25.204 -27.768   5.497  0.00  0.00    +0.003 C 
ATOM     10  C   LIG    1       24.836 -26.945   6.565  0.00  0.00    +0.051 C 
ATOM     11  C   LIG    1       24.776 -25.548   6.456  0.00  0.00    +0.072 C 
ATOM     12  C   LIG    1       25.123 -24.978   5.225  0.00  0.00    +0.122 C 
ATOM     13  C   LIG    1       25.459 -25.787   4.140  0.00  0.00    +0.046 C 
ATOM     14  C   LIG    1       25.511 -27.177   4.263  0.00  0.00    +0.014 C 
ATOM     15  C   LIG    1       25.480 -30.393   5.279  0.00  0.00    +0.053 C 
ATOM     16  N   LIG    1       24.588 -27.766   7.644  0.00  0.00    -0.356 NA
ATOM     17  H   LIG    1       24.316 -27.438   8.559  0.00  0.00    +0.166 HD
ATOM     18  C   LIG    1       25.595 -31.559   6.303  0.00  0.00    +0.090 C 
ATOM     19  C   LIG    1       24.337 -33.824  10.473  0.00  0.00    +0.052 C 
ATOM     20  C   LIG    1       23.733 -33.693  11.887  0.00  0.00    +0.206 C 
ATOM     21  C   LIG    1       23.595 -30.215   9.190  0.00  0.00    +0.030 C 
ATOM     22  C   LIG    1       22.459 -32.831  11.912  0.00  0.00    +0.172 C 
ENDROOT
BRANCH   1  23
ATOM     23  C   LIG    1       21.869 -30.460  11.598  0.00  0.00    +0.313 C 
ATOM     24  O   LIG    1       22.507 -29.454  11.879  0.00  0.00    -0.250 OA
BRANCH  23  26
ATOM     25  C   LIG    1       20.120 -30.072  13.123  0.00  0.00    +0.280 C 
ATOM     26  O   LIG    1       20.553 -30.656  11.893  0.00  0.00    -0.468 OA
ENDBRANCH  23  26
ENDBRANCH   1  23
BRANCH  12  27
ATOM     27  O   LIG    1       25.075 -23.607   5.166  0.00  0.00    -0.495 OA
ATOM     28  C   LIG    1       24.267 -23.002   6.175  0.00  0.00    +0.277 C 
ENDBRANCH  12  27
BRANCH  22  29
ATOM     29  O   LIG    1       21.362 -33.734  11.635  0.00  0.00    -0.375 OA
ATOM     30  C   LIG    1       20.831 -33.602  10.322  0.00  0.00    +0.194 C 
ENDBRANCH  22  29
BRANCH  20  31
ATOM     31  O   LIG    1       24.743 -33.239  12.812  0.00  0.00    -0.455 OA
BRANCH  31  32
ATOM     32  C   LIG    1       24.264 -32.597  13.926  0.00  0.00    +0.340 C 
ATOM     33  O   LIG    1       23.587 -33.073  14.808  0.00  0.00    -0.245 OA
BRANCH  32  34
ATOM     34  C   LIG    1       24.893 -31.241  13.990  0.00  0.00    +0.066 A 
ATOM     35  C   LIG    1       26.013 -30.947  13.200  0.00  0.00    +0.064 A 
ATOM     36  C   LIG    1       26.539 -29.643  13.173  0.00  0.00    +0.166 A 
ATOM     37  C   LIG    1       25.932 -28.629  13.946  0.00  0.00    +0.203 A 
ATOM     38  C   LIG    1       24.817 -28.951  14.758  0.00  0.00    +0.166 A 
ATOM     39  C   LIG    1       24.328 -30.258  14.784  0.00  0.00    +0.064 A 
BRANCH  36  40
ATOM     40  O   LIG    1       27.680 -29.333  12.475  0.00  0.00    -0.491 OA
ATOM     41  C   LIG    1       27.671 -29.581  11.073  0.00  0.00    +0.277 C 
ENDBRANCH  36  40
BRANCH  37  42
ATOM     42  O   LIG    1       26.356 -27.321  14.029  0.00  0.00    -0.488 OA
ATOM     43  C   LIG    1       26.025 -26.448  12.955  0.00  0.00    +0.277 C 
ENDBRANCH  37  42
BRANCH  38  44
ATOM     44  O   LIG    1       24.252 -27.938  15.496  0.00  0.00    -0.491 OA
ATOM     45  C   LIG    1       23.007 -27.415  15.036  0.00  0.00    +0.277 C 
ENDBRANCH  38  44
ENDBRANCH  32  34
ENDBRANCH  31  32
ENDBRANCH  20  31
TORSDOF 10
ENDMDL
MODEL 2
REMARK VINA RESULT:      -4.7      3.121      8.476
REMARK  Name = *****
REMARK                            x       y       z     vdW  Elec       q    Type
REMARK                         _______ _______ _______ _____ _____    ______ ____
ROOT
ATOM      1  C   LIG    1       26.009 -27.656  14.837  0.00  0.00    +0.133 C 
ATOM      2  C   LIG    1       25.001 -28.450  13.999  0.00  0.00    +0.012 C 
ATOM      3  C   LIG    1       25.435 -29.899  13.693  0.00  0.00    +0.011 C 
ATOM      4  C   LIG    1       24.802 -30.948  14.655  0.00  0.00    +0.089 C 
ATOM      5  N   LIG    1       23.358 -30.801  14.867  0.00  0.00    -0.293 NA
ATOM      6  C   LIG    1       22.778 -29.602  14.231  0.00  0.00    +0.104 C 
ATOM      7  C   LIG    1       21.338 -29.502  14.592  0.00  0.00    +0.038 C 
ATOM      8  C   LIG    1       20.544 -30.562  14.972  0.00  0.00    -0.016 C 
ATOM      9  C   LIG    1       19.223 -30.074  15.116  0.00  0.00    +0.003 C 
ATOM     10  C   LIG    1       19.248 -28.710  14.810  0.00  0.00    +0.051 C 
ATOM     11  C   LIG    1       18.096 -27.910  14.832  0.00  0.00    +0.072 C 
ATOM     12  C   LIG    1       16.883 -28.529  15.156  0.00  0.00    +0.122 C 
ATOM     13  C   LIG    1       16.847 -29.882  15.497  0.00  0.00    +0.046 C 
ATOM     14  C   LIG    1       18.003 -30.665  15.474  0.00  0.00    +0.014 C 
ATOM     15  C   LIG    1       21.114 -31.927  15.160  0.00  0.00    +0.053 C 
ATOM     16  N   LIG    1       20.551 -28.388  14.499  0.00  0.00    -0.356 NA
ATOM     17  H   LIG    1       20.860 -27.466  14.223  0.00  0.00    +0.166 HD
ATOM     18  C   LIG    1       22.560 -32.015  14.592  0.00  0.00    +0.090 C 
ATOM     19  C   LIG    1       26.959 -30.082  13.585  0.00  0.00    +0.052 C 
ATOM     20  C   LIG    1       27.787 -28.803  13.338  0.00  0.00    +0.206 C 
ATOM     21  C   LIG    1       23.608 -28.404  14.670  0.00  0.00    +0.030 C 
ATOM     22  C   LIG    1       27.471 -27.686  14.349  0.00  0.00    +0.172 C 
ENDROOT
BRANCH   1  23
ATOM     23  C   LIG    1       25.584 -26.191  14.868  0.00  0.00    +0.313 C 
ATOM     24  O   LIG    1       24.532 -25.781  15.339  0.00  0.00    -0.250 OA
BRANCH  23  26
ATOM     25  C   LIG    1       26.569 -24.058  14.751  0.00  0.00    +0.280 C 
ATOM     26  O   LIG    1       26.533 -25.408  14.283  0.00  0.00    -0.468 OA
ENDBRANCH  23  26
ENDBRANCH   1  23
BRANCH  12  27
ATOM     27  O   LIG    1       15.775 -27.718  15.144  0.00  0.00    -0.495 OA
ATOM     28  C   LIG    1       16.043 -26.352  15.459  0.00  0.00    +0.277 C 
ENDBRANCH  12  27
BRANCH  22  29
ATOM     29  O   LIG    1       28.347 -27.915  15.480  0.00  0.00    -0.375 OA
ATOM     30  C   LIG    1       29.623 -28.427  15.119  0.00  0.00    +0.194 C 
ENDBRANCH  22  29
BRANCH  20  31
ATOM     31  O   LIG    1       27.642 -28.382  11.965  0.00  0.00    -0.455 OA
BRANCH  31  32
ATOM     32  C   LIG    1       27.952 -29.336  11.030  0.00  0.00    +0.340 C 
ATOM     33  O   LIG    1       28.917 -30.065  11.023  0.00  0.00    -0.245 OA
BRANCH  32  34
ATOM     34  C   LIG    1       26.782 -29.483  10.108  0.00  0.00    +0.066 A 
ATOM     35  C   LIG    1       26.584 -28.562   9.071  0.00  0.00    +0.064 A 
ATOM     36  C   LIG    1       25.551 -28.758   8.136  0.00  0.00    +0.166 A 
ATOM     37  C   LIG    1       24.716 -29.891   8.246  0.00  0.00    +0.203 A 
ATOM     38  C   LIG    1       24.915 -30.798   9.316  0.00  0.00    +0.166 A 
ATOM     39  C   LIG    1       25.933 -30.567  10.243  0.00  0.00    +0.064 A 
BRANCH  36  40
ATOM     40  O   LIG    1       25.276 -27.840   7.153  0.00  0.00    -0.491 OA
ATOM     41  C   LIG    1       26.137 -26.711   7.058  0.00  0.00    +0.277 C 
ENDBRANCH  36  40
BRANCH  37  42
ATOM     42  O   LIG    1       23.659 -30.192   7.416  0.00  0.00    -0.488 OA
ATOM     43  C   LIG    1       23.952 -30.817   6.171  0.00  0.00    +0.277 C 
ENDBRANCH  37  42
BRANCH  38  44
ATOM     44  O   LIG    1       24.083 -31.889   9.391  0.00  0.00    -0.491 OA
ATOM     45  C   LIG    1       23.052 -31.854  10.376  0.00  0.00    +0.277 C 
ENDBRANCH  38  44
ENDBRANCH  32  34
ENDBRANCH  31  32
ENDBRANCH  20  31
TORSDOF 10
ENDMDL
MODEL 3
REMARK VINA RESULT:      -4.6      0.706      1.993
REMARK  Name = *****
REMARK                            x       y       z     vdW  Elec       q    Type
REMARK                         _______ _______ _______ _____ _____    ______ ____
ROOT
ATOM      1  C   LIG    1       22.845 -31.675  11.121  0.00  0.00    +0.133 C 
ATOM      2  C   LIG    1       24.161 -31.291  10.436  0.00  0.00    +0.012 C 
ATOM      3  C   LIG    1       24.981 -32.493   9.921  0.00  0.00    +0.011 C 
ATOM      4  C   LIG    1       24.776 -32.773   8.403  0.00  0.00    +0.089 C 
ATOM      5  N   LIG    1       24.864 -31.591   7.538  0.00  0.00    -0.293 NA
ATOM      6  C   LIG    1       25.002 -30.319   8.275  0.00  0.00    +0.104 C 
ATOM      7  C   LIG    1       24.982 -29.186   7.310  0.00  0.00    +0.038 C 
ATOM      8  C   LIG    1       25.321 -29.279   5.978  0.00  0.00    -0.016 C 
ATOM      9  C   LIG    1       25.283 -27.972   5.437  0.00  0.00    +0.003 C 
ATOM     10  C   LIG    1       24.922 -27.104   6.472  0.00  0.00    +0.051 C 
ATOM     11  C   LIG    1       24.808 -25.718   6.290  0.00  0.00    +0.072 C 
ATOM     12  C   LIG    1       25.094 -25.205   5.019  0.00  0.00    +0.122 C 
ATOM     13  C   LIG    1       25.422 -26.061   3.967  0.00  0.00    +0.046 C 
ATOM     14  C   LIG    1       25.528 -27.439   4.163  0.00  0.00    +0.014 C 
ATOM     15  C   LIG    1       25.646 -30.594   5.351  0.00  0.00    +0.053 C 
ATOM     16  N   LIG    1       24.740 -27.873   7.601  0.00  0.00    -0.356 NA
ATOM     17  H   LIG    1       24.487 -27.504   8.507  0.00  0.00    +0.166 HD
ATOM     18  C   LIG    1       25.838 -31.697   6.431  0.00  0.00    +0.090 C 
ATOM     19  C   LIG    1       24.801 -33.772  10.758  0.00  0.00    +0.052 C 
ATOM     20  C   LIG    1       24.240 -33.584  12.183  0.00  0.00    +0.206 C 
ATOM     21  C   LIG    1       23.888 -30.266   9.310  0.00  0.00    +0.030 C 
ATOM     22  C   LIG    1       22.938 -32.765  12.207  0.00  0.00    +0.172 C 
ENDROOT
BRANCH   1  23
ATOM     23  C   LIG    1       22.252 -30.437  11.788  0.00  0.00    +0.313 C 
ATOM     24  O   LIG    1       22.867 -29.402  12.006  0.00  0.00    -0.250 OA
BRANCH  23  26
ATOM     25  C   LIG    1       20.394 -29.700  13.028  0.00  0.00    +0.280 C 
ATOM     26  O   LIG    1       20.949 -30.654  12.120  0.00  0.00    -0.468 OA
ENDBRANCH  23  26
ENDBRANCH   1  23
BRANCH  12  27
ATOM     27  O   LIG    1       24.994 -23.842   4.888  0.00  0.00    -0.495 OA
ATOM     28  C   LIG    1       25.038 -23.127   6.123  0.00  0.00    +0.277 C 
ENDBRANCH  12  27
BRANCH  22  29
ATOM     29  O   LIG    1       21.865 -33.720  12.018  0.00  0.00    -0.375 OA
ATOM     30  C   LIG    1       20.947 -33.770  13.103  0.00  0.00    +0.194 C 
ENDBRANCH  22  29
BRANCH  20  31
ATOM     31  O   LIG    1       25.263 -33.046  13.047  0.00  0.00    -0.455 OA
BRANCH  31  32
ATOM     32  C   LIG    1       24.808 -32.518  14.228  0.00  0.00    +0.340 C 
ATOM     33  O   LIG    1       24.324 -33.120  15.159  0.00  0.00    -0.245 OA
BRANCH  32  34
ATOM     34  C   LIG    1       25.198 -31.074  14.276  0.00  0.00    +0.066 A 
ATOM     35  C   LIG    1       24.339 -30.132  14.859  0.00  0.00    +0.064 A 
ATOM     36  C   LIG    1       24.749 -28.794  15.006  0.00  0.00    +0.166 A 
ATOM     37  C   LIG    1       26.031 -28.404  14.562  0.00  0.00    +0.203 A 
ATOM     38  C   LIG    1       26.875 -29.364  13.951  0.00  0.00    +0.166 A 
ATOM     39  C   LIG    1       26.436 -30.680  13.798  0.00  0.00    +0.064 A 
BRANCH  36  40
ATOM     40  O   LIG    1       23.909 -27.827  15.500  0.00  0.00    -0.491 OA
ATOM     41  C   LIG    1       22.542 -27.893  15.112  0.00  0.00    +0.277 C 
ENDBRANCH  36  40
BRANCH  37  42
ATOM     42  O   LIG    1       26.548 -27.129  14.624  0.00  0.00    -0.488 OA
ATOM     43  C   LIG    1       26.137 -26.200  13.628  0.00  0.00    +0.277 C 
ENDBRANCH  37  42
BRANCH  38  44
ATOM     44  O   LIG    1       28.116 -28.948  13.533  0.00  0.00    -0.491 OA
ATOM     45  C   LIG    1       28.703 -29.650  12.439  0.00  0.00    +0.277 C 
ENDBRANCH  38  44
ENDBRANCH  32  34
ENDBRANCH  31  32
ENDBRANCH  20  31
TORSDOF 10
ENDMDL
MODEL 4
REMARK VINA RESULT:      -4.5      3.169      8.537
REMARK  Name = *****
REMARK                            x       y       z     vdW  Elec       q    Type
REMARK                         _______ _______ _______ _____ _____    ______ ____
ROOT
ATOM      1  C   LIG    1       26.004 -27.406  14.789  0.00  0.00    +0.133 C 
ATOM      2  C   LIG    1       25.047 -28.303  13.998  0.00  0.00    +0.012 C 
ATOM      3  C   LIG    1       25.542 -29.755  13.819  0.00  0.00    +0.011 C 
ATOM      4  C   LIG    1       24.926 -30.746  14.850  0.00  0.00    +0.089 C 
ATOM      5  N   LIG    1       23.473 -30.640  15.019  0.00  0.00    -0.293 NA
ATOM      6  C   LIG    1       22.864 -29.520  14.276  0.00  0.00    +0.104 C 
ATOM      7  C   LIG    1       21.413 -29.448  14.597  0.00  0.00    +0.038 C 
ATOM      8  C   LIG    1       20.650 -30.504  15.045  0.00  0.00    -0.016 C 
ATOM      9  C   LIG    1       19.309 -30.059  15.121  0.00  0.00    +0.003 C 
ATOM     10  C   LIG    1       19.290 -28.724  14.706  0.00  0.00    +0.051 C 
ATOM     11  C   LIG    1       18.109 -27.971  14.639  0.00  0.00    +0.072 C 
ATOM     12  C   LIG    1       16.912 -28.609  14.986  0.00  0.00    +0.122 C 
ATOM     13  C   LIG    1       16.918 -29.930  15.436  0.00  0.00    +0.046 C 
ATOM     14  C   LIG    1       18.103 -30.666  15.500  0.00  0.00    +0.014 C 
ATOM     15  C   LIG    1       21.267 -31.827  15.356  0.00  0.00    +0.053 C 
ATOM     16  N   LIG    1       20.587 -28.376  14.397  0.00  0.00    -0.356 NA
ATOM     17  H   LIG    1       20.868 -27.469  14.054  0.00  0.00    +0.166 HD
ATOM     18  C   LIG    1       22.728 -31.902  14.827  0.00  0.00    +0.090 C 
ATOM     19  C   LIG    1       27.074 -29.886  13.759  0.00  0.00    +0.052 C 
ATOM     20  C   LIG    1       27.859 -28.599  13.427  0.00  0.00    +0.206 C 
ATOM     21  C   LIG    1       23.638 -28.259  14.633  0.00  0.00    +0.030 C 
ATOM     22  C   LIG    1       27.477 -27.418  14.336  0.00  0.00    +0.172 C 
ENDROOT
BRANCH   1  23
ATOM     23  C   LIG    1       25.524 -25.961  14.693  0.00  0.00    +0.313 C 
ATOM     24  O   LIG    1       24.602 -25.579  13.984  0.00  0.00    -0.250 OA
BRANCH  23  26
ATOM     25  C   LIG    1       25.962 -23.764  15.409  0.00  0.00    +0.280 C 
ATOM     26  O   LIG    1       26.277 -25.155  15.492  0.00  0.00    -0.468 OA
ENDBRANCH  23  26
ENDBRANCH   1  23
BRANCH  12  27
ATOM     27  O   LIG    1       15.775 -27.845  14.885  0.00  0.00    -0.495 OA
ATOM     28  C   LIG    1       16.011 -26.482  14.533  0.00  0.00    +0.277 C 
ENDBRANCH  12  27
BRANCH  22  29
ATOM     29  O   LIG    1       28.333 -27.520  15.500  0.00  0.00    -0.375 OA
ATOM     30  C   LIG    1       29.524 -26.749  15.402  0.00  0.00    +0.194 C 
ENDBRANCH  22  29
BRANCH  20  31
ATOM     31  O   LIG    1       27.731 -28.295  12.021  0.00  0.00    -0.455 OA
BRANCH  31  32
ATOM     32  C   LIG    1       28.229 -29.252  11.173  0.00  0.00    +0.340 C 
ATOM     33  O   LIG    1       29.281 -29.839  11.272  0.00  0.00    -0.245 OA
BRANCH  32  34
ATOM     34  C   LIG    1       27.153 -29.617  10.199  0.00  0.00    +0.066 A 
ATOM     35  C   LIG    1       26.591 -30.900  10.220  0.00  0.00    +0.064 A 
ATOM     36  C   LIG    1       25.504 -31.213   9.382  0.00  0.00    +0.166 A 
ATOM     37  C   LIG    1       24.982 -30.224   8.519  0.00  0.00    +0.203 A 
ATOM     38  C   LIG    1       25.580 -28.940   8.493  0.00  0.00    +0.166 A 
ATOM     39  C   LIG    1       26.671 -28.664   9.319  0.00  0.00    +0.064 A 
BRANCH  36  40
ATOM     40  O   LIG    1       24.977 -32.478   9.317  0.00  0.00    -0.491 OA
ATOM     41  C   LIG    1       25.675 -33.510  10.005  0.00  0.00    +0.277 C 
ENDBRANCH  36  40
BRANCH  37  42
ATOM     42  O   LIG    1       23.941 -30.401   7.635  0.00  0.00    -0.488 OA
ATOM     43  C   LIG    1       24.210 -31.104   6.428  0.00  0.00    +0.277 C 
ENDBRANCH  37  42
BRANCH  38  44
ATOM     44  O   LIG    1       25.044 -28.005   7.642  0.00  0.00    -0.491 OA
ATOM     45  C   LIG    1       25.945 -27.333   6.763  0.00  0.00    +0.277 C 
ENDBRANCH  38  44
ENDBRANCH  32  34
ENDBRANCH  31  32
ENDBRANCH  20  31
TORSDOF 10
ENDMDL
MODEL 5
REMARK VINA RESULT:      -4.4      1.787      3.191
REMARK  Name = *****
REMARK                            x       y       z     vdW  Elec       q    Type
REMARK                         _______ _______ _______ _____ _____    ______ ____
ROOT
ATOM      1  C   LIG    1       23.494 -31.281   8.530  0.00  0.00    +0.133 C 
ATOM      2  C   LIG    1       24.627 -30.283   8.272  0.00  0.00    +0.012 C 
ATOM      3  C   LIG    1       25.799 -30.854   7.446  0.00  0.00    +0.011 C 
ATOM      4  C   LIG    1       25.721 -30.491   5.934  0.00  0.00    +0.089 C 
ATOM      5  N   LIG    1       25.438 -29.080   5.650  0.00  0.00    -0.293 NA
ATOM      6  C   LIG    1       25.147 -28.274   6.852  0.00  0.00    +0.104 C 
ATOM      7  C   LIG    1       24.779 -26.892   6.441  0.00  0.00    +0.038 C 
ATOM      8  C   LIG    1       25.153 -26.296   5.256  0.00  0.00    -0.016 C 
ATOM      9  C   LIG    1       24.705 -24.953   5.296  0.00  0.00    +0.003 C 
ATOM     10  C   LIG    1       24.067 -24.764   6.524  0.00  0.00    +0.051 C 
ATOM     11  C   LIG    1       23.515 -23.533   6.908  0.00  0.00    +0.072 C 
ATOM     12  C   LIG    1       23.642 -22.460   6.016  0.00  0.00    +0.122 C 
ATOM     13  C   LIG    1       24.246 -22.642   4.772  0.00  0.00    +0.046 C 
ATOM     14  C   LIG    1       24.787 -23.875   4.403  0.00  0.00    +0.014 C 
ATOM     15  C   LIG    1       25.894 -27.055   4.207  0.00  0.00    +0.053 C 
ATOM     16  N   LIG    1       24.122 -25.964   7.200  0.00  0.00    -0.356 NA
ATOM     17  H   LIG    1       23.749 -26.114   8.126  0.00  0.00    +0.166 HD
ATOM     18  C   LIG    1       26.413 -28.414   4.760  0.00  0.00    +0.090 C 
ATOM     19  C   LIG    1       26.027 -32.362   7.651  0.00  0.00    +0.052 C 
ATOM     20  C   LIG    1       25.411 -32.981   8.925  0.00  0.00    +0.206 C 
ATOM     21  C   LIG    1       24.057 -28.994   7.634  0.00  0.00    +0.030 C 
ATOM     22  C   LIG    1       23.914 -32.660   9.078  0.00  0.00    +0.172 C 
ENDROOT
BRANCH   1  23
ATOM     23  C   LIG    1       22.523 -30.681   9.542  0.00  0.00    +0.313 C 
ATOM     24  O   LIG    1       22.783 -29.744  10.285  0.00  0.00    -0.250 OA
BRANCH  23  26
ATOM     25  C   LIG    1       20.449 -31.040  10.592  0.00  0.00    +0.280 C 
ATOM     26  O   LIG    1       21.335 -31.346   9.513  0.00  0.00    -0.468 OA
ENDBRANCH  23  26
ENDBRANCH   1  23
BRANCH  12  27
ATOM     27  O   LIG    1       23.111 -21.266   6.437  0.00  0.00    -0.495 OA
ATOM     28  C   LIG    1       22.904 -20.314   5.394  0.00  0.00    +0.277 C 
ENDBRANCH  12  27
BRANCH  22  29
ATOM     29  O   LIG    1       23.209 -33.697   8.353  0.00  0.00    -0.375 OA
ATOM     30  C   LIG    1       22.915 -33.352   7.005  0.00  0.00    +0.194 C 
ENDBRANCH  22  29
BRANCH  20  31
ATOM     31  O   LIG    1       26.192 -32.606  10.079  0.00  0.00    -0.455 OA
BRANCH  31  32
ATOM     32  C   LIG    1       25.563 -32.777  11.286  0.00  0.00    +0.340 C 
ATOM     33  O   LIG    1       25.314 -33.824  11.838  0.00  0.00    -0.245 OA
BRANCH  32  34
ATOM     34  C   LIG    1       25.411 -31.434  11.928  0.00  0.00    +0.066 A 
ATOM     35  C   LIG    1       24.728 -31.309  13.145  0.00  0.00    +0.064 A 
ATOM     36  C   LIG    1       24.679 -30.068  13.807  0.00  0.00    +0.166 A 
ATOM     37  C   LIG    1       25.323 -28.948  13.238  0.00  0.00    +0.203 A 
ATOM     38  C   LIG    1       25.986 -29.087  11.994  0.00  0.00    +0.166 A 
ATOM     39  C   LIG    1       26.001 -30.324  11.348  0.00  0.00    +0.064 A 
BRANCH  36  40
ATOM     40  O   LIG    1       23.955 -29.887  14.960  0.00  0.00    -0.491 OA
ATOM     41  C   LIG    1       22.541 -29.799  14.832  0.00  0.00    +0.277 C 
ENDBRANCH  36  40
BRANCH  37  42
ATOM     42  O   LIG    1       25.334 -27.676  13.766  0.00  0.00    -0.488 OA
ATOM     43  C   LIG    1       24.240 -26.821  13.456  0.00  0.00    +0.277 C 
ENDBRANCH  37  42
BRANCH  38  44
ATOM     44  O   LIG    1       26.602 -27.976  11.472  0.00  0.00    -0.491 OA
ATOM     45  C   LIG    1       26.891 -27.988  10.075  0.00  0.00    +0.277 C 
ENDBRANCH  38  44
ENDBRANCH  32  34
ENDBRANCH  31  32
ENDBRANCH  20  31
TORSDOF 10
ENDMDL
MODEL 6
REMARK VINA RESULT:      -4.3      1.594      2.303
REMARK  Name = *****
REMARK                            x       y       z     vdW  Elec       q    Type
REMARK                         _______ _______ _______ _____ _____    ______ ____
ROOT
ATOM      1  C   LIG    1       23.375 -31.294   9.060  0.00  0.00    +0.133 C 
ATOM      2  C   LIG    1       24.555 -30.399   8.668  0.00  0.00    +0.012 C 
ATOM      3  C   LIG    1       25.647 -31.115   7.844  0.00  0.00    +0.011 C 
ATOM      4  C   LIG    1       25.518 -30.875   6.311  0.00  0.00    +0.089 C 
ATOM      5  N   LIG    1       25.312 -29.477   5.918  0.00  0.00    -0.293 NA
ATOM      6  C   LIG    1       25.130 -28.555   7.057  0.00  0.00    +0.104 C 
ATOM      7  C   LIG    1       24.832 -27.191   6.544  0.00  0.00    +0.038 C 
ATOM      8  C   LIG    1       25.183 -26.723   5.297  0.00  0.00    -0.016 C 
ATOM      9  C   LIG    1       24.824 -25.355   5.239  0.00  0.00    +0.003 C 
ATOM     10  C   LIG    1       24.260 -25.021   6.473  0.00  0.00    +0.051 C 
ATOM     11  C   LIG    1       23.807 -23.727   6.772  0.00  0.00    +0.072 C 
ATOM     12  C   LIG    1       23.957 -22.745   5.786  0.00  0.00    +0.122 C 
ATOM     13  C   LIG    1       24.487 -23.070   4.537  0.00  0.00    +0.046 C 
ATOM     14  C   LIG    1       24.930 -24.363   4.253  0.00  0.00    +0.014 C 
ATOM     15  C   LIG    1       25.823 -27.615   4.287  0.00  0.00    +0.053 C 
ATOM     16  N   LIG    1       24.272 -26.161   7.247  0.00  0.00    -0.356 NA
ATOM     17  H   LIG    1       23.936 -26.208   8.199  0.00  0.00    +0.166 HD
ATOM     18  C   LIG    1       26.281 -28.955   4.933  0.00  0.00    +0.090 C 
ATOM     19  C   LIG    1       25.789 -32.612   8.169  0.00  0.00    +0.052 C 
ATOM     20  C   LIG    1       25.198 -33.079   9.517  0.00  0.00    +0.206 C 
ATOM     21  C   LIG    1       24.037 -29.133   7.945  0.00  0.00    +0.030 C 
ATOM     22  C   LIG    1       23.734 -32.647   9.706  0.00  0.00    +0.172 C 
ENDROOT
BRANCH   1  23
ATOM     23  C   LIG    1       22.494 -30.547  10.057  0.00  0.00    +0.313 C 
ATOM     24  O   LIG    1       22.911 -29.787  10.920  0.00  0.00    -0.250 OA
BRANCH  23  26
ATOM     25  C   LIG    1       20.477 -31.250  11.040  0.00  0.00    +0.280 C 
ATOM     26  O   LIG    1       21.183 -30.861   9.861  0.00  0.00    -0.468 OA
ENDBRANCH  23  26
ENDBRANCH   1  23
BRANCH  12  27
ATOM     27  O   LIG    1       23.523 -21.486   6.124  0.00  0.00    -0.495 OA
ATOM     28  C   LIG    1       23.573 -21.203   7.522  0.00  0.00    +0.277 C 
ENDBRANCH  12  27
BRANCH  22  29
ATOM     29  O   LIG    1       22.930 -33.691   9.106  0.00  0.00    -0.375 OA
ATOM     30  C   LIG    1       22.533 -33.409   7.770  0.00  0.00    +0.194 C 
ENDBRANCH  22  29
BRANCH  20  31
ATOM     31  O   LIG    1       26.057 -32.663  10.600  0.00  0.00    -0.455 OA
BRANCH  31  32
ATOM     32  C   LIG    1       25.515 -32.795  11.854  0.00  0.00    +0.340 C 
ATOM     33  O   LIG    1       25.278 -33.825  12.442  0.00  0.00    -0.245 OA
BRANCH  32  34
ATOM     34  C   LIG    1       25.452 -31.437  12.480  0.00  0.00    +0.066 A 
ATOM     35  C   LIG    1       26.158 -30.368  11.912  0.00  0.00    +0.064 A 
ATOM     36  C   LIG    1       26.014 -29.068  12.432  0.00  0.00    +0.166 A 
ATOM     37  C   LIG    1       25.153 -28.846  13.529  0.00  0.00    +0.203 A 
ATOM     38  C   LIG    1       24.469 -29.944  14.107  0.00  0.00    +0.166 A 
ATOM     39  C   LIG    1       24.646 -31.227  13.586  0.00  0.00    +0.064 A 
BRANCH  36  40
ATOM     40  O   LIG    1       26.745 -28.009  11.955  0.00  0.00    -0.491 OA
ATOM     41  C   LIG    1       26.817 -27.853  10.542  0.00  0.00    +0.277 C 
ENDBRANCH  36  40
BRANCH  37  42
ATOM     42  O   LIG    1       24.937 -27.635  14.148  0.00  0.00    -0.488 OA
ATOM     43  C   LIG    1       23.931 -26.785  13.607  0.00  0.00    +0.277 C 
ENDBRANCH  37  42
BRANCH  38  44
ATOM     44  O   LIG    1       23.640 -29.690  15.172  0.00  0.00    -0.491 OA
ATOM     45  C   LIG    1       22.312 -30.206  15.101  0.00  0.00    +0.277 C 
ENDBRANCH  38  44
ENDBRANCH  32  34
ENDBRANCH  31  32
ENDBRANCH  20  31
TORSDOF 10
ENDMDL
MODEL 7
REMARK VINA RESULT:      -4.0      3.207      8.674
REMARK  Name = *****
REMARK                            x       y       z     vdW  Elec       q    Type
REMARK                         _______ _______ _______ _____ _____    ______ ____
ROOT
ATOM      1  C   LIG    1       25.385 -27.914  14.649  0.00  0.00    +0.133 C 
ATOM      2  C   LIG    1       24.861 -29.150  13.910  0.00  0.00    +0.012 C 
ATOM      3  C   LIG    1       25.860 -30.325  13.852  0.00  0.00    +0.011 C 
ATOM      4  C   LIG    1       25.603 -31.406  14.944  0.00  0.00    +0.089 C 
ATOM      5  N   LIG    1       24.205 -31.832  15.076  0.00  0.00    -0.293 NA
ATOM      6  C   LIG    1       23.263 -31.064  14.237  0.00  0.00    +0.104 C 
ATOM      7  C   LIG    1       21.873 -31.511  14.524  0.00  0.00    +0.038 C 
ATOM      8  C   LIG    1       21.531 -32.743  15.036  0.00  0.00    -0.016 C 
ATOM      9  C   LIG    1       20.117 -32.819  15.052  0.00  0.00    +0.003 C 
ATOM     10  C   LIG    1       19.631 -31.614  14.536  0.00  0.00    +0.051 C 
ATOM     11  C   LIG    1       18.260 -31.354  14.389  0.00  0.00    +0.072 C 
ATOM     12  C   LIG    1       17.365 -32.365  14.760  0.00  0.00    +0.122 C 
ATOM     13  C   LIG    1       17.833 -33.559  15.309  0.00  0.00    +0.046 C 
ATOM     14  C   LIG    1       19.201 -33.802  15.453  0.00  0.00    +0.014 C 
ATOM     15  C   LIG    1       22.573 -33.723  15.459  0.00  0.00    +0.053 C 
ATOM     16  N   LIG    1       20.723 -30.834  14.227  0.00  0.00    -0.356 NA
ATOM     17  H   LIG    1       20.668 -29.911  13.821  0.00  0.00    +0.166 HD
ATOM     18  C   LIG    1       23.983 -33.289  14.965  0.00  0.00    +0.090 C 
ATOM     19  C   LIG    1       27.335 -29.886  13.832  0.00  0.00    +0.052 C 
ATOM     20  C   LIG    1       27.609 -28.425  13.418  0.00  0.00    +0.206 C 
ATOM     21  C   LIG    1       23.505 -29.587  14.512  0.00  0.00    +0.030 C 
ATOM     22  C   LIG    1       26.781 -27.412  14.227  0.00  0.00    +0.172 C 
ENDROOT
BRANCH   1  23
ATOM     23  C   LIG    1       24.415 -26.757  14.433  0.00  0.00    +0.313 C 
ATOM     24  O   LIG    1       24.304 -25.793  15.179  0.00  0.00    -0.250 OA
BRANCH  23  26
ATOM     25  C   LIG    1       22.364 -26.400  13.338  0.00  0.00    +0.280 C 
ATOM     26  O   LIG    1       23.679 -26.958  13.304  0.00  0.00    -0.468 OA
ENDBRANCH  23  26
ENDBRANCH   1  23
BRANCH  12  27
ATOM     27  O   LIG    1       16.034 -32.082  14.579  0.00  0.00    -0.495 OA
ATOM     28  C   LIG    1       15.780 -30.835  13.932  0.00  0.00    +0.277 C 
ENDBRANCH  12  27
BRANCH  22  29
ATOM     29  O   LIG    1       27.560 -27.117  15.411  0.00  0.00    -0.375 OA
ATOM     30  C   LIG    1       28.751 -26.388  15.144  0.00  0.00    +0.194 C 
ENDBRANCH  22  29
BRANCH  20  31
ATOM     31  O   LIG    1       27.444 -28.280  11.991  0.00  0.00    -0.455 OA
BRANCH  31  32
ATOM     32  C   LIG    1       28.079 -29.232  11.234  0.00  0.00    +0.340 C 
ATOM     33  O   LIG    1       29.144 -29.757  11.464  0.00  0.00    -0.245 OA
BRANCH  32  34
ATOM     34  C   LIG    1       27.136 -29.682  10.163  0.00  0.00    +0.066 A 
ATOM     35  C   LIG    1       26.443 -28.737   9.394  0.00  0.00    +0.064 A 
ATOM     36  C   LIG    1       25.641 -29.151   8.315  0.00  0.00    +0.166 A 
ATOM     37  C   LIG    1       25.539 -30.526   8.008  0.00  0.00    +0.203 A 
ATOM     38  C   LIG    1       26.226 -31.468   8.813  0.00  0.00    +0.166 A 
ATOM     39  C   LIG    1       26.997 -31.032   9.891  0.00  0.00    +0.064 A 
BRANCH  36  40
ATOM     40  O   LIG    1       24.886 -28.265   7.588  0.00  0.00    -0.491 OA
ATOM     41  C   LIG    1       25.583 -27.363   6.735  0.00  0.00    +0.277 C 
ENDBRANCH  36  40
BRANCH  37  42
ATOM     42  O   LIG    1       24.776 -31.068   6.998  0.00  0.00    -0.488 OA
ATOM     43  C   LIG    1       25.122 -30.739   5.658  0.00  0.00    +0.277 C 
ENDBRANCH  37  42
BRANCH  38  44
ATOM     44  O   LIG    1       26.104 -32.797   8.484  0.00  0.00    -0.491 OA
ATOM     45  C   LIG    1       25.396 -33.631   9.399  0.00  0.00    +0.277 C 
ENDBRANCH  38  44
ENDBRANCH  32  34
ENDBRANCH  31  32
ENDBRANCH  20  31
TORSDOF 10
ENDMDL
MODEL 8
REMARK VINA RESULT:      -4.0      2.769      7.062
REMARK  Name = *****
REMARK                            x       y       z     vdW  Elec       q    Type
REMARK                         _______ _______ _______ _____ _____    ______ ____
ROOT
ATOM      1  C   LIG    1       25.610 -29.491   7.524  0.00  0.00    +0.133 C 
ATOM      2  C   LIG    1       25.313 -29.652   9.018  0.00  0.00    +0.012 C 
ATOM      3  C   LIG    1       25.605 -31.062   9.574  0.00  0.00    +0.011 C 
ATOM      4  C   LIG    1       26.988 -31.171  10.281  0.00  0.00    +0.089 C 
ATOM      5  N   LIG    1       27.283 -30.094  11.233  0.00  0.00    -0.293 NA
ATOM      6  C   LIG    1       26.269 -29.021  11.257  0.00  0.00    +0.104 C 
ATOM      7  C   LIG    1       26.716 -27.942  12.178  0.00  0.00    +0.038 C 
ATOM      8  C   LIG    1       27.601 -28.110  13.221  0.00  0.00    -0.016 C 
ATOM      9  C   LIG    1       27.675 -26.881  13.919  0.00  0.00    +0.003 C 
ATOM     10  C   LIG    1       26.817 -25.985  13.275  0.00  0.00    +0.051 C 
ATOM     11  C   LIG    1       26.629 -24.668  13.718  0.00  0.00    +0.072 C 
ATOM     12  C   LIG    1       27.323 -24.265  14.865  0.00  0.00    +0.122 C 
ATOM     13  C   LIG    1       28.210 -25.136  15.499  0.00  0.00    +0.046 C 
ATOM     14  C   LIG    1       28.388 -26.444  15.044  0.00  0.00    +0.014 C 
ATOM     15  C   LIG    1       28.285 -29.416  13.452  0.00  0.00    +0.053 C 
ATOM     16  N   LIG    1       26.249 -26.657  12.214  0.00  0.00    -0.356 NA
ATOM     17  H   LIG    1       25.574 -26.255  11.580  0.00  0.00    +0.166 HD
ATOM     18  C   LIG    1       27.645 -30.544  12.594  0.00  0.00    +0.090 C 
ATOM     19  C   LIG    1       25.410 -32.188   8.544  0.00  0.00    +0.052 C 
ATOM     20  C   LIG    1       24.548 -31.846   7.310  0.00  0.00    +0.206 C 
ATOM     21  C   LIG    1       26.056 -28.560   9.822  0.00  0.00    +0.030 C 
ATOM     22  C   LIG    1       25.016 -30.568   6.593  0.00  0.00    +0.172 C 
ENDROOT
BRANCH   1  23
ATOM     23  C   LIG    1       25.063 -28.148   7.050  0.00  0.00    +0.313 C 
ATOM     24  O   LIG    1       23.875 -27.868   6.972  0.00  0.00    -0.250 OA
BRANCH  23  26
ATOM     25  C   LIG    1       26.121 -26.939   5.332  0.00  0.00    +0.280 C 
ATOM     26  O   LIG    1       26.084 -27.312   6.711  0.00  0.00    -0.468 OA
ENDBRANCH  23  26
ENDBRANCH   1  23
BRANCH  12  27
ATOM     27  O   LIG    1       27.095 -22.976  15.281  0.00  0.00    -0.495 OA
ATOM     28  C   LIG    1       25.720 -22.592  15.280  0.00  0.00    +0.277 C 
ENDBRANCH  12  27
BRANCH  22  29
ATOM     29  O   LIG    1       26.027 -30.990   5.646  0.00  0.00    -0.375 OA
ATOM     30  C   LIG    1       25.539 -31.880   4.650  0.00  0.00    +0.194 C 
ENDBRANCH  22  29
BRANCH  20  31
ATOM     31  O   LIG    1       23.153 -31.810   7.680  0.00  0.00    -0.455 OA
BRANCH  31  32
ATOM     32  C   LIG    1       22.783 -32.719   8.639  0.00  0.00    +0.340 C 
ATOM     33  O   LIG    1       23.248 -33.821   8.818  0.00  0.00    -0.245 OA
BRANCH  32  34
ATOM     34  C   LIG    1       21.839 -32.043   9.583  0.00  0.00    +0.066 A 
ATOM     35  C   LIG    1       20.544 -32.548   9.763  0.00  0.00    +0.064 A 
ATOM     36  C   LIG    1       19.691 -31.984  10.730  0.00  0.00    +0.166 A 
ATOM     37  C   LIG    1       20.147 -30.906  11.519  0.00  0.00    +0.203 A 
ATOM     38  C   LIG    1       21.450 -30.392  11.304  0.00  0.00    +0.166 A 
ATOM     39  C   LIG    1       22.268 -30.955  10.324  0.00  0.00    +0.064 A 
BRANCH  36  40
ATOM     40  O   LIG    1       18.391 -32.399  10.883  0.00  0.00    -0.491 OA
ATOM     41  C   LIG    1       17.968 -33.512  10.104  0.00  0.00    +0.277 C 
ENDBRANCH  36  40
BRANCH  37  42
ATOM     42  O   LIG    1       19.413 -30.249  12.481  0.00  0.00    -0.488 OA
ATOM     43  C   LIG    1       18.843 -31.029  13.526  0.00  0.00    +0.277 C 
ENDBRANCH  37  42
BRANCH  38  44
ATOM     44  O   LIG    1       21.859 -29.343  12.091  0.00  0.00    -0.491 OA
ATOM     45  C   LIG    1       23.014 -29.550  12.902  0.00  0.00    +0.277 C 
ENDBRANCH  38  44
ENDBRANCH  32  34
ENDBRANCH  31  32
ENDBRANCH  20  31
TORSDOF 10
ENDMDL
MODEL 9
REMARK VINA RESULT:      -4.0      2.795      7.061
REMARK  Name = *****
REMARK                            x       y       z     vdW  Elec       q    Type
REMARK                         _______ _______ _______ _____ _____    ______ ____
ROOT
ATOM      1  C   LIG    1       25.663 -29.234   7.269  0.00  0.00    +0.133 C 
ATOM      2  C   LIG    1       25.428 -29.496   8.760  0.00  0.00    +0.012 C 
ATOM      3  C   LIG    1       25.820 -30.916   9.223  0.00  0.00    +0.011 C 
ATOM      4  C   LIG    1       27.230 -30.983   9.878  0.00  0.00    +0.089 C 
ATOM      5  N   LIG    1       27.497 -29.947  10.882  0.00  0.00    -0.293 NA
ATOM      6  C   LIG    1       26.425 -28.939  11.001  0.00  0.00    +0.104 C 
ATOM      7  C   LIG    1       26.842 -27.888  11.969  0.00  0.00    +0.038 C 
ATOM      8  C   LIG    1       27.770 -28.063  12.971  0.00  0.00    -0.016 C 
ATOM      9  C   LIG    1       27.799 -26.873  13.737  0.00  0.00    +0.003 C 
ATOM     10  C   LIG    1       26.869 -25.995  13.174  0.00  0.00    +0.051 C 
ATOM     11  C   LIG    1       26.622 -24.717  13.700  0.00  0.00    +0.072 C 
ATOM     12  C   LIG    1       27.333 -24.340  14.846  0.00  0.00    +0.122 C 
ATOM     13  C   LIG    1       28.289 -25.192  15.400  0.00  0.00    +0.046 C 
ATOM     14  C   LIG    1       28.525 -26.459  14.863  0.00  0.00    +0.014 C 
ATOM     15  C   LIG    1       28.536 -29.337  13.104  0.00  0.00    +0.053 C 
ATOM     16  N   LIG    1       26.304 -26.638  12.094  0.00  0.00    -0.356 NA
ATOM     17  H   LIG    1       25.585 -26.241  11.507  0.00  0.00    +0.166 HD
ATOM     18  C   LIG    1       27.931 -30.451  12.202  0.00  0.00    +0.090 C 
ATOM     19  C   LIG    1       25.653 -31.992   8.135  0.00  0.00    +0.052 C 
ATOM     20  C   LIG    1       24.730 -31.632   6.951  0.00  0.00    +0.206 C 
ATOM     21  C   LIG    1       26.136 -28.410   9.603  0.00  0.00    +0.030 C 
ATOM     22  C   LIG    1       25.099 -30.289   6.297  0.00  0.00    +0.172 C 
ENDROOT
BRANCH   1  23
ATOM     23  C   LIG    1       25.025 -27.901   6.893  0.00  0.00    +0.313 C 
ATOM     24  O   LIG    1       23.823 -27.673   6.916  0.00  0.00    -0.250 OA
BRANCH  23  26
ATOM     25  C   LIG    1       25.743 -25.661   6.926  0.00  0.00    +0.280 C 
ATOM     26  O   LIG    1       25.980 -27.007   6.511  0.00  0.00    -0.468 OA
ENDBRANCH  23  26
ENDBRANCH   1  23
BRANCH  12  27
ATOM     27  O   LIG    1       27.046 -23.093  15.344  0.00  0.00    -0.495 OA
ATOM     28  C   LIG    1       25.687 -22.689  15.174  0.00  0.00    +0.277 C 
ENDBRANCH  12  27
BRANCH  22  29
ATOM     29  O   LIG    1       26.099 -30.597   5.295  0.00  0.00    -0.375 OA
ATOM     30  C   LIG    1       25.868 -31.827   4.617  0.00  0.00    +0.194 C 
ENDBRANCH  22  29
BRANCH  20  31
ATOM     31  O   LIG    1       23.350 -31.699   7.367  0.00  0.00    -0.455 OA
BRANCH  31  32
ATOM     32  C   LIG    1       23.055 -32.714   8.242  0.00  0.00    +0.340 C 
ATOM     33  O   LIG    1       23.575 -33.804   8.297  0.00  0.00    -0.245 OA
BRANCH  32  34
ATOM     34  C   LIG    1       22.114 -32.180   9.276  0.00  0.00    +0.066 A 
ATOM     35  C   LIG    1       22.461 -31.047  10.025  0.00  0.00    +0.064 A 
ATOM     36  C   LIG    1       21.536 -30.477  10.918  0.00  0.00    +0.166 A 
ATOM     37  C   LIG    1       20.254 -31.052  11.056  0.00  0.00    +0.203 A 
ATOM     38  C   LIG    1       19.930 -32.212  10.310  0.00  0.00    +0.166 A 
ATOM     39  C   LIG    1       20.874 -32.771   9.447  0.00  0.00    +0.064 A 
BRANCH  36  40
ATOM     40  O   LIG    1       21.864 -29.416  11.726  0.00  0.00    -0.491 OA
ATOM     41  C   LIG    1       23.128 -29.462  12.378  0.00  0.00    +0.277 C 
ENDBRANCH  36  40
BRANCH  37  42
ATOM     42  O   LIG    1       19.264 -30.610  11.906  0.00  0.00    -0.488 OA
ATOM     43  C   LIG    1       19.441 -30.834  13.300  0.00  0.00    +0.277 C 
ENDBRANCH  37  42
BRANCH  38  44
ATOM     44  O   LIG    1       18.673 -32.742  10.470  0.00  0.00    -0.491 OA
ATOM     45  C   LIG    1       17.901 -32.954   9.289  0.00  0.00    +0.277 C 
ENDBRANCH  38  44
ENDBRANCH  32  34
ENDBRANCH  31  32
ENDBRANCH  20  31
TORSDOF 10
ENDMDL
