MODEL 1
REMARK VINA RESULT:      -1.8      0.000      0.000
REMARK  Name = *****
REMARK                            x       y       z     vdW  Elec       q    Type
REMARK                         _______ _______ _______ _____ _____    ______ ____
ROOT
ATOM      1  C   LIG    1       23.690 -19.481   4.510  0.00  0.00    +0.021 C 
ATOM      2  C   LIG    1       23.841 -17.949   4.258  0.00  0.00    -0.033 A 
ATOM      3  C   LIG    1       25.083 -17.586   3.665  0.00  0.00    -0.036 A 
ATOM      4  C   LIG    1       25.410 -16.255   3.425  0.00  0.00    +0.004 A 
ATOM      5  C   LIG    1       24.483 -15.266   3.751  0.00  0.00    +0.000 A 
ATOM      6  C   LIG    1       23.242 -15.613   4.301  0.00  0.00    +0.000 A 
ATOM      7  C   LIG    1       25.988 -18.769   3.350  0.00  0.00    +0.050 C 
ATOM      8  C   LIG    1       26.177 -19.557   4.636  0.00  0.00    -0.036 A 
ATOM      9  C   LIG    1       27.418 -19.892   5.174  0.00  0.00    +0.004 A 
ATOM     10  C   LIG    1       27.461 -20.578   6.381  0.00  0.00    +0.000 A 
ATOM     11  C   LIG    1       26.275 -20.893   7.059  0.00  0.00    +0.000 A 
ATOM     12  C   LIG    1       25.026 -20.547   6.523  0.00  0.00    +0.005 A 
ATOM     13  C   LIG    1       25.184 -19.683   2.404  0.00  0.00    +0.014 C 
ATOM     14  C   LIG    1       22.918 -16.950   4.560  0.00  0.00    +0.005 A 
ATOM     15  C   LIG    1       24.960 -19.913   5.291  0.00  0.00    -0.033 A 
ATOM     16  C   LIG    1       23.850 -20.116   3.081  0.00  0.00    +0.017 C 
ENDROOT
BRANCH   1  17
ATOM     17  C   LIG    1       22.316 -19.868   5.138  0.00  0.00    +0.017 C 
BRANCH  17  18
ATOM     18  C   LIG    1       21.392 -20.803   4.325  0.00  0.00    +0.016 C 
BRANCH  18  19
ATOM     19  C   LIG    1       20.098 -20.078   3.901  0.00  0.00    +0.080 C 
BRANCH  19  21
ATOM     20  C   LIG    1       19.371 -18.217   2.538  0.00  0.00    +0.101 C 
ATOM     21  N   LIG    1       20.377 -18.702   3.479  0.00  0.00    -0.319 NA
ATOM     22  H   LIG    1       20.394 -18.085   4.291  0.00  0.00    +0.122 HD
ENDBRANCH  19  21
ENDBRANCH  18  19
ENDBRANCH  17  18
ENDBRANCH   1  17
TORSDOF 4
ENDMDL
