MODEL 1
REMARK VINA RESULT:      -4.2      0.000      0.000
REMARK  Name = *****
REMARK                            x       y       z     vdW  Elec       q    Type
REMARK                         _______ _______ _______ _____ _____    ______ ____
ROOT
ATOM      1  C   LIG    1       27.504 -20.277   6.070  0.00  0.00    +0.036 A 
ATOM      2  N   LIG    1       27.028 -20.018   4.808  0.00  0.00    -0.348 N 
ATOM      3  H   LIG    1       27.605 -19.750   4.016  0.00  0.00    +0.167 HD
ATOM      4  C   LIG    1       25.678 -20.201   4.823  0.00  0.00    +0.196 A 
ATOM      5  N   LIG    1       25.255 -20.551   6.017  0.00  0.00    -0.244 NA
ATOM      6  C   LIG    1       26.380 -20.598   6.801  0.00  0.00    +0.133 A 
ENDROOT
BRANCH   1   7
ATOM      7  C   LIG    1       28.945 -20.166   6.437  0.00  0.00    +0.069 C 
BRANCH   7   8
ATOM      8  C   LIG    1       29.472 -18.721   6.488  0.00  0.00    +0.084 C 
BRANCH   8   9
ATOM      9  N   LIG    1       29.439 -18.052   5.177  0.00  0.00    -0.330 NA
ATOM     10  H   LIG    1       29.671 -18.735   4.454  0.00  0.00    +0.118 HD
ATOM     11  H   LIG    1       28.476 -17.769   4.984  0.00  0.00    +0.118 HD
ENDBRANCH   8   9
ENDBRANCH   7   8
ENDBRANCH   1   7
TORSDOF 3
ENDMDL
MODEL 2
REMARK VINA RESULT:      -3.9      1.574      3.212
REMARK  Name = *****
REMARK                            x       y       z     vdW  Elec       q    Type
REMARK                         _______ _______ _______ _____ _____    ______ ____
ROOT
ATOM      1  C   LIG    1       26.054 -20.193   5.083  0.00  0.00    +0.036 A 
ATOM      2  N   LIG    1       27.397 -19.937   4.951  0.00  0.00    -0.348 N 
ATOM      3  H   LIG    1       27.846 -19.630   4.093  0.00  0.00    +0.167 HD
ATOM      4  C   LIG    1       27.986 -20.154   6.160  0.00  0.00    +0.196 A 
ATOM      5  N   LIG    1       27.109 -20.543   7.058  0.00  0.00    -0.244 NA
ATOM      6  C   LIG    1       25.905 -20.574   6.399  0.00  0.00    +0.133 A 
ENDROOT
BRANCH   1   7
ATOM      7  C   LIG    1       25.086 -20.073   3.954  0.00  0.00    +0.069 C 
BRANCH   7   8
ATOM      8  C   LIG    1       24.815 -18.625   3.508  0.00  0.00    +0.084 C 
BRANCH   8   9
ATOM      9  N   LIG    1       26.043 -17.892   3.162  0.00  0.00    -0.330 NA
ATOM     10  H   LIG    1       26.791 -18.190   3.790  0.00  0.00    +0.118 HD
ATOM     11  H   LIG    1       26.340 -18.184   2.228  0.00  0.00    +0.118 HD
ENDBRANCH   8   9
ENDBRANCH   7   8
ENDBRANCH   1   7
TORSDOF 3
ENDMDL
MODEL 3
REMARK VINA RESULT:      -3.9      6.889      7.398
REMARK  Name = *****
REMARK                            x       y       z     vdW  Elec       q    Type
REMARK                         _______ _______ _______ _____ _____    ______ ____
ROOT
ATOM      1  C   LIG    1       25.278 -13.750   3.259  0.00  0.00    +0.036 A 
ATOM      2  N   LIG    1       25.246 -13.046   2.080  0.00  0.00    -0.348 N 
ATOM      3  H   LIG    1       25.784 -13.282   1.251  0.00  0.00    +0.167 HD
ATOM      4  C   LIG    1       24.368 -12.015   2.230  0.00  0.00    +0.196 A 
ATOM      5  N   LIG    1       23.842 -12.005   3.434  0.00  0.00    -0.244 NA
ATOM      6  C   LIG    1       24.402 -13.076   4.084  0.00  0.00    +0.133 A 
ENDROOT
BRANCH   1   7
ATOM      7  C   LIG    1       26.143 -14.946   3.472  0.00  0.00    +0.069 C 
BRANCH   7   8
ATOM      8  C   LIG    1       27.587 -14.613   3.887  0.00  0.00    +0.084 C 
BRANCH   8   9
ATOM      9  N   LIG    1       28.118 -13.420   3.208  0.00  0.00    -0.330 NA
ATOM     10  H   LIG    1       27.668 -12.591   3.601  0.00  0.00    +0.118 HD
ATOM     11  H   LIG    1       29.108 -13.328   3.444  0.00  0.00    +0.118 HD
ENDBRANCH   8   9
ENDBRANCH   7   8
ENDBRANCH   1   7
TORSDOF 3
ENDMDL
MODEL 4
REMARK VINA RESULT:      -3.8      6.729      7.175
REMARK  Name = *****
REMARK                            x       y       z     vdW  Elec       q    Type
REMARK                         _______ _______ _______ _____ _____    ______ ____
ROOT
ATOM      1  C   LIG    1       26.503 -13.582   3.634  0.00  0.00    +0.036 A 
ATOM      2  N   LIG    1       25.680 -13.321   4.702  0.00  0.00    -0.348 N 
ATOM      3  H   LIG    1       25.973 -13.332   5.675  0.00  0.00    +0.167 HD
ATOM      4  C   LIG    1       24.439 -13.036   4.216  0.00  0.00    +0.196 A 
ATOM      5  N   LIG    1       24.410 -13.108   2.905  0.00  0.00    -0.244 NA
ATOM      6  C   LIG    1       25.685 -13.450   2.532  0.00  0.00    +0.133 A 
ENDROOT
BRANCH   1   7
ATOM      7  C   LIG    1       27.941 -13.947   3.783  0.00  0.00    +0.069 C 
BRANCH   7   8
ATOM      8  C   LIG    1       28.877 -12.744   3.998  0.00  0.00    +0.084 C 
BRANCH   8   9
ATOM      9  N   LIG    1       28.723 -12.128   5.326  0.00  0.00    -0.330 NA
ATOM     10  H   LIG    1       27.816 -11.660   5.367  0.00  0.00    +0.118 HD
ATOM     11  H   LIG    1       28.676 -12.874   6.024  0.00  0.00    +0.118 HD
ENDBRANCH   8   9
ENDBRANCH   7   8
ENDBRANCH   1   7
TORSDOF 3
ENDMDL
MODEL 5
REMARK VINA RESULT:      -3.8      1.682      2.042
REMARK  Name = *****
REMARK                            x       y       z     vdW  Elec       q    Type
REMARK                         _______ _______ _______ _____ _____    ______ ____
ROOT
ATOM      1  C   LIG    1       25.922 -20.457   5.737  0.00  0.00    +0.036 A 
ATOM      2  N   LIG    1       26.211 -20.085   4.446  0.00  0.00    -0.348 N 
ATOM      3  H   LIG    1       27.140 -19.858   4.104  0.00  0.00    +0.167 HD
ATOM      4  C   LIG    1       25.048 -20.097   3.736  0.00  0.00    +0.196 A 
ATOM      5  N   LIG    1       24.029 -20.443   4.490  0.00  0.00    -0.244 NA
ATOM      6  C   LIG    1       24.559 -20.665   5.736  0.00  0.00    +0.133 A 
ENDROOT
BRANCH   1   7
ATOM      7  C   LIG    1       26.953 -20.544   6.810  0.00  0.00    +0.069 C 
BRANCH   7   8
ATOM      8  C   LIG    1       28.378 -20.201   6.344  0.00  0.00    +0.084 C 
BRANCH   8   9
ATOM      9  N   LIG    1       29.390 -21.142   6.852  0.00  0.00    -0.330 NA
ATOM     10  H   LIG    1       29.352 -21.144   7.873  0.00  0.00    +0.118 HD
ATOM     11  H   LIG    1       29.123 -22.087   6.569  0.00  0.00    +0.118 HD
ENDBRANCH   8   9
ENDBRANCH   7   8
ENDBRANCH   1   7
TORSDOF 3
ENDMDL
MODEL 6
REMARK VINA RESULT:      -3.7      2.164      3.252
REMARK  Name = *****
REMARK                            x       y       z     vdW  Elec       q    Type
REMARK                         _______ _______ _______ _____ _____    ______ ____
ROOT
ATOM      1  C   LIG    1       24.262 -20.429   5.339  0.00  0.00    +0.036 A 
ATOM      2  N   LIG    1       24.417 -19.678   4.199  0.00  0.00    -0.348 N 
ATOM      3  H   LIG    1       25.266 -19.641   3.643  0.00  0.00    +0.167 HD
ATOM      4  C   LIG    1       23.243 -19.029   3.962  0.00  0.00    +0.196 A 
ATOM      5  N   LIG    1       22.347 -19.306   4.882  0.00  0.00    -0.244 NA
ATOM      6  C   LIG    1       22.969 -20.173   5.745  0.00  0.00    +0.133 A 
ENDROOT
BRANCH   1   7
ATOM      7  C   LIG    1       25.350 -21.270   5.916  0.00  0.00    +0.069 C 
BRANCH   7   8
ATOM      8  C   LIG    1       26.631 -20.491   6.261  0.00  0.00    +0.084 C 
BRANCH   8   9
ATOM      9  N   LIG    1       27.380 -20.061   5.068  0.00  0.00    -0.330 NA
ATOM     10  H   LIG    1       28.214 -19.554   5.370  0.00  0.00    +0.118 HD
ATOM     11  H   LIG    1       27.726 -20.893   4.587  0.00  0.00    +0.118 HD
ENDBRANCH   8   9
ENDBRANCH   7   8
ENDBRANCH   1   7
TORSDOF 3
ENDMDL
MODEL 7
REMARK VINA RESULT:      -3.7      1.742      4.305
REMARK  Name = *****
REMARK                            x       y       z     vdW  Elec       q    Type
REMARK                         _______ _______ _______ _____ _____    ______ ____
ROOT
ATOM      1  C   LIG    1       25.573 -20.426   5.193  0.00  0.00    +0.036 A 
ATOM      2  N   LIG    1       26.851 -20.087   4.821  0.00  0.00    -0.348 N 
ATOM      3  H   LIG    1       27.136 -19.858   3.873  0.00  0.00    +0.167 HD
ATOM      4  C   LIG    1       27.631 -20.101   5.938  0.00  0.00    +0.196 A 
ATOM      5  N   LIG    1       26.937 -20.437   7.002  0.00  0.00    -0.244 NA
ATOM      6  C   LIG    1       25.658 -20.645   6.551  0.00  0.00    +0.133 A 
ENDROOT
BRANCH   1   7
ATOM      7  C   LIG    1       24.442 -20.527   4.226  0.00  0.00    +0.069 C 
BRANCH   7   8
ATOM      8  C   LIG    1       23.068 -20.184   4.826  0.00  0.00    +0.084 C 
BRANCH   8   9
ATOM      9  N   LIG    1       22.228 -21.371   5.053  0.00  0.00    -0.330 NA
ATOM     10  H   LIG    1       22.109 -21.501   6.060  0.00  0.00    +0.118 HD
ATOM     11  H   LIG    1       21.291 -21.177   4.692  0.00  0.00    +0.118 HD
ENDBRANCH   8   9
ENDBRANCH   7   8
ENDBRANCH   1   7
TORSDOF 3
ENDMDL
MODEL 8
REMARK VINA RESULT:      -3.7      7.002      7.905
REMARK  Name = *****
REMARK                            x       y       z     vdW  Elec       q    Type
REMARK                         _______ _______ _______ _____ _____    ______ ____
ROOT
ATOM      1  C   LIG    1       25.522 -13.469   3.867  0.00  0.00    +0.036 A 
ATOM      2  N   LIG    1       26.076 -13.754   2.644  0.00  0.00    -0.348 N 
ATOM      3  H   LIG    1       25.585 -13.690   1.757  0.00  0.00    +0.167 HD
ATOM      4  C   LIG    1       27.375 -14.112   2.845  0.00  0.00    +0.196 A 
ATOM      5  N   LIG    1       27.688 -14.085   4.121  0.00  0.00    -0.244 NA
ATOM      6  C   LIG    1       26.543 -13.690   4.766  0.00  0.00    +0.133 A 
ENDROOT
BRANCH   1   7
ATOM      7  C   LIG    1       24.101 -13.052   4.041  0.00  0.00    +0.069 C 
BRANCH   7   8
ATOM      8  C   LIG    1       23.773 -11.670   3.448  0.00  0.00    +0.084 C 
BRANCH   8   9
ATOM      9  N   LIG    1       23.959 -11.613   1.989  0.00  0.00    -0.330 NA
ATOM     10  H   LIG    1       24.272 -12.530   1.663  0.00  0.00    +0.118 HD
ATOM     11  H   LIG    1       23.047 -11.467   1.553  0.00  0.00    +0.118 HD
ENDBRANCH   8   9
ENDBRANCH   7   8
ENDBRANCH   1   7
TORSDOF 3
ENDMDL
MODEL 9
REMARK VINA RESULT:      -3.7      1.619      3.556
REMARK  Name = *****
REMARK                            x       y       z     vdW  Elec       q    Type
REMARK                         _______ _______ _______ _____ _____    ______ ____
ROOT
ATOM      1  C   LIG    1       26.054 -20.474   5.783  0.00  0.00    +0.036 A 
ATOM      2  N   LIG    1       27.095 -20.063   4.986  0.00  0.00    -0.348 N 
ATOM      3  H   LIG    1       27.035 -19.927   3.981  0.00  0.00    +0.167 HD
ATOM      4  C   LIG    1       28.181 -19.865   5.784  0.00  0.00    +0.196 A 
ATOM      5  N   LIG    1       27.908 -20.133   7.041  0.00  0.00    -0.244 NA
ATOM      6  C   LIG    1       26.590 -20.516   7.052  0.00  0.00    +0.133 A 
ENDROOT
BRANCH   1   7
ATOM      7  C   LIG    1       24.700 -20.801   5.251  0.00  0.00    +0.069 C 
BRANCH   7   8
ATOM      8  C   LIG    1       24.484 -20.392   3.784  0.00  0.00    +0.084 C 
BRANCH   8   9
ATOM      9  N   LIG    1       24.423 -18.933   3.598  0.00  0.00    -0.330 NA
ATOM     10  H   LIG    1       24.646 -18.717   2.624  0.00  0.00    +0.118 HD
ATOM     11  H   LIG    1       23.456 -18.631   3.728  0.00  0.00    +0.118 HD
ENDBRANCH   8   9
ENDBRANCH   7   8
ENDBRANCH   1   7
TORSDOF 3
ENDMDL
