MODEL 1
REMARK VINA RESULT:      -6.6      0.000      0.000
REMARK  Name = *****
REMARK                            x       y       z     vdW  Elec       q    Type
REMARK                         _______ _______ _______ _____ _____    ______ ____
ROOT
ATOM      1  C   LIG    1       23.829 -14.403   4.864  0.00  0.00    -0.027 C 
ATOM      2  C   LIG    1       23.921 -13.200   4.276  0.00  0.00    -0.027 C 
ENDROOT
BRANCH   1   3
ATOM      3  C   LIG    1       23.615 -15.775   4.310  0.00  0.00    +0.054 C 
BRANCH   3   5
ATOM      4  C   LIG    1       22.072 -17.788   4.678  0.00  0.00    -0.027 C 
ATOM      5  C   LIG    1       22.339 -16.470   4.679  0.00  0.00    -0.027 C 
BRANCH   4   6
ATOM      6  C   LIG    1       23.008 -18.926   4.382  0.00  0.00    +0.054 C 
BRANCH   6   8
ATOM      7  C   LIG    1       22.642 -21.006   5.816  0.00  0.00    -0.027 C 
ATOM      8  C   LIG    1       22.431 -20.274   4.705  0.00  0.00    -0.027 C 
BRANCH   7   9
ATOM      9  C   LIG    1       23.498 -20.617   6.999  0.00  0.00    +0.054 C 
BRANCH   9  11
ATOM     10  C   LIG    1       25.931 -21.206   6.413  0.00  0.00    -0.031 C 
ATOM     11  C   LIG    1       24.772 -21.414   7.062  0.00  0.00    -0.027 C 
BRANCH  10  13
ATOM     12  C   LIG    1       27.805 -19.786   5.569  0.00  0.00    +0.008 C 
ATOM     13  C   LIG    1       26.324 -20.119   5.451  0.00  0.00    +0.023 C 
ENDBRANCH  10  13
ENDBRANCH   9  11
ENDBRANCH   7   9
ENDBRANCH   6   8
ENDBRANCH   4   6
ENDBRANCH   3   5
ENDBRANCH   1   3
BRANCH   2  14
ATOM     14  C   LIG    1       23.779 -12.811   2.831  0.00  0.00    +0.054 C 
BRANCH  14  15
ATOM     15  C   LIG    1       25.114 -12.349   2.309  0.00  0.00    -0.027 C 
ATOM     16  C   LIG    1       26.252 -13.047   2.175  0.00  0.00    -0.031 C 
BRANCH  16  17
ATOM     17  C   LIG    1       26.493 -14.483   2.524  0.00  0.00    +0.027 C 
BRANCH  17  18
ATOM     18  C   LIG    1       27.604 -14.656   3.568  0.00  0.00    +0.015 C 
BRANCH  18  19
ATOM     19  C   LIG    1       28.438 -13.402   3.839  0.00  0.00    +0.121 C 
BRANCH  19  20
ATOM     20  C   LIG    1       28.175 -12.786   5.183  0.00  0.00    +0.305 C 
ATOM     21  O   LIG    1       27.181 -13.043   5.881  0.00  0.00    -0.251 OA
BRANCH  20  22
ATOM     22  O   LIG    1       29.098 -11.889   5.568  0.00  0.00    -0.481 OA
ATOM     23  H   LIG    1       29.786 -11.716   4.892  0.00  0.00    +0.295 HD
ENDBRANCH  20  22
ENDBRANCH  19  20
ENDBRANCH  18  19
ENDBRANCH  17  18
ENDBRANCH  16  17
ENDBRANCH  14  15
ENDBRANCH   2  14
TORSDOF 14
ENDMDL
MODEL 2
REMARK VINA RESULT:      -6.3      1.044      2.143
REMARK  Name = *****
REMARK                            x       y       z     vdW  Elec       q    Type
REMARK                         _______ _______ _______ _____ _____    ______ ____
ROOT
ATOM      1  C   LIG    1       22.298 -16.460   4.938  0.00  0.00    -0.027 C 
ATOM      2  C   LIG    1       22.863 -15.249   4.821  0.00  0.00    -0.027 C 
ENDROOT
BRANCH   1   3
ATOM      3  C   LIG    1       22.703 -17.807   4.433  0.00  0.00    +0.054 C 
BRANCH   3   5
ATOM      4  C   LIG    1       21.597 -20.119   4.390  0.00  0.00    -0.027 C 
ATOM      5  C   LIG    1       21.607 -18.794   4.163  0.00  0.00    -0.027 C 
BRANCH   4   6
ATOM      6  C   LIG    1       22.656 -20.957   5.051  0.00  0.00    +0.054 C 
BRANCH   6   8
ATOM      7  C   LIG    1       24.239 -20.662   7.031  0.00  0.00    -0.027 C 
ATOM      8  C   LIG    1       23.071 -20.441   6.399  0.00  0.00    -0.027 C 
BRANCH   7   9
ATOM      9  C   LIG    1       25.406 -21.468   6.508  0.00  0.00    +0.054 C 
BRANCH   9  11
ATOM     10  C   LIG    1       26.675 -19.789   5.031  0.00  0.00    -0.031 C 
ATOM     11  C   LIG    1       26.560 -20.592   6.103  0.00  0.00    -0.027 C 
BRANCH  10  13
ATOM     12  C   LIG    1       25.952 -18.135   3.303  0.00  0.00    +0.008 C 
ATOM     13  C   LIG    1       25.697 -19.501   3.924  0.00  0.00    +0.023 C 
ENDBRANCH  10  13
ENDBRANCH   9  11
ENDBRANCH   7   9
ENDBRANCH   6   8
ENDBRANCH   4   6
ENDBRANCH   3   5
ENDBRANCH   1   3
BRANCH   2  14
ATOM     14  C   LIG    1       24.095 -14.819   4.074  0.00  0.00    +0.054 C 
BRANCH  14  15
ATOM     15  C   LIG    1       23.786 -13.572   3.287  0.00  0.00    -0.027 C 
ATOM     16  C   LIG    1       24.631 -12.762   2.631  0.00  0.00    -0.031 C 
BRANCH  16  17
ATOM     17  C   LIG    1       26.118 -12.885   2.517  0.00  0.00    +0.027 C 
BRANCH  17  18
ATOM     18  C   LIG    1       26.600 -14.337   2.645  0.00  0.00    +0.015 C 
BRANCH  18  19
ATOM     19  C   LIG    1       27.610 -14.586   3.766  0.00  0.00    +0.121 C 
BRANCH  19  20
ATOM     20  C   LIG    1       27.821 -13.397   4.660  0.00  0.00    +0.305 C 
ATOM     21  O   LIG    1       28.735 -12.570   4.511  0.00  0.00    -0.251 OA
BRANCH  20  22
ATOM     22  O   LIG    1       26.946 -13.311   5.676  0.00  0.00    -0.481 OA
ATOM     23  H   LIG    1       26.564 -12.416   5.794  0.00  0.00    +0.295 HD
ENDBRANCH  20  22
ENDBRANCH  19  20
ENDBRANCH  18  19
ENDBRANCH  17  18
ENDBRANCH  16  17
ENDBRANCH  14  15
ENDBRANCH   2  14
TORSDOF 14
ENDMDL
MODEL 3
REMARK VINA RESULT:      -6.2      2.437      7.133
REMARK  Name = *****
REMARK                            x       y       z     vdW  Elec       q    Type
REMARK                         _______ _______ _______ _____ _____    ______ ____
ROOT
ATOM      1  C   LIG    1       23.723 -18.689   3.841  0.00  0.00    -0.027 C 
ATOM      2  C   LIG    1       24.296 -19.898   3.940  0.00  0.00    -0.027 C 
ENDROOT
BRANCH   1   3
ATOM      3  C   LIG    1       22.305 -18.238   3.984  0.00  0.00    +0.054 C 
BRANCH   3   5
ATOM      4  C   LIG    1       22.434 -15.953   5.138  0.00  0.00    -0.027 C 
ATOM      5  C   LIG    1       22.013 -17.228   5.052  0.00  0.00    -0.027 C 
BRANCH   4   6
ATOM      6  C   LIG    1       23.246 -15.173   4.142  0.00  0.00    +0.054 C 
BRANCH   6   8
ATOM      7  C   LIG    1       24.585 -13.002   4.061  0.00  0.00    -0.027 C 
ATOM      8  C   LIG    1       23.866 -13.933   4.718  0.00  0.00    -0.027 C 
BRANCH   7   9
ATOM      9  C   LIG    1       24.910 -12.992   2.585  0.00  0.00    +0.054 C 
BRANCH   9  11
ATOM     10  C   LIG    1       27.315 -13.846   2.896  0.00  0.00    -0.031 C 
ATOM     11  C   LIG    1       26.391 -13.048   2.332  0.00  0.00    -0.027 C 
BRANCH  10  13
ATOM     12  C   LIG    1       26.471 -16.156   3.339  0.00  0.00    +0.008 C 
ATOM     13  C   LIG    1       27.161 -14.933   3.925  0.00  0.00    +0.023 C 
ENDBRANCH  10  13
ENDBRANCH   9  11
ENDBRANCH   7   9
ENDBRANCH   6   8
ENDBRANCH   4   6
ENDBRANCH   3   5
ENDBRANCH   1   3
BRANCH   2  14
ATOM     14  C   LIG    1       23.680 -21.249   4.177  0.00  0.00    +0.054 C 
BRANCH  14  15
ATOM     15  C   LIG    1       23.032 -21.266   5.537  0.00  0.00    -0.027 C 
ATOM     16  C   LIG    1       23.565 -20.947   6.725  0.00  0.00    -0.031 C 
BRANCH  16  17
ATOM     17  C   LIG    1       24.963 -20.492   7.012  0.00  0.00    +0.027 C 
BRANCH  17  18
ATOM     18  C   LIG    1       26.017 -21.514   6.564  0.00  0.00    +0.015 C 
BRANCH  18  19
ATOM     19  C   LIG    1       27.437 -21.239   7.062  0.00  0.00    +0.121 C 
BRANCH  19  20
ATOM     20  C   LIG    1       28.193 -20.261   6.208  0.00  0.00    +0.305 C 
ATOM     21  O   LIG    1       29.134 -19.564   6.620  0.00  0.00    -0.251 OA
BRANCH  20  22
ATOM     22  O   LIG    1       27.743 -20.171   4.945  0.00  0.00    -0.481 OA
ATOM     23  H   LIG    1       28.450 -20.018   4.284  0.00  0.00    +0.295 HD
ENDBRANCH  20  22
ENDBRANCH  19  20
ENDBRANCH  18  19
ENDBRANCH  17  18
ENDBRANCH  16  17
ENDBRANCH  14  15
ENDBRANCH   2  14
TORSDOF 14
ENDMDL
MODEL 4
REMARK VINA RESULT:      -6.2      2.026      7.014
REMARK  Name = *****
REMARK                            x       y       z     vdW  Elec       q    Type
REMARK                         _______ _______ _______ _____ _____    ______ ____
ROOT
ATOM      1  C   LIG    1       23.092 -18.343   3.924  0.00  0.00    -0.027 C 
ATOM      2  C   LIG    1       23.407 -19.620   4.187  0.00  0.00    -0.027 C 
ENDROOT
BRANCH   1   3
ATOM      3  C   LIG    1       21.978 -17.467   4.401  0.00  0.00    +0.054 C 
BRANCH   3   5
ATOM      4  C   LIG    1       23.014 -15.210   5.034  0.00  0.00    -0.027 C 
ATOM      5  C   LIG    1       22.341 -16.339   5.319  0.00  0.00    -0.027 C 
BRANCH   4   6
ATOM      6  C   LIG    1       23.516 -14.739   3.696  0.00  0.00    +0.054 C 
BRANCH   6   8
ATOM      7  C   LIG    1       24.909 -12.694   3.072  0.00  0.00    -0.027 C 
ATOM      8  C   LIG    1       23.849 -13.275   3.666  0.00  0.00    -0.027 C 
BRANCH   7   9
ATOM      9  C   LIG    1       25.992 -13.392   2.282  0.00  0.00    +0.054 C 
BRANCH   9  11
ATOM     10  C   LIG    1       27.890 -14.360   3.721  0.00  0.00    -0.031 C 
ATOM     11  C   LIG    1       26.701 -14.438   3.098  0.00  0.00    -0.027 C 
BRANCH  10  13
ATOM     12  C   LIG    1       28.451 -12.228   4.898  0.00  0.00    +0.008 C 
ATOM     13  C   LIG    1       28.864 -13.216   3.817  0.00  0.00    +0.023 C 
ENDBRANCH  10  13
ENDBRANCH   9  11
ENDBRANCH   7   9
ENDBRANCH   6   8
ENDBRANCH   4   6
ENDBRANCH   3   5
ENDBRANCH   1   3
BRANCH   2  14
ATOM     14  C   LIG    1       22.694 -20.644   5.026  0.00  0.00    +0.054 C 
BRANCH  14  15
ATOM     15  C   LIG    1       23.104 -20.477   6.466  0.00  0.00    -0.027 C 
ATOM     16  C   LIG    1       24.251 -20.836   7.060  0.00  0.00    -0.031 C 
BRANCH  16  17
ATOM     17  C   LIG    1       25.434 -21.513   6.439  0.00  0.00    +0.027 C 
BRANCH  17  18
ATOM     18  C   LIG    1       26.746 -20.764   6.703  0.00  0.00    +0.015 C 
BRANCH  18  19
ATOM     19  C   LIG    1       27.302 -19.993   5.505  0.00  0.00    +0.121 C 
BRANCH  19  20
ATOM     20  C   LIG    1       28.597 -19.287   5.794  0.00  0.00    +0.305 C 
ATOM     21  O   LIG    1       29.307 -19.519   6.786  0.00  0.00    -0.251 OA
BRANCH  20  22
ATOM     22  O   LIG    1       28.920 -18.341   4.896  0.00  0.00    -0.481 OA
ATOM     23  H   LIG    1       28.963 -18.669   3.974  0.00  0.00    +0.295 HD
ENDBRANCH  20  22
ENDBRANCH  19  20
ENDBRANCH  18  19
ENDBRANCH  17  18
ENDBRANCH  16  17
ENDBRANCH  14  15
ENDBRANCH   2  14
TORSDOF 14
ENDMDL
MODEL 5
REMARK VINA RESULT:      -6.2      1.668      2.657
REMARK  Name = *****
REMARK                            x       y       z     vdW  Elec       q    Type
REMARK                         _______ _______ _______ _____ _____    ______ ____
ROOT
ATOM      1  C   LIG    1       22.843 -16.579   4.812  0.00  0.00    -0.027 C 
ATOM      2  C   LIG    1       22.934 -15.252   4.634  0.00  0.00    -0.027 C 
ENDROOT
BRANCH   1   3
ATOM      3  C   LIG    1       23.441 -17.732   4.072  0.00  0.00    +0.054 C 
BRANCH   3   5
ATOM      4  C   LIG    1       22.349 -19.946   4.761  0.00  0.00    -0.027 C 
ATOM      5  C   LIG    1       22.582 -18.947   3.892  0.00  0.00    -0.027 C 
BRANCH   4   6
ATOM      6  C   LIG    1       22.827 -20.073   6.182  0.00  0.00    +0.054 C 
BRANCH   6   8
ATOM      7  C   LIG    1       24.788 -21.572   6.829  0.00  0.00    -0.027 C 
ATOM      8  C   LIG    1       23.504 -21.381   6.469  0.00  0.00    -0.027 C 
BRANCH   7   9
ATOM      9  C   LIG    1       25.830 -20.498   7.046  0.00  0.00    +0.054 C 
BRANCH   9  11
ATOM     10  C   LIG    1       27.882 -20.000   5.579  0.00  0.00    -0.031 C 
ATOM     11  C   LIG    1       26.562 -20.157   5.776  0.00  0.00    -0.027 C 
BRANCH  10  13
ATOM     12  C   LIG    1       29.475 -18.772   7.062  0.00  0.00    +0.008 C 
ATOM     13  C   LIG    1       29.031 -20.132   6.542  0.00  0.00    +0.023 C 
ENDBRANCH  10  13
ENDBRANCH   9  11
ENDBRANCH   7   9
ENDBRANCH   6   8
ENDBRANCH   4   6
ENDBRANCH   3   5
ENDBRANCH   1   3
BRANCH   2  14
ATOM     14  C   LIG    1       23.637 -14.461   3.566  0.00  0.00    +0.054 C 
BRANCH  14  15
ATOM     15  C   LIG    1       23.921 -13.074   4.084  0.00  0.00    -0.027 C 
ATOM     16  C   LIG    1       24.950 -12.652   4.834  0.00  0.00    -0.031 C 
BRANCH  16  17
ATOM     17  C   LIG    1       26.092 -13.462   5.365  0.00  0.00    +0.027 C 
BRANCH  17  18
ATOM     18  C   LIG    1       27.446 -13.006   4.807  0.00  0.00    +0.015 C 
BRANCH  18  19
ATOM     19  C   LIG    1       28.119 -13.994   3.854  0.00  0.00    +0.121 C 
BRANCH  19  20
ATOM     20  C   LIG    1       27.154 -14.707   2.950  0.00  0.00    +0.305 C 
ATOM     21  O   LIG    1       26.845 -15.904   3.071  0.00  0.00    -0.251 OA
BRANCH  20  22
ATOM     22  O   LIG    1       26.665 -13.946   1.957  0.00  0.00    -0.481 OA
ATOM     23  H   LIG    1       25.877 -14.328   1.518  0.00  0.00    +0.295 HD
ENDBRANCH  20  22
ENDBRANCH  19  20
ENDBRANCH  18  19
ENDBRANCH  17  18
ENDBRANCH  16  17
ENDBRANCH  14  15
ENDBRANCH   2  14
TORSDOF 14
ENDMDL
MODEL 6
REMARK VINA RESULT:      -6.1      1.193      2.919
REMARK  Name = *****
REMARK                            x       y       z     vdW  Elec       q    Type
REMARK                         _______ _______ _______ _____ _____    ______ ____
ROOT
ATOM      1  C   LIG    1       22.234 -17.147   4.491  0.00  0.00    -0.027 C 
ATOM      2  C   LIG    1       22.560 -15.846   4.499  0.00  0.00    -0.027 C 
ENDROOT
BRANCH   1   3
ATOM      3  C   LIG    1       23.037 -18.380   4.224  0.00  0.00    +0.054 C 
BRANCH   3   5
ATOM      4  C   LIG    1       22.733 -20.493   5.642  0.00  0.00    -0.027 C 
ATOM      5  C   LIG    1       22.422 -19.692   4.607  0.00  0.00    -0.027 C 
BRANCH   4   6
ATOM      6  C   LIG    1       23.729 -20.247   6.742  0.00  0.00    +0.054 C 
BRANCH   6   8
ATOM      7  C   LIG    1       25.904 -21.572   6.901  0.00  0.00    -0.027 C 
ATOM      8  C   LIG    1       24.572 -21.446   7.062  0.00  0.00    -0.027 C 
BRANCH   7   9
ATOM      9  C   LIG    1       26.850 -20.515   6.378  0.00  0.00    +0.054 C 
BRANCH   9  11
ATOM     10  C   LIG    1       29.363 -20.059   6.672  0.00  0.00    -0.031 C 
ATOM     11  C   LIG    1       28.289 -20.867   6.638  0.00  0.00    -0.027 C 
BRANCH  10  13
ATOM     12  C   LIG    1       28.859 -18.138   5.155  0.00  0.00    +0.008 C 
ATOM     13  C   LIG    1       29.464 -18.569   6.484  0.00  0.00    +0.023 C 
ENDBRANCH  10  13
ENDBRANCH   9  11
ENDBRANCH   7   9
ENDBRANCH   6   8
ENDBRANCH   4   6
ENDBRANCH   3   5
ENDBRANCH   1   3
BRANCH   2  14
ATOM     14  C   LIG    1       23.862 -15.168   4.175  0.00  0.00    +0.054 C 
BRANCH  14  15
ATOM     15  C   LIG    1       23.756 -13.704   4.515  0.00  0.00    -0.027 C 
ATOM     16  C   LIG    1       24.031 -12.641   3.745  0.00  0.00    -0.031 C 
BRANCH  16  17
ATOM     17  C   LIG    1       24.530 -12.634   2.334  0.00  0.00    +0.027 C 
BRANCH  17  18
ATOM     18  C   LIG    1       26.038 -12.363   2.244  0.00  0.00    +0.015 C 
BRANCH  18  19
ATOM     19  C   LIG    1       26.929 -13.586   2.467  0.00  0.00    +0.121 C 
BRANCH  19  20
ATOM     20  C   LIG    1       27.691 -13.545   3.761  0.00  0.00    +0.305 C 
ATOM     21  O   LIG    1       27.172 -13.313   4.864  0.00  0.00    -0.251 OA
BRANCH  20  22
ATOM     22  O   LIG    1       29.012 -13.751   3.628  0.00  0.00    -0.481 OA
ATOM     23  H   LIG    1       29.477 -13.034   3.148  0.00  0.00    +0.295 HD
ENDBRANCH  20  22
ENDBRANCH  19  20
ENDBRANCH  18  19
ENDBRANCH  17  18
ENDBRANCH  16  17
ENDBRANCH  14  15
ENDBRANCH   2  14
TORSDOF 14
ENDMDL
MODEL 7
REMARK VINA RESULT:      -5.7      1.794      2.007
REMARK  Name = *****
REMARK                            x       y       z     vdW  Elec       q    Type
REMARK                         _______ _______ _______ _____ _____    ______ ____
ROOT
ATOM      1  C   LIG    1       23.672 -14.404   4.821  0.00  0.00    -0.027 C 
ATOM      2  C   LIG    1       23.912 -13.152   4.405  0.00  0.00    -0.027 C 
ENDROOT
BRANCH   1   3
ATOM      3  C   LIG    1       23.174 -15.619   4.106  0.00  0.00    +0.054 C 
BRANCH   3   5
ATOM      4  C   LIG    1       22.125 -17.860   4.775  0.00  0.00    -0.027 C 
ATOM      5  C   LIG    1       22.245 -16.523   4.859  0.00  0.00    -0.027 C 
BRANCH   4   6
ATOM      6  C   LIG    1       22.949 -18.818   3.960  0.00  0.00    +0.054 C 
BRANCH   6   8
ATOM      7  C   LIG    1       22.770 -20.985   5.296  0.00  0.00    -0.027 C 
ATOM      8  C   LIG    1       22.581 -20.257   4.178  0.00  0.00    -0.027 C 
BRANCH   7   9
ATOM      9  C   LIG    1       23.379 -20.501   6.592  0.00  0.00    +0.054 C 
BRANCH   9  11
ATOM     10  C   LIG    1       25.815 -21.298   6.787  0.00  0.00    -0.031 C 
ATOM     11  C   LIG    1       24.501 -21.389   7.055  0.00  0.00    -0.027 C 
BRANCH  10  13
ATOM     12  C   LIG    1       27.993 -20.111   6.486  0.00  0.00    +0.008 C 
ATOM     13  C   LIG    1       26.572 -20.286   5.970  0.00  0.00    +0.023 C 
ENDBRANCH  10  13
ENDBRANCH   9  11
ENDBRANCH   7   9
ENDBRANCH   6   8
ENDBRANCH   4   6
ENDBRANCH   3   5
ENDBRANCH   1   3
BRANCH   2  14
ATOM     14  C   LIG    1       23.700 -12.517   3.059  0.00  0.00    +0.054 C 
BRANCH  14  15
ATOM     15  C   LIG    1       24.976 -11.843   2.624  0.00  0.00    -0.027 C 
ATOM     16  C   LIG    1       26.124 -12.402   2.214  0.00  0.00    -0.031 C 
BRANCH  16  17
ATOM     17  C   LIG    1       26.442 -13.860   2.091  0.00  0.00    +0.027 C 
BRANCH  17  18
ATOM     18  C   LIG    1       27.541 -14.307   3.064  0.00  0.00    +0.015 C 
BRANCH  18  19
ATOM     19  C   LIG    1       27.077 -15.254   4.172  0.00  0.00    +0.121 C 
BRANCH  19  20
ATOM     20  C   LIG    1       27.033 -16.695   3.750  0.00  0.00    +0.305 C 
ATOM     21  O   LIG    1       26.093 -17.204   3.119  0.00  0.00    -0.251 OA
BRANCH  20  22
ATOM     22  O   LIG    1       28.096 -17.416   4.143  0.00  0.00    -0.481 OA
ATOM     23  H   LIG    1       27.973 -18.384   4.051  0.00  0.00    +0.295 HD
ENDBRANCH  20  22
ENDBRANCH  19  20
ENDBRANCH  18  19
ENDBRANCH  17  18
ENDBRANCH  16  17
ENDBRANCH  14  15
ENDBRANCH   2  14
TORSDOF 14
ENDMDL
MODEL 8
REMARK VINA RESULT:      -5.0      2.055      4.307
REMARK  Name = *****
REMARK                            x       y       z     vdW  Elec       q    Type
REMARK                         _______ _______ _______ _____ _____    ______ ____
ROOT
ATOM      1  C   LIG    1       25.848 -17.575   3.271  0.00  0.00    -0.027 C 
ATOM      2  C   LIG    1       26.383 -16.345   3.285  0.00  0.00    -0.027 C 
ENDROOT
BRANCH   1   3
ATOM      3  C   LIG    1       26.177 -18.819   4.032  0.00  0.00    +0.054 C 
BRANCH   3   5
ATOM      4  C   LIG    1       25.071 -21.097   4.426  0.00  0.00    -0.027 C 
ATOM      5  C   LIG    1       25.449 -20.071   3.644  0.00  0.00    -0.027 C 
BRANCH   4   6
ATOM      6  C   LIG    1       25.208 -21.229   5.918  0.00  0.00    +0.054 C 
BRANCH   6   8
ATOM      7  C   LIG    1       22.805 -20.460   6.301  0.00  0.00    -0.027 C 
ATOM      8  C   LIG    1       24.093 -20.574   6.680  0.00  0.00    -0.027 C 
BRANCH   7   9
ATOM      9  C   LIG    1       22.193 -20.990   5.025  0.00  0.00    +0.054 C 
BRANCH   9  11
ATOM     10  C   LIG    1       21.501 -18.674   4.147  0.00  0.00    -0.031 C 
ATOM     11  C   LIG    1       21.286 -19.982   4.372  0.00  0.00    -0.027 C 
BRANCH  10  13
ATOM     12  C   LIG    1       22.290 -16.403   4.829  0.00  0.00    +0.008 C 
ATOM     13  C   LIG    1       22.701 -17.820   4.453  0.00  0.00    +0.023 C 
ENDBRANCH  10  13
ENDBRANCH   9  11
ENDBRANCH   7   9
ENDBRANCH   6   8
ENDBRANCH   4   6
ENDBRANCH   3   5
ENDBRANCH   1   3
BRANCH   2  14
ATOM     14  C   LIG    1       27.562 -15.806   4.046  0.00  0.00    +0.054 C 
BRANCH  14  15
ATOM     15  C   LIG    1       27.775 -14.363   3.670  0.00  0.00    -0.027 C 
ATOM     16  C   LIG    1       27.178 -13.269   4.165  0.00  0.00    -0.031 C 
BRANCH  16  17
ATOM     17  C   LIG    1       26.123 -13.199   5.226  0.00  0.00    +0.027 C 
BRANCH  17  18
ATOM     18  C   LIG    1       24.724 -13.524   4.686  0.00  0.00    +0.015 C 
BRANCH  18  19
ATOM     19  C   LIG    1       24.024 -12.368   3.968  0.00  0.00    +0.121 C 
BRANCH  19  20
ATOM     20  C   LIG    1       24.266 -12.347   2.486  0.00  0.00    +0.305 C 
ATOM     21  O   LIG    1       24.918 -11.466   1.902  0.00  0.00    -0.251 OA
BRANCH  20  22
ATOM     22  O   LIG    1       23.684 -13.357   1.819  0.00  0.00    -0.481 OA
ATOM     23  H   LIG    1       24.313 -13.912   1.314  0.00  0.00    +0.295 HD
ENDBRANCH  20  22
ENDBRANCH  19  20
ENDBRANCH  18  19
ENDBRANCH  17  18
ENDBRANCH  16  17
ENDBRANCH  14  15
ENDBRANCH   2  14
TORSDOF 14
ENDMDL
MODEL 9
REMARK VINA RESULT:      -5.0      1.943      5.667
REMARK  Name = *****
REMARK                            x       y       z     vdW  Elec       q    Type
REMARK                         _______ _______ _______ _____ _____    ______ ____
ROOT
ATOM      1  C   LIG    1       22.448 -20.529   4.823  0.00  0.00    -0.027 C 
ATOM      2  C   LIG    1       21.969 -19.282   4.699  0.00  0.00    -0.027 C 
ENDROOT
BRANCH   1   3
ATOM      3  C   LIG    1       23.815 -21.101   4.624  0.00  0.00    +0.054 C 
BRANCH   3   5
ATOM      4  C   LIG    1       26.006 -20.405   5.756  0.00  0.00    -0.027 C 
ATOM      5  C   LIG    1       24.784 -20.966   5.760  0.00  0.00    -0.027 C 
BRANCH   4   6
ATOM      6  C   LIG    1       26.697 -19.688   4.629  0.00  0.00    +0.054 C 
BRANCH   6   8
ATOM      7  C   LIG    1       25.797 -17.707   3.297  0.00  0.00    -0.027 C 
ATOM      8  C   LIG    1       25.750 -18.993   3.695  0.00  0.00    -0.027 C 
BRANCH   7   9
ATOM      9  C   LIG    1       26.834 -16.680   3.691  0.00  0.00    +0.054 C 
BRANCH   9  11
ATOM     10  C   LIG    1       27.293 -14.216   3.119  0.00  0.00    -0.031 C 
ATOM     11  C   LIG    1       26.676 -15.395   2.926  0.00  0.00    -0.027 C 
BRANCH  10  13
ATOM     12  C   LIG    1       28.702 -12.348   3.995  0.00  0.00    +0.008 C 
ATOM     13  C   LIG    1       28.333 -13.818   4.131  0.00  0.00    +0.023 C 
ENDBRANCH  10  13
ENDBRANCH   9  11
ENDBRANCH   7   9
ENDBRANCH   6   8
ENDBRANCH   4   6
ENDBRANCH   3   5
ENDBRANCH   1   3
BRANCH   2  14
ATOM     14  C   LIG    1       22.650 -18.020   4.249  0.00  0.00    +0.054 C 
BRANCH  14  15
ATOM     15  C   LIG    1       22.152 -16.866   5.081  0.00  0.00    -0.027 C 
ATOM     16  C   LIG    1       22.487 -15.569   5.005  0.00  0.00    -0.031 C 
BRANCH  16  17
ATOM     17  C   LIG    1       23.462 -14.927   4.068  0.00  0.00    +0.027 C 
BRANCH  17  18
ATOM     18  C   LIG    1       24.170 -13.718   4.694  0.00  0.00    +0.015 C 
BRANCH  18  19
ATOM     19  C   LIG    1       23.893 -12.379   4.008  0.00  0.00    +0.121 C 
BRANCH  19  20
ATOM     20  C   LIG    1       24.305 -12.348   2.564  0.00  0.00    +0.305 C 
ATOM     21  O   LIG    1       25.067 -11.497   2.078  0.00  0.00    -0.251 OA
BRANCH  20  22
ATOM     22  O   LIG    1       23.748 -13.312   1.812  0.00  0.00    -0.481 OA
ATOM     23  H   LIG    1       22.842 -13.100   1.505  0.00  0.00    +0.295 HD
ENDBRANCH  20  22
ENDBRANCH  19  20
ENDBRANCH  18  19
ENDBRANCH  17  18
ENDBRANCH  16  17
ENDBRANCH  14  15
ENDBRANCH   2  14
TORSDOF 14
ENDMDL
