MODEL 1
REMARK VINA RESULT:      -6.9      0.000      0.000
REMARK  Name = *****
REMARK                            x       y       z     vdW  Elec       q    Type
REMARK                         _______ _______ _______ _____ _____    ______ ____
ROOT
ATOM      1  O   LIG    1       27.581 -16.471   3.976  0.00  0.00    -0.244 OA
ATOM      2  C   LIG    1       26.454 -16.419   3.512  0.00  0.00    +0.348 C 
ENDROOT
BRANCH   2   3
ATOM      3  C   LIG    1       25.703 -15.151   3.363  0.00  0.00    +0.101 A 
ATOM      4  C   LIG    1       26.143 -14.086   2.570  0.00  0.00    +0.131 A 
ATOM      5  C   LIG    1       25.414 -12.897   2.523  0.00  0.00    +0.046 A 
ATOM      6  C   LIG    1       24.231 -12.777   3.255  0.00  0.00    +0.004 A 
ATOM      7  C   LIG    1       23.769 -13.844   4.025  0.00  0.00    +0.001 A 
ATOM      8  C   LIG    1       24.500 -15.030   4.077  0.00  0.00    +0.019 A 
BRANCH   4   9
ATOM      9  O   LIG    1       27.274 -14.202   1.812  0.00  0.00    -0.506 OA
ATOM     10  H   LIG    1       27.590 -13.321   1.556  0.00  0.00    +0.292 HD
ENDBRANCH   4   9
ENDBRANCH   2   3
BRANCH   2  11
ATOM     11  O   LIG    1       25.733 -17.437   2.906  0.00  0.00    -0.422 OA
BRANCH  11  12
ATOM     12  C   LIG    1       25.199 -18.518   3.634  0.00  0.00    +0.132 A 
ATOM     13  C   LIG    1       25.985 -19.469   4.277  0.00  0.00    +0.046 A 
ATOM     14  C   LIG    1       25.368 -20.497   4.990  0.00  0.00    +0.004 A 
ATOM     15  C   LIG    1       23.977 -20.553   5.078  0.00  0.00    +0.000 A 
ATOM     16  C   LIG    1       23.195 -19.580   4.453  0.00  0.00    +0.004 A 
ATOM     17  C   LIG    1       23.807 -18.556   3.732  0.00  0.00    +0.046 A 
ENDBRANCH  11  12
ENDBRANCH   2  11
TORSDOF 4
ENDMDL
MODEL 2
REMARK VINA RESULT:      -6.8      0.193      1.218
REMARK  Name = *****
REMARK                            x       y       z     vdW  Elec       q    Type
REMARK                         _______ _______ _______ _____ _____    ______ ____
ROOT
ATOM      1  O   LIG    1       27.472 -16.598   3.828  0.00  0.00    -0.244 OA
ATOM      2  C   LIG    1       26.323 -16.473   3.441  0.00  0.00    +0.348 C 
ENDROOT
BRANCH   2   3
ATOM      3  C   LIG    1       25.644 -15.160   3.343  0.00  0.00    +0.101 A 
ATOM      4  C   LIG    1       26.138 -14.094   2.584  0.00  0.00    +0.131 A 
ATOM      5  C   LIG    1       25.476 -12.865   2.586  0.00  0.00    +0.046 A 
ATOM      6  C   LIG    1       24.308 -12.705   3.332  0.00  0.00    +0.004 A 
ATOM      7  C   LIG    1       23.792 -13.771   4.069  0.00  0.00    +0.001 A 
ATOM      8  C   LIG    1       24.455 -14.998   4.072  0.00  0.00    +0.019 A 
BRANCH   4   9
ATOM      9  O   LIG    1       27.255 -14.247   1.812  0.00  0.00    -0.506 OA
ATOM     10  H   LIG    1       27.318 -15.166   1.505  0.00  0.00    +0.292 HD
ENDBRANCH   4   9
ENDBRANCH   2   3
BRANCH   2  11
ATOM     11  O   LIG    1       25.501 -17.442   2.882  0.00  0.00    -0.422 OA
BRANCH  11  12
ATOM     12  C   LIG    1       24.908 -18.461   3.652  0.00  0.00    +0.132 A 
ATOM     13  C   LIG    1       23.547 -18.511   3.937  0.00  0.00    +0.046 A 
ATOM     14  C   LIG    1       23.045 -19.568   4.695  0.00  0.00    +0.004 A 
ATOM     15  C   LIG    1       23.897 -20.580   5.138  0.00  0.00    +0.000 A 
ATOM     16  C   LIG    1       25.258 -20.538   4.826  0.00  0.00    +0.004 A 
ATOM     17  C   LIG    1       25.765 -19.478   4.077  0.00  0.00    +0.046 A 
ENDBRANCH  11  12
ENDBRANCH   2  11
TORSDOF 4
ENDMDL
MODEL 3
REMARK VINA RESULT:      -5.9      1.364      5.759
REMARK  Name = *****
REMARK                            x       y       z     vdW  Elec       q    Type
REMARK                         _______ _______ _______ _____ _____    ______ ____
ROOT
ATOM      1  O   LIG    1       26.120 -17.696   2.910  0.00  0.00    -0.244 OA
ATOM      2  C   LIG    1       25.075 -17.564   3.525  0.00  0.00    +0.348 C 
ENDROOT
BRANCH   2   3
ATOM      3  C   LIG    1       24.288 -18.714   4.028  0.00  0.00    +0.101 A 
ATOM      4  C   LIG    1       24.836 -19.981   4.255  0.00  0.00    +0.131 A 
ATOM      5  C   LIG    1       24.022 -21.033   4.674  0.00  0.00    +0.046 A 
ATOM      6  C   LIG    1       22.659 -20.817   4.886  0.00  0.00    +0.004 A 
ATOM      7  C   LIG    1       22.109 -19.550   4.692  0.00  0.00    +0.001 A 
ATOM      8  C   LIG    1       22.921 -18.499   4.268  0.00  0.00    +0.019 A 
BRANCH   4   9
ATOM      9  O   LIG    1       26.176 -20.199   4.096  0.00  0.00    -0.506 OA
ATOM     10  H   LIG    1       26.448 -19.935   3.202  0.00  0.00    +0.292 HD
ENDBRANCH   4   9
ENDBRANCH   2   3
BRANCH   2  11
ATOM     11  O   LIG    1       24.510 -16.393   4.007  0.00  0.00    -0.422 OA
BRANCH  11  12
ATOM     12  C   LIG    1       24.927 -15.121   3.569  0.00  0.00    +0.132 A 
ATOM     13  C   LIG    1       26.205 -14.859   3.084  0.00  0.00    +0.046 A 
ATOM     14  C   LIG    1       26.524 -13.571   2.656  0.00  0.00    +0.004 A 
ATOM     15  C   LIG    1       25.560 -12.563   2.687  0.00  0.00    +0.000 A 
ATOM     16  C   LIG    1       24.272 -12.838   3.149  0.00  0.00    +0.004 A 
ATOM     17  C   LIG    1       23.951 -14.122   3.587  0.00  0.00    +0.046 A 
ENDBRANCH  11  12
ENDBRANCH   2  11
TORSDOF 4
ENDMDL
MODEL 4
REMARK VINA RESULT:      -5.9      1.549      5.629
REMARK  Name = *****
REMARK                            x       y       z     vdW  Elec       q    Type
REMARK                         _______ _______ _______ _____ _____    ______ ____
ROOT
ATOM      1  O   LIG    1       26.935 -18.612   4.030  0.00  0.00    -0.244 OA
ATOM      2  C   LIG    1       25.814 -18.275   3.687  0.00  0.00    +0.348 C 
ENDROOT
BRANCH   2   3
ATOM      3  C   LIG    1       24.591 -18.989   4.119  0.00  0.00    +0.101 A 
ATOM      4  C   LIG    1       24.598 -20.300   4.607  0.00  0.00    +0.131 A 
ATOM      5  C   LIG    1       23.399 -20.932   4.940  0.00  0.00    +0.046 A 
ATOM      6  C   LIG    1       22.190 -20.247   4.805  0.00  0.00    +0.004 A 
ATOM      7  C   LIG    1       22.176 -18.929   4.349  0.00  0.00    +0.001 A 
ATOM      8  C   LIG    1       23.373 -18.299   4.010  0.00  0.00    +0.019 A 
BRANCH   4   9
ATOM      9  O   LIG    1       25.775 -20.970   4.788  0.00  0.00    -0.506 OA
ATOM     10  H   LIG    1       26.225 -21.081   3.935  0.00  0.00    +0.292 HD
ENDBRANCH   4   9
ENDBRANCH   2   3
BRANCH   2  11
ATOM     11  O   LIG    1       25.441 -17.128   3.001  0.00  0.00    -0.422 OA
BRANCH  11  12
ATOM     12  C   LIG    1       25.737 -15.836   3.478  0.00  0.00    +0.132 A 
ATOM     13  C   LIG    1       24.766 -14.940   3.913  0.00  0.00    +0.046 A 
ATOM     14  C   LIG    1       25.154 -13.687   4.386  0.00  0.00    +0.004 A 
ATOM     15  C   LIG    1       26.505 -13.348   4.447  0.00  0.00    +0.000 A 
ATOM     16  C   LIG    1       27.477 -14.262   4.034  0.00  0.00    +0.004 A 
ATOM     17  C   LIG    1       27.094 -15.512   3.552  0.00  0.00    +0.046 A 
ENDBRANCH  11  12
ENDBRANCH   2  11
TORSDOF 4
ENDMDL
MODEL 5
REMARK VINA RESULT:      -5.6      0.891      1.701
REMARK  Name = *****
REMARK                            x       y       z     vdW  Elec       q    Type
REMARK                         _______ _______ _______ _____ _____    ______ ____
ROOT
ATOM      1  O   LIG    1       27.464 -16.527   4.057  0.00  0.00    -0.244 OA
ATOM      2  C   LIG    1       26.377 -16.369   3.529  0.00  0.00    +0.348 C 
ENDROOT
BRANCH   2   3
ATOM      3  C   LIG    1       25.790 -15.033   3.277  0.00  0.00    +0.101 A 
ATOM      4  C   LIG    1       24.525 -14.650   3.735  0.00  0.00    +0.131 A 
ATOM      5  C   LIG    1       24.011 -13.394   3.410  0.00  0.00    +0.046 A 
ATOM      6  C   LIG    1       24.770 -12.509   2.641  0.00  0.00    +0.004 A 
ATOM      7  C   LIG    1       26.044 -12.871   2.206  0.00  0.00    +0.001 A 
ATOM      8  C   LIG    1       26.557 -14.128   2.526  0.00  0.00    +0.019 A 
BRANCH   4   9
ATOM      9  O   LIG    1       23.788 -15.485   4.526  0.00  0.00    -0.506 OA
ATOM     10  H   LIG    1       23.133 -15.957   3.986  0.00  0.00    +0.292 HD
ENDBRANCH   4   9
ENDBRANCH   2   3
BRANCH   2  11
ATOM     11  O   LIG    1       25.571 -17.328   2.931  0.00  0.00    -0.422 OA
BRANCH  11  12
ATOM     12  C   LIG    1       25.133 -18.477   3.619  0.00  0.00    +0.132 A 
ATOM     13  C   LIG    1       25.997 -19.383   4.224  0.00  0.00    +0.046 A 
ATOM     14  C   LIG    1       25.471 -20.485   4.898  0.00  0.00    +0.004 A 
ATOM     15  C   LIG    1       24.090 -20.659   4.987  0.00  0.00    +0.000 A 
ATOM     16  C   LIG    1       23.227 -19.731   4.401  0.00  0.00    +0.004 A 
ATOM     17  C   LIG    1       23.748 -18.633   3.718  0.00  0.00    +0.046 A 
ENDBRANCH  11  12
ENDBRANCH   2  11
TORSDOF 4
ENDMDL
MODEL 6
REMARK VINA RESULT:      -5.5      1.725      5.982
REMARK  Name = *****
REMARK                            x       y       z     vdW  Elec       q    Type
REMARK                         _______ _______ _______ _____ _____    ______ ____
ROOT
ATOM      1  O   LIG    1       22.980 -19.020   3.009  0.00  0.00    -0.244 OA
ATOM      2  C   LIG    1       23.959 -18.916   3.729  0.00  0.00    +0.348 C 
ENDROOT
BRANCH   2   3
ATOM      3  C   LIG    1       24.204 -19.806   4.887  0.00  0.00    +0.101 A 
ATOM      4  C   LIG    1       25.428 -20.442   5.122  0.00  0.00    +0.131 A 
ATOM      5  C   LIG    1       25.570 -21.315   6.201  0.00  0.00    +0.046 A 
ATOM      6  C   LIG    1       24.493 -21.540   7.061  0.00  0.00    +0.004 A 
ATOM      7  C   LIG    1       23.278 -20.887   6.852  0.00  0.00    +0.001 A 
ATOM      8  C   LIG    1       23.134 -20.019   5.771  0.00  0.00    +0.019 A 
BRANCH   4   9
ATOM      9  O   LIG    1       26.505 -20.199   4.317  0.00  0.00    -0.506 OA
ATOM     10  H   LIG    1       27.254 -20.752   4.594  0.00  0.00    +0.292 HD
ENDBRANCH   4   9
ENDBRANCH   2   3
BRANCH   2  11
ATOM     11  O   LIG    1       25.072 -18.110   3.544  0.00  0.00    -0.422 OA
BRANCH  11  12
ATOM     12  C   LIG    1       25.009 -16.706   3.642  0.00  0.00    +0.132 A 
ATOM     13  C   LIG    1       23.883 -16.020   4.089  0.00  0.00    +0.046 A 
ATOM     14  C   LIG    1       23.918 -14.628   4.169  0.00  0.00    +0.004 A 
ATOM     15  C   LIG    1       25.079 -13.935   3.829  0.00  0.00    +0.000 A 
ATOM     16  C   LIG    1       26.214 -14.630   3.407  0.00  0.00    +0.004 A 
ATOM     17  C   LIG    1       26.181 -16.021   3.317  0.00  0.00    +0.046 A 
ENDBRANCH  11  12
ENDBRANCH   2  11
TORSDOF 4
ENDMDL
MODEL 7
REMARK VINA RESULT:      -5.2      1.802      6.079
REMARK  Name = *****
REMARK                            x       y       z     vdW  Elec       q    Type
REMARK                         _______ _______ _______ _____ _____    ______ ____
ROOT
ATOM      1  O   LIG    1       24.027 -18.950   3.269  0.00  0.00    -0.244 OA
ATOM      2  C   LIG    1       25.156 -18.687   3.649  0.00  0.00    +0.348 C 
ENDROOT
BRANCH   2   3
ATOM      3  C   LIG    1       25.871 -19.492   4.665  0.00  0.00    +0.101 A 
ATOM      4  C   LIG    1       25.235 -20.424   5.494  0.00  0.00    +0.131 A 
ATOM      5  C   LIG    1       25.962 -21.105   6.471  0.00  0.00    +0.046 A 
ATOM      6  C   LIG    1       27.332 -20.871   6.609  0.00  0.00    +0.004 A 
ATOM      7  C   LIG    1       27.979 -19.967   5.768  0.00  0.00    +0.001 A 
ATOM      8  C   LIG    1       27.253 -19.281   4.794  0.00  0.00    +0.019 A 
BRANCH   4   9
ATOM      9  O   LIG    1       23.905 -20.698   5.342  0.00  0.00    -0.506 OA
ATOM     10  H   LIG    1       23.745 -21.070   4.460  0.00  0.00    +0.292 HD
ENDBRANCH   4   9
ENDBRANCH   2   3
BRANCH   2  11
ATOM     11  O   LIG    1       26.032 -17.742   3.133  0.00  0.00    -0.422 OA
BRANCH  11  12
ATOM     12  C   LIG    1       25.939 -16.375   3.456  0.00  0.00    +0.132 A 
ATOM     13  C   LIG    1       24.732 -15.722   3.685  0.00  0.00    +0.046 A 
ATOM     14  C   LIG    1       24.738 -14.368   4.017  0.00  0.00    +0.004 A 
ATOM     15  C   LIG    1       25.947 -13.683   4.145  0.00  0.00    +0.000 A 
ATOM     16  C   LIG    1       27.157 -14.350   3.940  0.00  0.00    +0.004 A 
ATOM     17  C   LIG    1       27.154 -15.701   3.599  0.00  0.00    +0.046 A 
ENDBRANCH  11  12
ENDBRANCH   2  11
TORSDOF 4
ENDMDL
MODEL 8
REMARK VINA RESULT:      -5.2      3.541      5.149
REMARK  Name = *****
REMARK                            x       y       z     vdW  Elec       q    Type
REMARK                         _______ _______ _______ _____ _____    ______ ____
ROOT
ATOM      1  O   LIG    1       26.367 -17.973   3.472  0.00  0.00    -0.244 OA
ATOM      2  C   LIG    1       26.395 -19.076   3.990  0.00  0.00    +0.348 C 
ENDROOT
BRANCH   2   3
ATOM      3  C   LIG    1       27.352 -19.437   5.062  0.00  0.00    +0.101 A 
ATOM      4  C   LIG    1       28.553 -18.754   5.283  0.00  0.00    +0.131 A 
ATOM      5  C   LIG    1       29.435 -19.187   6.274  0.00  0.00    +0.046 A 
ATOM      6  C   LIG    1       29.109 -20.292   7.061  0.00  0.00    +0.004 A 
ATOM      7  C   LIG    1       27.899 -20.961   6.869  0.00  0.00    +0.001 A 
ATOM      8  C   LIG    1       27.020 -20.533   5.875  0.00  0.00    +0.019 A 
BRANCH   4   9
ATOM      9  O   LIG    1       28.867 -17.643   4.552  0.00  0.00    -0.506 OA
ATOM     10  H   LIG    1       28.694 -16.845   5.076  0.00  0.00    +0.292 HD
ENDBRANCH   4   9
ENDBRANCH   2   3
BRANCH   2  11
ATOM     11  O   LIG    1       25.495 -20.119   3.828  0.00  0.00    -0.422 OA
BRANCH  11  12
ATOM     12  C   LIG    1       24.135 -19.999   4.175  0.00  0.00    +0.132 A 
ATOM     13  C   LIG    1       23.363 -18.881   3.872  0.00  0.00    +0.046 A 
ATOM     14  C   LIG    1       22.019 -18.858   4.240  0.00  0.00    +0.004 A 
ATOM     15  C   LIG    1       21.448 -19.957   4.882  0.00  0.00    +0.000 A 
ATOM     16  C   LIG    1       22.221 -21.086   5.160  0.00  0.00    +0.004 A 
ATOM     17  C   LIG    1       23.567 -21.111   4.802  0.00  0.00    +0.046 A 
ENDBRANCH  11  12
ENDBRANCH   2  11
TORSDOF 4
ENDMDL
MODEL 9
REMARK VINA RESULT:      -5.2      1.446      5.928
REMARK  Name = *****
REMARK                            x       y       z     vdW  Elec       q    Type
REMARK                         _______ _______ _______ _____ _____    ______ ____
ROOT
ATOM      1  O   LIG    1       25.893 -18.059   2.843  0.00  0.00    -0.244 OA
ATOM      2  C   LIG    1       24.901 -18.015   3.551  0.00  0.00    +0.348 C 
ENDROOT
BRANCH   2   3
ATOM      3  C   LIG    1       24.330 -19.213   4.211  0.00  0.00    +0.101 A 
ATOM      4  C   LIG    1       22.971 -19.349   4.514  0.00  0.00    +0.131 A 
ATOM      5  C   LIG    1       22.513 -20.480   5.191  0.00  0.00    +0.046 A 
ATOM      6  C   LIG    1       23.410 -21.488   5.549  0.00  0.00    +0.004 A 
ATOM      7  C   LIG    1       24.762 -21.375   5.224  0.00  0.00    +0.001 A 
ATOM      8  C   LIG    1       25.222 -20.242   4.552  0.00  0.00    +0.019 A 
BRANCH   4   9
ATOM      9  O   LIG    1       22.073 -18.394   4.131  0.00  0.00    -0.506 OA
ATOM     10  H   LIG    1       21.180 -18.649   4.415  0.00  0.00    +0.292 HD
ENDBRANCH   4   9
ENDBRANCH   2   3
BRANCH   2  11
ATOM     11  O   LIG    1       24.225 -16.892   4.006  0.00  0.00    -0.422 OA
BRANCH  11  12
ATOM     12  C   LIG    1       24.717 -15.587   3.808  0.00  0.00    +0.132 A 
ATOM     13  C   LIG    1       26.005 -15.315   3.358  0.00  0.00    +0.046 A 
ATOM     14  C   LIG    1       26.400 -13.990   3.175  0.00  0.00    +0.004 A 
ATOM     15  C   LIG    1       25.500 -12.951   3.414  0.00  0.00    +0.000 A 
ATOM     16  C   LIG    1       24.200 -13.232   3.839  0.00  0.00    +0.004 A 
ATOM     17  C   LIG    1       23.804 -14.554   4.033  0.00  0.00    +0.046 A 
ENDBRANCH  11  12
ENDBRANCH   2  11
TORSDOF 4
ENDMDL
