MODEL 1
REMARK VINA RESULT:      -4.4      0.000      0.000
REMARK  Name = *****
REMARK                            x       y       z     vdW  Elec       q    Type
REMARK                         _______ _______ _______ _____ _____    ______ ____
ROOT
ATOM      1  S   LIG    1       23.309 -19.008   4.121  0.00  0.00    +0.103 S 
ATOM      2  O   LIG    1       22.376 -19.009   5.234  0.00  0.00    -0.146 OA
ATOM      3  O   LIG    1       23.022 -19.797   2.941  0.00  0.00    -0.146 OA
ENDROOT
BRANCH   1   7
ATOM      4  C   LIG    1       27.305 -20.168   6.009  0.00  0.00    +0.017 A 
ATOM      5  C   LIG    1       27.280 -19.422   4.821  0.00  0.00    +0.013 A 
ATOM      6  C   LIG    1       26.066 -19.118   4.201  0.00  0.00    +0.030 A 
ATOM      7  C   LIG    1       24.873 -19.558   4.776  0.00  0.00    +0.113 A 
ATOM      8  C   LIG    1       24.886 -20.375   5.912  0.00  0.00    +0.030 A 
ATOM      9  C   LIG    1       26.103 -20.667   6.536  0.00  0.00    +0.013 A 
BRANCH   4  11
ATOM     10  C   LIG    1       29.475 -19.254   7.060  0.00  0.00    +0.091 C 
ATOM     11  C   LIG    1       28.584 -20.426   6.737  0.00  0.00    +0.160 C 
ATOM     12  O   LIG    1       28.887 -21.571   7.062  0.00  0.00    -0.292 OA
ENDBRANCH   4  11
ENDBRANCH   1   7
BRANCH   1  13
ATOM     13  N   LIG    1       23.608 -17.486   3.690  0.00  0.00    -0.076 NA
ATOM     14  C   LIG    1       23.036 -16.479   4.246  0.00  0.00    +0.299 C 
BRANCH  14  15
ATOM     15  N   LIG    1       23.291 -15.169   3.968  0.00  0.00    -0.295 N 
ATOM     16  H   LIG    1       22.449 -14.638   3.773  0.00  0.00    +0.151 HD
BRANCH  15  17
ATOM     17  C   LIG    1       24.381 -14.427   4.595  0.00  0.00    +0.075 C 
ATOM     18  C   LIG    1       25.740 -14.843   4.014  0.00  0.00    +0.022 C 
ATOM     19  C   LIG    1       25.943 -14.380   2.573  0.00  0.00    +0.002 C 
ATOM     20  C   LIG    1       25.740 -12.876   2.432  0.00  0.00    +0.000 C 
ATOM     21  C   LIG    1       24.400 -12.418   3.004  0.00  0.00    +0.002 C 
ATOM     22  C   LIG    1       24.172 -12.915   4.433  0.00  0.00    +0.022 C 
ENDBRANCH  15  17
ENDBRANCH  14  15
BRANCH  14  23
ATOM     23  O   LIG    1       22.085 -16.554   5.191  0.00  0.00    -0.481 OA
ATOM     24  H   LIG    1       22.380 -16.178   6.045  0.00  0.00    +0.295 HD
ENDBRANCH  14  23
ENDBRANCH   1  13
TORSDOF 6
ENDMDL
MODEL 2
REMARK VINA RESULT:      -2.9      2.612      6.977
REMARK  Name = *****
REMARK                            x       y       z     vdW  Elec       q    Type
REMARK                         _______ _______ _______ _____ _____    ______ ____
ROOT
ATOM      1  S   LIG    1       26.488 -17.755   3.504  0.00  0.00    +0.103 S 
ATOM      2  O   LIG    1       27.912 -17.663   3.774  0.00  0.00    -0.146 OA
ATOM      3  O   LIG    1       26.030 -18.207   2.206  0.00  0.00    -0.146 OA
ENDROOT
BRANCH   1   7
ATOM      4  C   LIG    1       24.695 -13.571   3.896  0.00  0.00    +0.017 A 
ATOM      5  C   LIG    1       26.080 -13.730   3.741  0.00  0.00    +0.013 A 
ATOM      6  C   LIG    1       26.645 -15.006   3.686  0.00  0.00    +0.030 A 
ATOM      7  C   LIG    1       25.818 -16.126   3.780  0.00  0.00    +0.113 A 
ATOM      8  C   LIG    1       24.448 -15.985   4.021  0.00  0.00    +0.030 A 
ATOM      9  C   LIG    1       23.885 -14.706   4.063  0.00  0.00    +0.013 A 
BRANCH   4  11
ATOM     10  C   LIG    1       23.934 -11.515   2.538  0.00  0.00    +0.091 C 
ATOM     11  C   LIG    1       24.060 -12.219   3.865  0.00  0.00    +0.160 C 
ATOM     12  O   LIG    1       23.650 -11.707   4.904  0.00  0.00    -0.292 OA
ENDBRANCH   4  11
ENDBRANCH   1   7
BRANCH   1  13
ATOM     13  N   LIG    1       25.792 -18.638   4.657  0.00  0.00    -0.076 NA
ATOM     14  C   LIG    1       26.342 -19.682   5.163  0.00  0.00    +0.299 C 
BRANCH  14  15
ATOM     15  N   LIG    1       25.833 -20.433   6.180  0.00  0.00    -0.295 N 
ATOM     16  H   LIG    1       25.740 -19.911   7.045  0.00  0.00    +0.151 HD
BRANCH  15  17
ATOM     17  C   LIG    1       24.847 -21.489   5.963  0.00  0.00    +0.075 C 
ATOM     18  C   LIG    1       23.602 -21.271   6.834  0.00  0.00    +0.022 C 
ATOM     19  C   LIG    1       22.762 -20.076   6.391  0.00  0.00    +0.002 C 
ATOM     20  C   LIG    1       22.374 -20.176   4.920  0.00  0.00    +0.000 C 
ATOM     21  C   LIG    1       23.585 -20.399   4.018  0.00  0.00    +0.002 C 
ATOM     22  C   LIG    1       24.455 -21.569   4.481  0.00  0.00    +0.022 C 
ENDBRANCH  15  17
ENDBRANCH  14  15
BRANCH  14  23
ATOM     23  O   LIG    1       27.512 -20.209   4.766  0.00  0.00    -0.481 OA
ATOM     24  H   LIG    1       27.784 -19.888   3.882  0.00  0.00    +0.295 HD
ENDBRANCH  14  23
ENDBRANCH   1  13
TORSDOF 6
ENDMDL
MODEL 3
REMARK VINA RESULT:      -2.6      2.269      6.210
REMARK  Name = *****
REMARK                            x       y       z     vdW  Elec       q    Type
REMARK                         _______ _______ _______ _____ _____    ______ ____
ROOT
ATOM      1  S   LIG    1       22.393 -17.426   4.444  0.00  0.00    +0.103 S 
ATOM      2  O   LIG    1       22.212 -18.136   3.190  0.00  0.00    -0.146 OA
ATOM      3  O   LIG    1       21.279 -16.712   5.033  0.00  0.00    -0.146 OA
ENDROOT
BRANCH   1   7
ATOM      4  C   LIG    1       25.639 -14.369   3.452  0.00  0.00    +0.017 A 
ATOM      5  C   LIG    1       25.895 -15.739   3.297  0.00  0.00    +0.013 A 
ATOM      6  C   LIG    1       24.933 -16.685   3.659  0.00  0.00    +0.030 A 
ATOM      7  C   LIG    1       23.708 -16.254   4.173  0.00  0.00    +0.113 A 
ATOM      8  C   LIG    1       23.472 -14.897   4.413  0.00  0.00    +0.030 A 
ATOM      9  C   LIG    1       24.433 -13.953   4.038  0.00  0.00    +0.013 A 
BRANCH   4  11
ATOM     10  C   LIG    1       28.029 -13.401   3.512  0.00  0.00    +0.091 C 
ATOM     11  C   LIG    1       26.617 -13.339   2.987  0.00  0.00    +0.160 C 
ATOM     12  O   LIG    1       26.267 -12.472   2.191  0.00  0.00    -0.292 OA
ENDBRANCH   4  11
ENDBRANCH   1   7
BRANCH   1  13
ATOM     13  N   LIG    1       23.019 -18.435   5.532  0.00  0.00    -0.076 NA
ATOM     14  C   LIG    1       22.716 -19.682   5.581  0.00  0.00    +0.299 C 
BRANCH  14  15
ATOM     15  N   LIG    1       23.256 -20.596   6.436  0.00  0.00    -0.295 N 
ATOM     16  H   LIG    1       22.591 -20.929   7.126  0.00  0.00    +0.151 HD
BRANCH  15  17
ATOM     17  C   LIG    1       24.280 -21.552   6.025  0.00  0.00    +0.075 C 
ATOM     18  C   LIG    1       24.802 -21.233   4.618  0.00  0.00    +0.022 C 
ATOM     19  C   LIG    1       25.641 -19.957   4.563  0.00  0.00    +0.002 C 
ATOM     20  C   LIG    1       26.791 -19.998   5.563  0.00  0.00    +0.000 C 
ATOM     21  C   LIG    1       26.315 -20.318   6.977  0.00  0.00    +0.002 C 
ATOM     22  C   LIG    1       25.439 -21.572   7.032  0.00  0.00    +0.022 C 
ENDBRANCH  15  17
ENDBRANCH  14  15
BRANCH  14  23
ATOM     23  O   LIG    1       21.809 -20.289   4.799  0.00  0.00    -0.481 OA
ATOM     24  H   LIG    1       22.155 -20.475   3.903  0.00  0.00    +0.295 HD
ENDBRANCH  14  23
ENDBRANCH   1  13
TORSDOF 6
ENDMDL
MODEL 4
REMARK VINA RESULT:      -2.2      3.071      4.541
REMARK  Name = *****
REMARK                            x       y       z     vdW  Elec       q    Type
REMARK                         _______ _______ _______ _____ _____    ______ ____
ROOT
ATOM      1  S   LIG    1       23.629 -14.810   4.051  0.00  0.00    +0.103 S 
ATOM      2  O   LIG    1       23.466 -14.410   5.438  0.00  0.00    -0.146 OA
ATOM      3  O   LIG    1       22.726 -14.295   3.043  0.00  0.00    -0.146 OA
ENDROOT
BRANCH   1   7
ATOM      4  C   LIG    1       23.430 -19.368   4.300  0.00  0.00    +0.017 A 
ATOM      5  C   LIG    1       24.567 -18.743   3.767  0.00  0.00    +0.013 A 
ATOM      6  C   LIG    1       24.612 -17.354   3.626  0.00  0.00    +0.030 A 
ATOM      7  C   LIG    1       23.515 -16.589   4.026  0.00  0.00    +0.113 A 
ATOM      8  C   LIG    1       22.342 -17.203   4.479  0.00  0.00    +0.030 A 
ATOM      9  C   LIG    1       22.306 -18.592   4.629  0.00  0.00    +0.013 A 
BRANCH   4  11
ATOM     10  C   LIG    1       22.310 -21.398   5.427  0.00  0.00    +0.091 C 
ATOM     11  C   LIG    1       23.396 -20.842   4.543  0.00  0.00    +0.160 C 
ATOM     12  O   LIG    1       24.238 -21.571   4.025  0.00  0.00    -0.292 OA
ENDBRANCH   4  11
ENDBRANCH   1   7
BRANCH   1  13
ATOM     13  N   LIG    1       25.150 -14.534   3.602  0.00  0.00    -0.076 NA
ATOM     14  C   LIG    1       25.511 -13.470   2.979  0.00  0.00    +0.299 C 
BRANCH  14  15
ATOM     15  N   LIG    1       26.788 -13.153   2.627  0.00  0.00    -0.295 N 
ATOM     16  H   LIG    1       26.909 -12.163   2.438  0.00  0.00    +0.151 HD
BRANCH  15  17
ATOM     17  C   LIG    1       27.953 -13.843   3.174  0.00  0.00    +0.075 C 
ATOM     18  C   LIG    1       29.117 -12.870   3.405  0.00  0.00    +0.022 C 
ATOM     19  C   LIG    1       28.864 -11.896   4.554  0.00  0.00    +0.002 C 
ATOM     20  C   LIG    1       28.516 -12.628   5.845  0.00  0.00    +0.000 C 
ATOM     21  C   LIG    1       27.365 -13.613   5.657  0.00  0.00    +0.002 C 
ATOM     22  C   LIG    1       27.592 -14.564   4.480  0.00  0.00    +0.022 C 
ENDBRANCH  15  17
ENDBRANCH  14  15
BRANCH  14  23
ATOM     23  O   LIG    1       24.682 -12.497   2.568  0.00  0.00    -0.481 OA
ATOM     24  H   LIG    1       24.366 -12.640   1.653  0.00  0.00    +0.295 HD
ENDBRANCH  14  23
ENDBRANCH   1  13
TORSDOF 6
ENDMDL
MODEL 5
REMARK VINA RESULT:      -1.8      2.126      6.266
REMARK  Name = *****
REMARK                            x       y       z     vdW  Elec       q    Type
REMARK                         _______ _______ _______ _____ _____    ______ ____
ROOT
ATOM      1  S   LIG    1       23.854 -19.331   4.013  0.00  0.00    +0.103 S 
ATOM      2  O   LIG    1       23.542 -19.850   2.692  0.00  0.00    -0.146 OA
ATOM      3  O   LIG    1       22.855 -19.384   5.060  0.00  0.00    -0.146 OA
ENDROOT
BRANCH   1   7
ATOM      4  C   LIG    1       25.165 -14.964   3.730  0.00  0.00    +0.017 A 
ATOM      5  C   LIG    1       23.848 -15.279   4.096  0.00  0.00    +0.013 A 
ATOM      6  C   LIG    1       23.419 -16.608   4.122  0.00  0.00    +0.030 A 
ATOM      7  C   LIG    1       24.315 -17.624   3.786  0.00  0.00    +0.113 A 
ATOM      8  C   LIG    1       25.604 -17.320   3.336  0.00  0.00    +0.030 A 
ATOM      9  C   LIG    1       26.033 -15.990   3.323  0.00  0.00    +0.013 A 
BRANCH   4  11
ATOM     10  C   LIG    1       27.101 -13.295   3.390  0.00  0.00    +0.091 C 
ATOM     11  C   LIG    1       25.670 -13.559   3.784  0.00  0.00    +0.160 C 
ATOM     12  O   LIG    1       24.924 -12.649   4.137  0.00  0.00    -0.292 OA
ENDBRANCH   4  11
ENDBRANCH   1   7
BRANCH   1  13
ATOM     13  N   LIG    1       25.217 -20.012   4.534  0.00  0.00    -0.076 NA
ATOM     14  C   LIG    1       25.250 -20.842   5.514  0.00  0.00    +0.299 C 
BRANCH  14  15
ATOM     15  N   LIG    1       26.359 -21.495   5.962  0.00  0.00    -0.295 N 
ATOM     16  H   LIG    1       26.858 -21.975   5.221  0.00  0.00    +0.151 HD
BRANCH  15  17
ATOM     17  C   LIG    1       27.179 -20.995   7.062  0.00  0.00    +0.075 C 
ATOM     18  C   LIG    1       28.601 -21.569   6.998  0.00  0.00    +0.022 C 
ATOM     19  C   LIG    1       29.418 -21.019   5.830  0.00  0.00    +0.002 C 
ATOM     20  C   LIG    1       29.457 -19.495   5.841  0.00  0.00    +0.000 C 
ATOM     21  C   LIG    1       28.061 -18.882   5.911  0.00  0.00    +0.002 C 
ATOM     22  C   LIG    1       27.222 -19.461   7.052  0.00  0.00    +0.022 C 
ENDBRANCH  15  17
ENDBRANCH  14  15
BRANCH  14  23
ATOM     23  O   LIG    1       24.193 -21.196   6.264  0.00  0.00    -0.481 OA
ATOM     24  H   LIG    1       23.647 -21.885   5.834  0.00  0.00    +0.295 HD
ENDBRANCH  14  23
ENDBRANCH   1  13
TORSDOF 6
ENDMDL
MODEL 6
REMARK VINA RESULT:      -1.6      3.185      6.667
REMARK  Name = *****
REMARK                            x       y       z     vdW  Elec       q    Type
REMARK                         _______ _______ _______ _____ _____    ______ ____
ROOT
ATOM      1  S   LIG    1       28.685 -18.468   5.401  0.00  0.00    +0.103 S 
ATOM      2  O   LIG    1       29.475 -17.819   6.433  0.00  0.00    -0.146 OA
ATOM      3  O   LIG    1       29.329 -19.343   4.444  0.00  0.00    -0.146 OA
ENDROOT
BRANCH   1   7
ATOM      4  C   LIG    1       26.450 -15.063   3.330  0.00  0.00    +0.017 A 
ATOM      5  C   LIG    1       26.046 -16.391   3.131  0.00  0.00    +0.013 A 
ATOM      6  C   LIG    1       26.761 -17.444   3.706  0.00  0.00    +0.030 A 
ATOM      7  C   LIG    1       27.882 -17.163   4.489  0.00  0.00    +0.113 A 
ATOM      8  C   LIG    1       28.347 -15.850   4.627  0.00  0.00    +0.030 A 
ATOM      9  C   LIG    1       27.621 -14.799   4.059  0.00  0.00    +0.013 A 
BRANCH   4  11
ATOM     10  C   LIG    1       24.310 -13.627   3.432  0.00  0.00    +0.091 C 
ATOM     11  C   LIG    1       25.647 -13.920   2.800  0.00  0.00    +0.160 C 
ATOM     12  O   LIG    1       26.081 -13.239   1.874  0.00  0.00    -0.292 OA
ENDBRANCH   4  11
ENDBRANCH   1   7
BRANCH   1  13
ATOM     13  N   LIG    1       27.453 -19.241   6.093  0.00  0.00    -0.076 NA
ATOM     14  C   LIG    1       26.749 -20.121   5.477  0.00  0.00    +0.299 C 
BRANCH  14  15
ATOM     15  N   LIG    1       25.737 -20.851   6.024  0.00  0.00    -0.295 N 
ATOM     16  H   LIG    1       25.464 -20.517   6.943  0.00  0.00    +0.151 HD
BRANCH  15  17
ATOM     17  C   LIG    1       24.673 -21.450   5.223  0.00  0.00    +0.075 C 
ATOM     18  C   LIG    1       23.372 -21.568   6.028  0.00  0.00    +0.022 C 
ATOM     19  C   LIG    1       22.717 -20.218   6.311  0.00  0.00    +0.002 C 
ATOM     20  C   LIG    1       22.481 -19.429   5.029  0.00  0.00    +0.000 C 
ATOM     21  C   LIG    1       23.751 -19.293   4.193  0.00  0.00    +0.002 C 
ATOM     22  C   LIG    1       24.436 -20.638   3.942  0.00  0.00    +0.022 C 
ENDBRANCH  15  17
ENDBRANCH  14  15
BRANCH  14  23
ATOM     23  O   LIG    1       26.893 -20.461   4.185  0.00  0.00    -0.481 OA
ATOM     24  H   LIG    1       27.188 -21.388   4.076  0.00  0.00    +0.295 HD
ENDBRANCH  14  23
ENDBRANCH   1  13
TORSDOF 6
ENDMDL
