MODEL 1
REMARK VINA RESULT:      -5.1      0.000      0.000
REMARK  Name = *****
REMARK                            x       y       z     vdW  Elec       q    Type
REMARK                         _______ _______ _______ _____ _____    ______ ____
ROOT
ATOM      1  S   LIG    1       26.760 -16.768   3.581  0.00  0.00    +0.024 S 
ENDROOT
BRANCH   1   4
ATOM      2  O   LIG    1       27.241 -14.334   1.841  0.00  0.00    -0.619 OA
ATOM      3  N   LIG    1       26.153 -14.281   2.513  0.00  0.00    -0.165 NA
ATOM      4  C   LIG    1       25.771 -15.283   3.415  0.00  0.00    +0.265 C 
ATOM      5  C   LIG    1       24.567 -15.157   4.130  0.00  0.00    +0.088 C 
ATOM      6  C   LIG    1       23.730 -14.060   3.917  0.00  0.00    +0.013 C 
ATOM      7  C   LIG    1       24.086 -13.087   2.994  0.00  0.00    +0.071 C 
ATOM      8  C   LIG    1       25.296 -13.205   2.316  0.00  0.00    +0.323 C 
ENDBRANCH   1   4
BRANCH   1   9
ATOM      9  S   LIG    1       25.399 -18.261   3.211  0.00  0.00    +0.024 S 
BRANCH   9  10
ATOM     10  C   LIG    1       25.770 -19.412   4.528  0.00  0.00    +0.265 C 
ATOM     11  N   LIG    1       24.773 -20.265   5.011  0.00  0.00    -0.165 NA
ATOM     12  O   LIG    1       23.580 -20.271   4.538  0.00  0.00    -0.619 OA
ATOM     13  C   LIG    1       25.092 -21.157   6.028  0.00  0.00    +0.323 C 
ATOM     14  C   LIG    1       26.373 -21.226   6.570  0.00  0.00    +0.071 C 
ATOM     15  C   LIG    1       27.363 -20.379   6.089  0.00  0.00    +0.013 C 
ATOM     16  C   LIG    1       27.068 -19.474   5.070  0.00  0.00    +0.088 C 
ENDBRANCH   9  10
ENDBRANCH   1   9
TORSDOF 3
ENDMDL
MODEL 2
REMARK VINA RESULT:      -5.0      0.068      6.794
REMARK  Name = *****
REMARK                            x       y       z     vdW  Elec       q    Type
REMARK                         _______ _______ _______ _____ _____    ______ ____
ROOT
ATOM      1  S   LIG    1       25.443 -18.253   3.255  0.00  0.00    +0.024 S 
ENDROOT
BRANCH   1   4
ATOM      2  O   LIG    1       23.594 -20.237   4.606  0.00  0.00    -0.619 OA
ATOM      3  N   LIG    1       24.795 -20.271   5.044  0.00  0.00    -0.165 NA
ATOM      4  C   LIG    1       25.793 -19.399   4.587  0.00  0.00    +0.265 C 
ATOM      5  C   LIG    1       27.091 -19.482   5.120  0.00  0.00    +0.088 C 
ATOM      6  C   LIG    1       27.403 -20.454   6.073  0.00  0.00    +0.013 C 
ATOM      7  C   LIG    1       26.428 -21.345   6.497  0.00  0.00    +0.071 C 
ATOM      8  C   LIG    1       25.138 -21.233   5.987  0.00  0.00    +0.323 C 
ENDBRANCH   1   4
BRANCH   1   9
ATOM      9  S   LIG    1       26.787 -16.738   3.596  0.00  0.00    +0.024 S 
BRANCH   9  10
ATOM     10  C   LIG    1       25.753 -15.294   3.392  0.00  0.00    +0.265 C 
ATOM     11  N   LIG    1       26.136 -14.280   2.508  0.00  0.00    -0.165 NA
ATOM     12  O   LIG    1       27.213 -14.340   1.813  0.00  0.00    -0.619 OA
ATOM     13  C   LIG    1       25.307 -13.174   2.361  0.00  0.00    +0.323 C 
ATOM     14  C   LIG    1       24.110 -13.054   3.062  0.00  0.00    +0.071 C 
ATOM     15  C   LIG    1       23.730 -14.062   3.939  0.00  0.00    +0.013 C 
ATOM     16  C   LIG    1       24.544 -15.181   4.106  0.00  0.00    +0.088 C 
ENDBRANCH   9  10
ENDBRANCH   1   9
TORSDOF 3
ENDMDL
MODEL 3
REMARK VINA RESULT:      -4.9      1.476      2.033
REMARK  Name = *****
REMARK                            x       y       z     vdW  Elec       q    Type
REMARK                         _______ _______ _______ _____ _____    ______ ____
ROOT
ATOM      1  S   LIG    1       26.609 -16.806   3.829  0.00  0.00    +0.024 S 
ENDROOT
BRANCH   1   4
ATOM      2  O   LIG    1       27.270 -14.489   1.991  0.00  0.00    -0.619 OA
ATOM      3  N   LIG    1       26.143 -14.370   2.585  0.00  0.00    -0.165 NA
ATOM      4  C   LIG    1       25.676 -15.309   3.516  0.00  0.00    +0.265 C 
ATOM      5  C   LIG    1       24.432 -15.112   4.141  0.00  0.00    +0.088 C 
ATOM      6  C   LIG    1       23.642 -14.009   3.812  0.00  0.00    +0.013 C 
ATOM      7  C   LIG    1       24.083 -13.101   2.862  0.00  0.00    +0.071 C 
ATOM      8  C   LIG    1       25.331 -13.287   2.273  0.00  0.00    +0.323 C 
ENDBRANCH   1   4
BRANCH   1   9
ATOM      9  S   LIG    1       25.594 -18.211   2.728  0.00  0.00    +0.024 S 
BRANCH   9  10
ATOM     10  C   LIG    1       24.621 -19.017   3.993  0.00  0.00    +0.265 C 
ATOM     11  N   LIG    1       25.235 -19.890   4.896  0.00  0.00    -0.165 NA
ATOM     12  O   LIG    1       26.493 -20.141   4.869  0.00  0.00    -0.619 OA
ATOM     13  C   LIG    1       24.456 -20.493   5.876  0.00  0.00    +0.323 C 
ATOM     14  C   LIG    1       23.090 -20.248   5.984  0.00  0.00    +0.071 C 
ATOM     15  C   LIG    1       22.481 -19.379   5.087  0.00  0.00    +0.013 C 
ATOM     16  C   LIG    1       23.240 -18.762   4.094  0.00  0.00    +0.088 C 
ENDBRANCH   9  10
ENDBRANCH   1   9
TORSDOF 3
ENDMDL
MODEL 4
REMARK VINA RESULT:      -4.9      1.473      6.320
REMARK  Name = *****
REMARK                            x       y       z     vdW  Elec       q    Type
REMARK                         _______ _______ _______ _____ _____    ______ ____
ROOT
ATOM      1  S   LIG    1       25.657 -18.209   2.723  0.00  0.00    +0.024 S 
ENDROOT
BRANCH   1   4
ATOM      2  O   LIG    1       26.508 -20.202   4.841  0.00  0.00    -0.619 OA
ATOM      3  N   LIG    1       25.259 -19.926   4.865  0.00  0.00    -0.165 NA
ATOM      4  C   LIG    1       24.655 -19.066   3.937  0.00  0.00    +0.265 C 
ATOM      5  C   LIG    1       23.275 -18.814   4.014  0.00  0.00    +0.088 C 
ATOM      6  C   LIG    1       22.508 -19.384   5.032  0.00  0.00    +0.013 C 
ATOM      7  C   LIG    1       23.109 -20.202   5.976  0.00  0.00    +0.071 C 
ATOM      8  C   LIG    1       24.471 -20.471   5.872  0.00  0.00    +0.323 C 
ENDBRANCH   1   4
BRANCH   1   9
ATOM      9  S   LIG    1       26.619 -16.789   3.851  0.00  0.00    +0.024 S 
BRANCH   9  10
ATOM     10  C   LIG    1       25.644 -15.333   3.495  0.00  0.00    +0.265 C 
ATOM     11  N   LIG    1       26.113 -14.386   2.580  0.00  0.00    -0.165 NA
ATOM     12  O   LIG    1       27.228 -14.516   1.960  0.00  0.00    -0.619 OA
ATOM     13  C   LIG    1       25.328 -13.269   2.314  0.00  0.00    +0.323 C 
ATOM     14  C   LIG    1       24.094 -13.074   2.929  0.00  0.00    +0.071 C 
ATOM     15  C   LIG    1       23.629 -14.017   3.837  0.00  0.00    +0.013 C 
ATOM     16  C   LIG    1       24.397 -15.144   4.122  0.00  0.00    +0.088 C 
ENDBRANCH   9  10
ENDBRANCH   1   9
TORSDOF 3
ENDMDL
MODEL 5
REMARK VINA RESULT:      -4.8      2.373      6.239
REMARK  Name = *****
REMARK                            x       y       z     vdW  Elec       q    Type
REMARK                         _______ _______ _______ _____ _____    ______ ____
ROOT
ATOM      1  S   LIG    1       25.677 -17.307   3.311  0.00  0.00    +0.024 S 
ENDROOT
BRANCH   1   4
ATOM      2  O   LIG    1       26.283 -20.001   4.560  0.00  0.00    -0.619 OA
ATOM      3  N   LIG    1       25.039 -19.700   4.563  0.00  0.00    -0.165 NA
ATOM      4  C   LIG    1       24.545 -18.521   3.987  0.00  0.00    +0.265 C 
ATOM      5  C   LIG    1       23.165 -18.256   4.015  0.00  0.00    +0.088 C 
ATOM      6  C   LIG    1       22.288 -19.140   4.647  0.00  0.00    +0.013 C 
ATOM      7  C   LIG    1       22.779 -20.286   5.253  0.00  0.00    +0.071 C 
ATOM      8  C   LIG    1       24.144 -20.555   5.192  0.00  0.00    +0.323 C 
ENDBRANCH   1   4
BRANCH   1   9
ATOM      9  S   LIG    1       24.747 -15.529   3.747  0.00  0.00    +0.024 S 
BRANCH   9  10
ATOM     10  C   LIG    1       26.147 -14.472   4.089  0.00  0.00    +0.265 C 
ATOM     11  N   LIG    1       26.989 -14.068   3.047  0.00  0.00    -0.165 NA
ATOM     12  O   LIG    1       26.796 -14.419   1.828  0.00  0.00    -0.619 OA
ATOM     13  C   LIG    1       28.063 -13.237   3.341  0.00  0.00    +0.323 C 
ATOM     14  C   LIG    1       28.319 -12.795   4.636  0.00  0.00    +0.071 C 
ATOM     15  C   LIG    1       27.482 -13.195   5.670  0.00  0.00    +0.013 C 
ATOM     16  C   LIG    1       26.398 -14.029   5.402  0.00  0.00    +0.088 C 
ENDBRANCH   9  10
ENDBRANCH   1   9
TORSDOF 3
ENDMDL
MODEL 6
REMARK VINA RESULT:      -4.5      2.036      6.431
REMARK  Name = *****
REMARK                            x       y       z     vdW  Elec       q    Type
REMARK                         _______ _______ _______ _____ _____    ______ ____
ROOT
ATOM      1  S   LIG    1       25.439 -17.940   3.368  0.00  0.00    +0.024 S 
ENDROOT
BRANCH   1   4
ATOM      2  O   LIG    1       26.434 -20.231   5.084  0.00  0.00    -0.619 OA
ATOM      3  N   LIG    1       25.158 -20.162   5.005  0.00  0.00    -0.165 NA
ATOM      4  C   LIG    1       24.500 -19.205   4.220  0.00  0.00    +0.265 C 
ATOM      5  C   LIG    1       23.095 -19.192   4.170  0.00  0.00    +0.088 C 
ATOM      6  C   LIG    1       22.351 -20.099   4.927  0.00  0.00    +0.013 C 
ATOM      7  C   LIG    1       23.000 -21.020   5.736  0.00  0.00    +0.071 C 
ATOM      8  C   LIG    1       24.392 -21.046   5.754  0.00  0.00    +0.323 C 
ENDBRANCH   1   4
BRANCH   1   9
ATOM      9  S   LIG    1       24.382 -16.231   3.790  0.00  0.00    +0.024 S 
BRANCH   9  10
ATOM     10  C   LIG    1       25.626 -14.972   3.532  0.00  0.00    +0.265 C 
ATOM     11  N   LIG    1       25.261 -13.725   3.018  0.00  0.00    -0.165 NA
ATOM     12  O   LIG    1       24.048 -13.426   2.723  0.00  0.00    -0.619 OA
ATOM     13  C   LIG    1       26.247 -12.762   2.838  0.00  0.00    +0.323 C 
ATOM     14  C   LIG    1       27.580 -13.005   3.161  0.00  0.00    +0.071 C 
ATOM     15  C   LIG    1       27.941 -14.245   3.673  0.00  0.00    +0.013 C 
ATOM     16  C   LIG    1       26.971 -15.228   3.861  0.00  0.00    +0.088 C 
ENDBRANCH   9  10
ENDBRANCH   1   9
TORSDOF 3
ENDMDL
MODEL 7
REMARK VINA RESULT:      -4.4      2.059      2.788
REMARK  Name = *****
REMARK                            x       y       z     vdW  Elec       q    Type
REMARK                         _______ _______ _______ _____ _____    ______ ____
ROOT
ATOM      1  S   LIG    1       24.446 -16.190   3.694  0.00  0.00    +0.024 S 
ENDROOT
BRANCH   1   4
ATOM      2  O   LIG    1       24.094 -13.358   2.677  0.00  0.00    -0.619 OA
ATOM      3  N   LIG    1       25.299 -13.644   2.997  0.00  0.00    -0.165 NA
ATOM      4  C   LIG    1       25.682 -14.918   3.441  0.00  0.00    +0.265 C 
ATOM      5  C   LIG    1       27.026 -15.169   3.766  0.00  0.00    +0.088 C 
ATOM      6  C   LIG    1       27.975 -14.148   3.687  0.00  0.00    +0.013 C 
ATOM      7  C   LIG    1       27.592 -12.876   3.288  0.00  0.00    +0.071 C 
ATOM      8  C   LIG    1       26.264 -12.647   2.937  0.00  0.00    +0.323 C 
ENDBRANCH   1   4
BRANCH   1   9
ATOM      9  S   LIG    1       25.489 -17.917   3.312  0.00  0.00    +0.024 S 
BRANCH   9  10
ATOM     10  C   LIG    1       24.517 -19.123   4.204  0.00  0.00    +0.265 C 
ATOM     11  N   LIG    1       25.151 -20.072   5.013  0.00  0.00    -0.165 NA
ATOM     12  O   LIG    1       26.425 -20.115   5.158  0.00  0.00    -0.619 OA
ATOM     13  C   LIG    1       24.369 -20.990   5.703  0.00  0.00    +0.323 C 
ATOM     14  C   LIG    1       22.980 -20.987   5.615  0.00  0.00    +0.071 C 
ATOM     15  C   LIG    1       22.350 -20.043   4.812  0.00  0.00    +0.013 C 
ATOM     16  C   LIG    1       23.112 -19.112   4.108  0.00  0.00    +0.088 C 
ENDBRANCH   9  10
ENDBRANCH   1   9
TORSDOF 3
ENDMDL
MODEL 8
REMARK VINA RESULT:      -4.0      1.780      2.100
REMARK  Name = *****
REMARK                            x       y       z     vdW  Elec       q    Type
REMARK                         _______ _______ _______ _____ _____    ______ ____
ROOT
ATOM      1  S   LIG    1       24.060 -17.616   3.835  0.00  0.00    +0.024 S 
ENDROOT
BRANCH   1   4
ATOM      2  O   LIG    1       23.234 -14.750   4.373  0.00  0.00    -0.619 OA
ATOM      3  N   LIG    1       24.469 -14.882   4.068  0.00  0.00    -0.165 NA
ATOM      4  C   LIG    1       25.038 -16.118   3.733  0.00  0.00    +0.265 C 
ATOM      5  C   LIG    1       26.401 -16.191   3.396  0.00  0.00    +0.088 C 
ATOM      6  C   LIG    1       27.200 -15.046   3.431  0.00  0.00    +0.013 C 
ATOM      7  C   LIG    1       26.649 -13.829   3.802  0.00  0.00    +0.071 C 
ATOM      8  C   LIG    1       25.291 -13.762   4.102  0.00  0.00    +0.323 C 
ENDBRANCH   1   4
BRANCH   1   9
ATOM      9  S   LIG    1       25.376 -19.061   3.205  0.00  0.00    +0.024 S 
BRANCH   9  10
ATOM     10  C   LIG    1       25.637 -19.984   4.713  0.00  0.00    +0.265 C 
ATOM     11  N   LIG    1       24.648 -20.858   5.177  0.00  0.00    -0.165 NA
ATOM     12  O   LIG    1       23.542 -21.042   4.555  0.00  0.00    -0.619 OA
ATOM     13  C   LIG    1       24.884 -21.571   6.347  0.00  0.00    +0.323 C 
ATOM     14  C   LIG    1       26.072 -21.442   7.060  0.00  0.00    +0.071 C 
ATOM     15  C   LIG    1       27.053 -20.575   6.598  0.00  0.00    +0.013 C 
ATOM     16  C   LIG    1       26.842 -19.847   5.428  0.00  0.00    +0.088 C 
ENDBRANCH   9  10
ENDBRANCH   1   9
TORSDOF 3
ENDMDL
MODEL 9
REMARK VINA RESULT:      -4.0      1.564      1.959
REMARK  Name = *****
REMARK                            x       y       z     vdW  Elec       q    Type
REMARK                         _______ _______ _______ _____ _____    ______ ____
ROOT
ATOM      1  S   LIG    1       26.639 -16.917   3.863  0.00  0.00    +0.024 S 
ENDROOT
BRANCH   1   4
ATOM      2  O   LIG    1       23.862 -15.812   4.367  0.00  0.00    -0.619 OA
ATOM      3  N   LIG    1       24.633 -15.004   3.742  0.00  0.00    -0.165 NA
ATOM      4  C   LIG    1       25.941 -15.343   3.367  0.00  0.00    +0.265 C 
ATOM      5  C   LIG    1       26.731 -14.410   2.673  0.00  0.00    +0.088 C 
ATOM      6  C   LIG    1       26.236 -13.136   2.389  0.00  0.00    +0.013 C 
ATOM      7  C   LIG    1       24.958 -12.784   2.795  0.00  0.00    +0.071 C 
ATOM      8  C   LIG    1       24.171 -13.726   3.453  0.00  0.00    +0.323 C 
ENDBRANCH   1   4
BRANCH   1   9
ATOM      9  S   LIG    1       25.376 -18.271   2.975  0.00  0.00    +0.024 S 
BRANCH   9  10
ATOM     10  C   LIG    1       25.007 -19.361   4.343  0.00  0.00    +0.265 C 
ATOM     11  N   LIG    1       23.682 -19.556   4.744  0.00  0.00    -0.165 NA
ATOM     12  O   LIG    1       22.693 -18.985   4.159  0.00  0.00    -0.619 OA
ATOM     13  C   LIG    1       23.425 -20.418   5.803  0.00  0.00    +0.323 C 
ATOM     14  C   LIG    1       24.445 -21.092   6.468  0.00  0.00    +0.071 C 
ATOM     15  C   LIG    1       25.762 -20.899   6.068  0.00  0.00    +0.013 C 
ATOM     16  C   LIG    1       26.047 -20.039   5.009  0.00  0.00    +0.088 C 
ENDBRANCH   9  10
ENDBRANCH   1   9
TORSDOF 3
ENDMDL
