MODEL 1
REMARK VINA RESULT:      -8.9      0.000      0.000
REMARK  Name = *****
REMARK                            x       y       z     vdW  Elec       q    Type
REMARK                         _______ _______ _______ _____ _____    ______ ____
ROOT
ATOM      1  C   LIG    1       26.327 -21.025   6.510  0.00  0.00    +0.170 C 
ENDROOT
BRANCH   1   2
ATOM      2  C   LIG    1       25.085 -20.433   5.852  0.00  0.00    +0.001 A 
ATOM      3  C   LIG    1       23.821 -20.436   6.471  0.00  0.00    +0.048 A 
ATOM      4 CL   LIG    1       23.577 -21.077   8.056  0.00  0.00    -0.083 Cl
ATOM      5  C   LIG    1       22.700 -19.919   5.812  0.00  0.00    +0.040 A 
ATOM      6  C   LIG    1       22.830 -19.389   4.531  0.00  0.00    +0.042 A 
ATOM      7 CL   LIG    1       21.456 -18.744   3.724  0.00  0.00    -0.084 Cl
ATOM      8  C   LIG    1       24.069 -19.372   3.901  0.00  0.00    +0.020 A 
ATOM      9  C   LIG    1       25.188 -19.885   4.559  0.00  0.00    +0.009 A 
ENDBRANCH   1   2
BRANCH   1  10
ATOM     10  O   LIG    1       26.464 -22.429   6.191  0.00  0.00    -0.365 OA
BRANCH  10  11
ATOM     11  C   LIG    1       25.939 -23.354   7.161  0.00  0.00    +0.197 C 
BRANCH  11  17
ATOM     12 CL   LIG    1       24.477 -28.860   5.225  0.00  0.00    -0.084 Cl
ATOM     13  C   LIG    1       24.877 -27.253   5.693  0.00  0.00    +0.042 A 
ATOM     14  C   LIG    1       23.861 -26.335   5.944  0.00  0.00    +0.040 A 
ATOM     15  C   LIG    1       24.185 -25.045   6.371  0.00  0.00    +0.048 A 
ATOM     16 CL   LIG    1       22.876 -23.954   6.661  0.00  0.00    -0.083 Cl
ATOM     17  C   LIG    1       25.527 -24.675   6.567  0.00  0.00    -0.004 A 
ATOM     18  C   LIG    1       26.536 -25.601   6.249  0.00  0.00    +0.009 A 
ATOM     19  C   LIG    1       26.213 -26.888   5.827  0.00  0.00    +0.020 A 
ENDBRANCH  11  17
ENDBRANCH  10  11
ENDBRANCH   1  10
BRANCH   1  20
ATOM     20  C   LIG    1       27.604 -20.283   6.044  0.00  0.00    +0.159 C 
BRANCH  20  21
ATOM     21  N   LIG    1       28.660 -20.298   7.045  0.00  0.00    -0.334 N 
ATOM     22  C   LIG    1       28.972 -21.332   7.879  0.00  0.00    +0.199 A 
ATOM     23  N   LIG    1       30.059 -21.088   8.569  0.00  0.00    -0.244 NA
ATOM     24  C   LIG    1       30.424 -19.816   8.222  0.00  0.00    +0.130 A 
ATOM     25  C   LIG    1       29.528 -19.280   7.333  0.00  0.00    +0.107 A 
ENDBRANCH  20  21
ENDBRANCH   1  20
TORSDOF 6
ENDMDL
MODEL 2
REMARK VINA RESULT:      -8.9      3.058      6.390
REMARK  Name = *****
REMARK                            x       y       z     vdW  Elec       q    Type
REMARK                         _______ _______ _______ _____ _____    ______ ____
ROOT
ATOM      1  C   LIG    1       26.216 -21.825   6.322  0.00  0.00    +0.170 C 
ENDROOT
BRANCH   1   2
ATOM      2  C   LIG    1       25.095 -20.951   5.768  0.00  0.00    +0.001 A 
ATOM      3  C   LIG    1       23.829 -20.860   6.377  0.00  0.00    +0.048 A 
ATOM      4 CL   LIG    1       23.450 -21.702   7.836  0.00  0.00    -0.083 Cl
ATOM      5  C   LIG    1       22.817 -20.076   5.811  0.00  0.00    +0.040 A 
ATOM      6  C   LIG    1       23.059 -19.373   4.634  0.00  0.00    +0.042 A 
ATOM      7 CL   LIG    1       21.820 -18.403   3.942  0.00  0.00    -0.084 Cl
ATOM      8  C   LIG    1       24.302 -19.446   4.016  0.00  0.00    +0.020 A 
ATOM      9  C   LIG    1       25.313 -20.224   4.582  0.00  0.00    +0.009 A 
ENDBRANCH   1   2
BRANCH   1  10
ATOM     10  O   LIG    1       27.090 -21.060   7.185  0.00  0.00    -0.365 OA
BRANCH  10  11
ATOM     11  C   LIG    1       28.418 -21.584   7.366  0.00  0.00    +0.197 C 
BRANCH  11  17
ATOM     12 CL   LIG    1       32.129 -17.095   8.875  0.00  0.00    -0.084 Cl
ATOM     13  C   LIG    1       31.134 -18.410   8.386  0.00  0.00    +0.042 A 
ATOM     14  C   LIG    1       31.368 -19.682   8.903  0.00  0.00    +0.040 A 
ATOM     15  C   LIG    1       30.530 -20.740   8.544  0.00  0.00    +0.048 A 
ATOM     16 CL   LIG    1       30.880 -22.291   9.219  0.00  0.00    -0.083 Cl
ATOM     17  C   LIG    1       29.442 -20.525   7.680  0.00  0.00    -0.004 A 
ATOM     18  C   LIG    1       29.263 -19.246   7.123  0.00  0.00    +0.009 A 
ATOM     19  C   LIG    1       30.097 -18.191   7.484  0.00  0.00    +0.020 A 
ENDBRANCH  11  17
ENDBRANCH  10  11
ENDBRANCH   1  10
BRANCH   1  20
ATOM     20  C   LIG    1       25.639 -23.015   7.128  0.00  0.00    +0.159 C 
BRANCH  20  21
ATOM     21  N   LIG    1       25.578 -24.243   6.350  0.00  0.00    -0.334 N 
ATOM     22  C   LIG    1       25.074 -24.381   5.089  0.00  0.00    +0.199 A 
ATOM     23  N   LIG    1       25.288 -25.581   4.610  0.00  0.00    -0.244 NA
ATOM     24  C   LIG    1       25.888 -26.272   5.628  0.00  0.00    +0.130 A 
ATOM     25  C   LIG    1       26.010 -25.481   6.742  0.00  0.00    +0.107 A 
ENDBRANCH  20  21
ENDBRANCH   1  20
TORSDOF 6
ENDMDL
MODEL 3
REMARK VINA RESULT:      -8.7      2.645      5.019
REMARK  Name = *****
REMARK                            x       y       z     vdW  Elec       q    Type
REMARK                         _______ _______ _______ _____ _____    ______ ____
ROOT
ATOM      1  C   LIG    1       26.941 -21.374   6.573  0.00  0.00    +0.170 C 
ENDROOT
BRANCH   1   2
ATOM      2  C   LIG    1       28.197 -20.577   6.908  0.00  0.00    +0.001 A 
ATOM      3  C   LIG    1       28.611 -19.458   6.160  0.00  0.00    +0.048 A 
ATOM      4 CL   LIG    1       27.701 -18.865   4.817  0.00  0.00    -0.083 Cl
ATOM      5  C   LIG    1       29.793 -18.781   6.479  0.00  0.00    +0.040 A 
ATOM      6  C   LIG    1       30.572 -19.210   7.550  0.00  0.00    +0.042 A 
ATOM      7 CL   LIG    1       32.020 -18.374   7.950  0.00  0.00    -0.084 Cl
ATOM      8  C   LIG    1       30.183 -20.311   8.305  0.00  0.00    +0.020 A 
ATOM      9  C   LIG    1       29.002 -20.984   7.990  0.00  0.00    +0.009 A 
ENDBRANCH   1   2
BRANCH   1  10
ATOM     10  O   LIG    1       26.975 -22.680   7.195  0.00  0.00    -0.365 OA
BRANCH  10  11
ATOM     11  C   LIG    1       25.699 -23.254   7.533  0.00  0.00    +0.197 C 
BRANCH  11  17
ATOM     12 CL   LIG    1       24.601 -28.548   4.891  0.00  0.00    -0.084 Cl
ATOM     13  C   LIG    1       24.904 -26.993   5.564  0.00  0.00    +0.042 A 
ATOM     14  C   LIG    1       23.841 -26.130   5.812  0.00  0.00    +0.040 A 
ATOM     15  C   LIG    1       24.081 -24.887   6.403  0.00  0.00    +0.048 A 
ATOM     16 CL   LIG    1       22.717 -23.864   6.680  0.00  0.00    -0.083 Cl
ATOM     17  C   LIG    1       25.387 -24.512   6.765  0.00  0.00    -0.004 A 
ATOM     18  C   LIG    1       26.451 -25.376   6.449  0.00  0.00    +0.009 A 
ATOM     19  C   LIG    1       26.209 -26.615   5.863  0.00  0.00    +0.020 A 
ENDBRANCH  11  17
ENDBRANCH  10  11
ENDBRANCH   1  10
BRANCH   1  20
ATOM     20  C   LIG    1       25.672 -20.629   7.053  0.00  0.00    +0.159 C 
BRANCH  20  21
ATOM     21  N   LIG    1       24.607 -20.635   6.060  0.00  0.00    -0.334 N 
ATOM     22  C   LIG    1       24.733 -20.951   4.738  0.00  0.00    +0.199 A 
ATOM     23  N   LIG    1       23.569 -20.995   4.138  0.00  0.00    -0.244 NA
ATOM     24  C   LIG    1       22.661 -20.621   5.090  0.00  0.00    +0.130 A 
ATOM     25  C   LIG    1       23.292 -20.321   6.270  0.00  0.00    +0.107 A 
ENDBRANCH  20  21
ENDBRANCH   1  20
TORSDOF 6
ENDMDL
MODEL 4
REMARK VINA RESULT:      -8.7      2.914      6.020
REMARK  Name = *****
REMARK                            x       y       z     vdW  Elec       q    Type
REMARK                         _______ _______ _______ _____ _____    ______ ____
ROOT
ATOM      1  C   LIG    1       25.693 -22.261   6.106  0.00  0.00    +0.170 C 
ENDROOT
BRANCH   1   2
ATOM      2  C   LIG    1       24.699 -21.222   5.599  0.00  0.00    +0.001 A 
ATOM      3  C   LIG    1       23.578 -20.812   6.347  0.00  0.00    +0.048 A 
ATOM      4 CL   LIG    1       23.258 -21.425   7.929  0.00  0.00    -0.083 Cl
ATOM      5  C   LIG    1       22.669 -19.886   5.824  0.00  0.00    +0.040 A 
ATOM      6  C   LIG    1       22.871 -19.355   4.553  0.00  0.00    +0.042 A 
ATOM      7 CL   LIG    1       21.760 -18.209   3.913  0.00  0.00    -0.084 Cl
ATOM      8  C   LIG    1       23.972 -19.742   3.797  0.00  0.00    +0.020 A 
ATOM      9  C   LIG    1       24.881 -20.664   4.319  0.00  0.00    +0.009 A 
ENDBRANCH   1   2
BRANCH   1  10
ATOM     10  O   LIG    1       26.573 -21.692   7.104  0.00  0.00    -0.365 OA
BRANCH  10  11
ATOM     11  C   LIG    1       27.950 -22.107   7.045  0.00  0.00    +0.197 C 
BRANCH  11  17
ATOM     12 CL   LIG    1       32.213 -18.057   8.321  0.00  0.00    -0.084 Cl
ATOM     13  C   LIG    1       30.933 -19.160   7.999  0.00  0.00    +0.042 A 
ATOM     14  C   LIG    1       30.032 -18.890   6.973  0.00  0.00    +0.040 A 
ATOM     15  C   LIG    1       29.021 -19.809   6.680  0.00  0.00    +0.048 A 
ATOM     16 CL   LIG    1       27.935 -19.410   5.397  0.00  0.00    -0.083 Cl
ATOM     17  C   LIG    1       28.921 -21.012   7.401  0.00  0.00    -0.004 A 
ATOM     18  C   LIG    1       29.805 -21.233   8.472  0.00  0.00    +0.009 A 
ATOM     19  C   LIG    1       30.814 -20.318   8.761  0.00  0.00    +0.020 A 
ENDBRANCH  11  17
ENDBRANCH  10  11
ENDBRANCH   1  10
BRANCH   1  20
ATOM     20  C   LIG    1       24.956 -23.472   6.728  0.00  0.00    +0.159 C 
BRANCH  20  21
ATOM     21  N   LIG    1       25.350 -24.738   6.127  0.00  0.00    -0.334 N 
ATOM     22  C   LIG    1       25.128 -25.129   4.839  0.00  0.00    +0.199 A 
ATOM     23  N   LIG    1       25.723 -26.264   4.566  0.00  0.00    -0.244 NA
ATOM     24  C   LIG    1       26.291 -26.662   5.745  0.00  0.00    +0.130 A 
ATOM     25  C   LIG    1       26.009 -25.766   6.745  0.00  0.00    +0.107 A 
ENDBRANCH  20  21
ENDBRANCH   1  20
TORSDOF 6
ENDMDL
MODEL 5
REMARK VINA RESULT:      -7.8      2.798      6.897
REMARK  Name = *****
REMARK                            x       y       z     vdW  Elec       q    Type
REMARK                         _______ _______ _______ _____ _____    ______ ____
ROOT
ATOM      1  C   LIG    1       25.479 -22.164   6.878  0.00  0.00    +0.170 C 
ENDROOT
BRANCH   1   2
ATOM      2  C   LIG    1       25.221 -23.645   6.621  0.00  0.00    +0.001 A 
ATOM      3  C   LIG    1       23.925 -24.194   6.564  0.00  0.00    +0.048 A 
ATOM      4 CL   LIG    1       22.509 -23.221   6.740  0.00  0.00    -0.083 Cl
ATOM      5  C   LIG    1       23.737 -25.566   6.367  0.00  0.00    +0.040 A 
ATOM      6  C   LIG    1       24.839 -26.404   6.219  0.00  0.00    +0.042 A 
ATOM      7 CL   LIG    1       24.609 -28.089   5.966  0.00  0.00    -0.084 Cl
ATOM      8  C   LIG    1       26.127 -25.885   6.269  0.00  0.00    +0.020 A 
ATOM      9  C   LIG    1       26.316 -24.516   6.462  0.00  0.00    +0.009 A 
ENDBRANCH   1   2
BRANCH   1  10
ATOM     10  O   LIG    1       26.711 -21.973   7.613  0.00  0.00    -0.365 OA
BRANCH  10  11
ATOM     11  C   LIG    1       27.915 -21.919   6.826  0.00  0.00    +0.197 C 
BRANCH  11  17
ATOM     12 CL   LIG    1       32.184 -18.038   8.536  0.00  0.00    -0.084 Cl
ATOM     13  C   LIG    1       30.901 -19.094   8.090  0.00  0.00    +0.042 A 
ATOM     14  C   LIG    1       30.054 -18.747   7.041  0.00  0.00    +0.040 A 
ATOM     15  C   LIG    1       29.043 -19.626   6.647  0.00  0.00    +0.048 A 
ATOM     16 CL   LIG    1       28.027 -19.131   5.340  0.00  0.00    -0.083 Cl
ATOM     17  C   LIG    1       28.887 -20.867   7.291  0.00  0.00    -0.004 A 
ATOM     18  C   LIG    1       29.715 -21.168   8.387  0.00  0.00    +0.009 A 
ATOM     19  C   LIG    1       30.725 -20.292   8.776  0.00  0.00    +0.020 A 
ENDBRANCH  11  17
ENDBRANCH  10  11
ENDBRANCH   1  10
BRANCH   1  20
ATOM     20  C   LIG    1       25.569 -21.381   5.546  0.00  0.00    +0.159 C 
BRANCH  20  21
ATOM     21  N   LIG    1       24.367 -20.611   5.264  0.00  0.00    -0.334 N 
ATOM     22  C   LIG    1       23.374 -20.305   6.148  0.00  0.00    +0.199 A 
ATOM     23  N   LIG    1       22.496 -19.483   5.627  0.00  0.00    -0.244 NA
ATOM     24  C   LIG    1       22.896 -19.309   4.330  0.00  0.00    +0.130 A 
ATOM     25  C   LIG    1       24.013 -20.059   4.063  0.00  0.00    +0.107 A 
ENDBRANCH  20  21
ENDBRANCH   1  20
TORSDOF 6
ENDMDL
MODEL 6
REMARK VINA RESULT:      -7.8      3.217      6.508
REMARK  Name = *****
REMARK                            x       y       z     vdW  Elec       q    Type
REMARK                         _______ _______ _______ _____ _____    ______ ____
ROOT
ATOM      1  C   LIG    1       25.816 -21.623   6.353  0.00  0.00    +0.170 C 
ENDROOT
BRANCH   1   2
ATOM      2  C   LIG    1       24.717 -20.789   5.703  0.00  0.00    +0.001 A 
ATOM      3  C   LIG    1       24.932 -20.012   4.549  0.00  0.00    +0.048 A 
ATOM      4 CL   LIG    1       26.458 -19.971   3.742  0.00  0.00    -0.083 Cl
ATOM      5  C   LIG    1       23.904 -19.230   4.010  0.00  0.00    +0.040 A 
ATOM      6  C   LIG    1       22.650 -19.219   4.614  0.00  0.00    +0.042 A 
ATOM      7 CL   LIG    1       21.382 -18.267   3.949  0.00  0.00    -0.084 Cl
ATOM      8  C   LIG    1       22.412 -19.981   5.753  0.00  0.00    +0.020 A 
ATOM      9  C   LIG    1       23.436 -20.763   6.289  0.00  0.00    +0.009 A 
ENDBRANCH   1   2
BRANCH   1  10
ATOM     10  O   LIG    1       26.813 -20.774   6.971  0.00  0.00    -0.365 OA
BRANCH  10  11
ATOM     11  C   LIG    1       28.186 -21.116   6.708  0.00  0.00    +0.197 C 
BRANCH  11  17
ATOM     12 CL   LIG    1       32.485 -17.626   9.063  0.00  0.00    -0.084 Cl
ATOM     13  C   LIG    1       31.193 -18.563   8.421  0.00  0.00    +0.042 A 
ATOM     14  C   LIG    1       30.565 -18.161   7.246  0.00  0.00    +0.040 A 
ATOM     15  C   LIG    1       29.548 -18.947   6.699  0.00  0.00    +0.048 A 
ATOM     16 CL   LIG    1       28.810 -18.386   5.241  0.00  0.00    -0.083 Cl
ATOM     17  C   LIG    1       29.169 -20.151   7.317  0.00  0.00    -0.004 A 
ATOM     18  C   LIG    1       29.776 -20.506   8.535  0.00  0.00    +0.009 A 
ATOM     19  C   LIG    1       30.791 -19.723   9.078  0.00  0.00    +0.020 A 
ENDBRANCH  11  17
ENDBRANCH  10  11
ENDBRANCH   1  10
BRANCH   1  20
ATOM     20  C   LIG    1       25.228 -22.564   7.432  0.00  0.00    +0.159 C 
BRANCH  20  21
ATOM     21  N   LIG    1       24.961 -23.902   6.925  0.00  0.00    -0.334 N 
ATOM     22  C   LIG    1       23.736 -24.428   6.629  0.00  0.00    +0.199 A 
ATOM     23  N   LIG    1       23.838 -25.605   6.064  0.00  0.00    -0.244 NA
ATOM     24  C   LIG    1       25.177 -25.886   6.061  0.00  0.00    +0.130 A 
ATOM     25  C   LIG    1       25.885 -24.875   6.659  0.00  0.00    +0.107 A 
ENDBRANCH  20  21
ENDBRANCH   1  20
TORSDOF 6
ENDMDL
MODEL 7
REMARK VINA RESULT:      -7.5      3.100      6.923
REMARK  Name = *****
REMARK                            x       y       z     vdW  Elec       q    Type
REMARK                         _______ _______ _______ _____ _____    ______ ____
ROOT
ATOM      1  C   LIG    1       24.595 -21.662   5.900  0.00  0.00    +0.170 C 
ENDROOT
BRANCH   1   2
ATOM      2  C   LIG    1       24.957 -23.143   5.926  0.00  0.00    +0.001 A 
ATOM      3  C   LIG    1       25.556 -23.762   7.040  0.00  0.00    +0.048 A 
ATOM      4 CL   LIG    1       25.894 -22.898   8.496  0.00  0.00    -0.083 Cl
ATOM      5  C   LIG    1       25.908 -25.116   7.004  0.00  0.00    +0.040 A 
ATOM      6  C   LIG    1       25.662 -25.867   5.858  0.00  0.00    +0.042 A 
ATOM      7 CL   LIG    1       26.085 -27.533   5.815  0.00  0.00    -0.084 Cl
ATOM      8  C   LIG    1       25.069 -25.279   4.746  0.00  0.00    +0.020 A 
ATOM      9  C   LIG    1       24.715 -23.930   4.783  0.00  0.00    +0.009 A 
ENDBRANCH   1   2
BRANCH   1  10
ATOM     10  O   LIG    1       25.656 -20.860   6.471  0.00  0.00    -0.365 OA
BRANCH  10  11
ATOM     11  C   LIG    1       26.752 -20.543   5.594  0.00  0.00    +0.197 C 
BRANCH  11  17
ATOM     12 CL   LIG    1       31.950 -19.263   8.341  0.00  0.00    -0.084 Cl
ATOM     13  C   LIG    1       30.425 -19.559   7.603  0.00  0.00    +0.042 A 
ATOM     14  C   LIG    1       29.990 -18.738   6.566  0.00  0.00    +0.040 A 
ATOM     15  C   LIG    1       28.773 -19.007   5.934  0.00  0.00    +0.048 A 
ATOM     16 CL   LIG    1       28.292 -17.945   4.658  0.00  0.00    -0.083 Cl
ATOM     17  C   LIG    1       27.997 -20.112   6.324  0.00  0.00    -0.004 A 
ATOM     18  C   LIG    1       28.429 -20.891   7.413  0.00  0.00    +0.009 A 
ATOM     19  C   LIG    1       29.643 -20.623   8.040  0.00  0.00    +0.020 A 
ENDBRANCH  11  17
ENDBRANCH  10  11
ENDBRANCH   1  10
BRANCH   1  20
ATOM     20  C   LIG    1       24.336 -21.183   4.451  0.00  0.00    +0.159 C 
BRANCH  20  21
ATOM     21  N   LIG    1       23.616 -19.920   4.396  0.00  0.00    -0.334 N 
ATOM     22  C   LIG    1       23.975 -18.811   3.686  0.00  0.00    +0.199 A 
ATOM     23  N   LIG    1       23.050 -17.885   3.733  0.00  0.00    -0.244 NA
ATOM     24  C   LIG    1       22.086 -18.383   4.566  0.00  0.00    +0.130 A 
ATOM     25  C   LIG    1       22.452 -19.614   5.048  0.00  0.00    +0.107 A 
ENDBRANCH  20  21
ENDBRANCH   1  20
TORSDOF 6
ENDMDL
MODEL 8
REMARK VINA RESULT:      -7.3      2.499      4.584
REMARK  Name = *****
REMARK                            x       y       z     vdW  Elec       q    Type
REMARK                         _______ _______ _______ _____ _____    ______ ____
ROOT
ATOM      1  C   LIG    1       25.277 -21.549   6.256  0.00  0.00    +0.170 C 
ENDROOT
BRANCH   1   2
ATOM      2  C   LIG    1       26.573 -20.831   6.618  0.00  0.00    +0.001 A 
ATOM      3  C   LIG    1       26.897 -20.461   7.937  0.00  0.00    +0.048 A 
ATOM      4 CL   LIG    1       25.865 -20.831   9.272  0.00  0.00    -0.083 Cl
ATOM      5  C   LIG    1       28.079 -19.767   8.217  0.00  0.00    +0.040 A 
ATOM      6  C   LIG    1       28.953 -19.439   7.184  0.00  0.00    +0.042 A 
ATOM      7 CL   LIG    1       30.411 -18.594   7.526  0.00  0.00    -0.084 Cl
ATOM      8  C   LIG    1       28.656 -19.795   5.873  0.00  0.00    +0.020 A 
ATOM      9  C   LIG    1       27.479 -20.491   5.594  0.00  0.00    +0.009 A 
ENDBRANCH   1   2
BRANCH   1  10
ATOM     10  O   LIG    1       25.138 -22.777   7.010  0.00  0.00    -0.365 OA
BRANCH  10  11
ATOM     11  C   LIG    1       26.197 -23.738   6.856  0.00  0.00    +0.197 C 
BRANCH  11  17
ATOM     12 CL   LIG    1       24.543 -29.277   5.187  0.00  0.00    -0.084 Cl
ATOM     13  C   LIG    1       24.989 -27.663   5.580  0.00  0.00    +0.042 A 
ATOM     14  C   LIG    1       24.005 -26.739   5.923  0.00  0.00    +0.040 A 
ATOM     15  C   LIG    1       24.371 -25.442   6.290  0.00  0.00    +0.048 A 
ATOM     16 CL   LIG    1       23.099 -24.347   6.699  0.00  0.00    -0.083 Cl
ATOM     17  C   LIG    1       25.726 -25.070   6.334  0.00  0.00    -0.004 A 
ATOM     18  C   LIG    1       26.696 -26.002   5.925  0.00  0.00    +0.009 A 
ATOM     19  C   LIG    1       26.330 -27.295   5.563  0.00  0.00    +0.020 A 
ENDBRANCH  11  17
ENDBRANCH  10  11
ENDBRANCH   1  10
BRANCH   1  20
ATOM     20  C   LIG    1       24.050 -20.649   6.543  0.00  0.00    +0.159 C 
BRANCH  20  21
ATOM     21  N   LIG    1       23.583 -19.943   5.359  0.00  0.00    -0.334 N 
ATOM     22  C   LIG    1       22.396 -19.282   5.225  0.00  0.00    +0.199 A 
ATOM     23  N   LIG    1       22.328 -18.633   4.089  0.00  0.00    -0.244 NA
ATOM     24  C   LIG    1       23.486 -18.944   3.429  0.00  0.00    +0.130 A 
ATOM     25  C   LIG    1       24.245 -19.815   4.169  0.00  0.00    +0.107 A 
ENDBRANCH  20  21
ENDBRANCH   1  20
TORSDOF 6
ENDMDL
MODEL 9
REMARK VINA RESULT:      -7.0      2.805      6.554
REMARK  Name = *****
REMARK                            x       y       z     vdW  Elec       q    Type
REMARK                         _______ _______ _______ _____ _____    ______ ____
ROOT
ATOM      1  C   LIG    1       25.072 -21.244   6.165  0.00  0.00    +0.170 C 
ENDROOT
BRANCH   1   2
ATOM      2  C   LIG    1       26.450 -20.699   6.526  0.00  0.00    +0.001 A 
ATOM      3  C   LIG    1       26.832 -20.410   7.849  0.00  0.00    +0.048 A 
ATOM      4 CL   LIG    1       25.780 -20.690   9.190  0.00  0.00    -0.083 Cl
ATOM      5  C   LIG    1       28.094 -19.873   8.130  0.00  0.00    +0.040 A 
ATOM      6  C   LIG    1       28.988 -19.623   7.093  0.00  0.00    +0.042 A 
ATOM      7 CL   LIG    1       30.542 -18.972   7.436  0.00  0.00    -0.084 Cl
ATOM      8  C   LIG    1       28.635 -19.903   5.778  0.00  0.00    +0.020 A 
ATOM      9  C   LIG    1       27.378 -20.442   5.498  0.00  0.00    +0.009 A 
ENDBRANCH   1   2
BRANCH   1  10
ATOM     10  O   LIG    1       25.119 -21.991   4.926  0.00  0.00    -0.365 OA
BRANCH  10  11
ATOM     11  C   LIG    1       24.395 -21.427   3.818  0.00  0.00    +0.197 C 
BRANCH  11  17
ATOM     12 CL   LIG    1       22.707 -15.664   4.208  0.00  0.00    -0.084 Cl
ATOM     13  C   LIG    1       23.202 -17.312   4.189  0.00  0.00    +0.042 A 
ATOM     14  C   LIG    1       22.314 -18.304   4.595  0.00  0.00    +0.040 A 
ATOM     15  C   LIG    1       22.699 -19.645   4.534  0.00  0.00    +0.048 A 
ATOM     16 CL   LIG    1       21.549 -20.824   5.057  0.00  0.00    -0.083 Cl
ATOM     17  C   LIG    1       23.969 -20.000   4.046  0.00  0.00    -0.004 A 
ATOM     18  C   LIG    1       24.870 -18.977   3.699  0.00  0.00    +0.009 A 
ATOM     19  C   LIG    1       24.484 -17.641   3.758  0.00  0.00    +0.020 A 
ENDBRANCH  11  17
ENDBRANCH  10  11
ENDBRANCH   1  10
BRANCH   1  20
ATOM     20  C   LIG    1       24.536 -22.170   7.283  0.00  0.00    +0.159 C 
BRANCH  20  21
ATOM     21  N   LIG    1       24.593 -23.579   6.922  0.00  0.00    -0.334 N 
ATOM     22  C   LIG    1       23.536 -24.373   6.585  0.00  0.00    +0.199 A 
ATOM     23  N   LIG    1       23.927 -25.556   6.179  0.00  0.00    -0.244 NA
ATOM     24  C   LIG    1       25.288 -25.553   6.329  0.00  0.00    +0.130 A 
ATOM     25  C   LIG    1       25.713 -24.362   6.859  0.00  0.00    +0.107 A 
ENDBRANCH  20  21
ENDBRANCH   1  20
TORSDOF 6
ENDMDL
