MODEL 1
REMARK VINA RESULT:      -9.8      0.000      0.000
REMARK  Name = *****
REMARK                            x       y       z     vdW  Elec       q    Type
REMARK                         _______ _______ _______ _____ _____    ______ ____
ROOT
ATOM      1  N   LIG    1       26.325 -21.504   7.704  0.00  0.00    -0.283 NA
ATOM      2  C   LIG    1       25.536 -21.776   6.718  0.00  0.00    +0.076 C 
ENDROOT
BRANCH   2   3
ATOM      3  C   LIG    1       24.947 -20.792   5.737  0.00  0.00    +0.045 A 
ATOM      4  C   LIG    1       25.721 -20.139   4.753  0.00  0.00    +0.126 A 
ATOM      5  C   LIG    1       25.131 -19.312   3.785  0.00  0.00    +0.049 A 
ATOM      6  C   LIG    1       23.757 -19.102   3.810  0.00  0.00    +0.042 A 
ATOM      7  C   LIG    1       23.003 -19.673   4.828  0.00  0.00    +0.124 A 
ATOM      8  F   LIG    1       21.684 -19.443   4.861  0.00  0.00    -0.205 F 
ATOM      9  C   LIG    1       23.581 -20.495   5.798  0.00  0.00    +0.052 A 
BRANCH   4  10
ATOM     10  O   LIG    1       27.080 -20.291   4.704  0.00  0.00    -0.506 OA
ATOM     11  H   LIG    1       27.354 -20.387   3.775  0.00  0.00    +0.292 HD
ENDBRANCH   4  10
ENDBRANCH   2   3
BRANCH   2  12
ATOM     12  C   LIG    1       25.179 -23.239   6.571  0.00  0.00    +0.001 A 
ATOM     13  C   LIG    1       26.226 -24.176   6.529  0.00  0.00    +0.011 A 
ATOM     14  C   LIG    1       25.958 -25.543   6.421  0.00  0.00    +0.020 A 
ATOM     15  C   LIG    1       24.640 -25.982   6.353  0.00  0.00    +0.041 A 
ATOM     16 CL   LIG    1       24.305 -27.667   6.263  0.00  0.00    -0.084 Cl
ATOM     17  C   LIG    1       23.590 -25.064   6.364  0.00  0.00    +0.020 A 
ATOM     18  C   LIG    1       23.858 -23.691   6.458  0.00  0.00    +0.011 A 
ENDBRANCH   2  12
BRANCH   1  19
ATOM     19  C   LIG    1       26.838 -20.217   8.152  0.00  0.00    +0.142 C 
BRANCH  19  20
ATOM     20  C   LIG    1       28.307 -20.087   7.689  0.00  0.00    +0.032 C 
BRANCH  20  21
ATOM     21  C   LIG    1       29.138 -21.358   7.903  0.00  0.00    +0.097 C 
BRANCH  21  25
ATOM     22  N   LIG    1       31.371 -20.365   7.872  0.00  0.00    -0.329 N 
ATOM     23  H   LIG    1       31.298 -20.196   6.875  0.00  0.00    +0.145 HD
ATOM     24  H   LIG    1       32.274 -20.214   8.303  0.00  0.00    +0.145 HD
ATOM     25  C   LIG    1       30.496 -21.162   8.536  0.00  0.00    +0.210 C 
ATOM     26  O   LIG    1       30.785 -21.610   9.657  0.00  0.00    -0.276 OA
ENDBRANCH  21  25
ENDBRANCH  20  21
ENDBRANCH  19  20
ENDBRANCH   1  19
TORSDOF 7
ENDMDL
MODEL 2
REMARK VINA RESULT:      -9.5      1.727      2.220
REMARK  Name = *****
REMARK                            x       y       z     vdW  Elec       q    Type
REMARK                         _______ _______ _______ _____ _____    ______ ____
ROOT
ATOM      1  N   LIG    1       26.657 -22.171   7.299  0.00  0.00    -0.283 NA
ATOM      2  C   LIG    1       25.613 -22.481   6.604  0.00  0.00    +0.076 C 
ENDROOT
BRANCH   2   3
ATOM      3  C   LIG    1       24.660 -21.523   5.931  0.00  0.00    +0.045 A 
ATOM      4  C   LIG    1       23.588 -20.907   6.613  0.00  0.00    +0.126 A 
ATOM      5  C   LIG    1       22.784 -19.940   5.993  0.00  0.00    +0.049 A 
ATOM      6  C   LIG    1       23.024 -19.598   4.667  0.00  0.00    +0.042 A 
ATOM      7  C   LIG    1       24.022 -20.264   3.965  0.00  0.00    +0.124 A 
ATOM      8  F   LIG    1       24.228 -19.949   2.680  0.00  0.00    -0.205 F 
ATOM      9  C   LIG    1       24.826 -21.231   4.573  0.00  0.00    +0.052 A 
BRANCH   4  10
ATOM     10  O   LIG    1       23.294 -21.230   7.909  0.00  0.00    -0.506 OA
ATOM     11  H   LIG    1       24.114 -21.498   8.361  0.00  0.00    +0.292 HD
ENDBRANCH   4  10
ENDBRANCH   2   3
BRANCH   2  12
ATOM     12  C   LIG    1       25.345 -23.966   6.484  0.00  0.00    +0.001 A 
ATOM     13  C   LIG    1       24.017 -24.388   6.310  0.00  0.00    +0.011 A 
ATOM     14  C   LIG    1       23.711 -25.744   6.166  0.00  0.00    +0.020 A 
ATOM     15  C   LIG    1       24.734 -26.686   6.197  0.00  0.00    +0.041 A 
ATOM     16 CL   LIG    1       24.365 -28.353   5.978  0.00  0.00    -0.084 Cl
ATOM     17  C   LIG    1       26.054 -26.287   6.399  0.00  0.00    +0.020 A 
ATOM     18  C   LIG    1       26.361 -24.928   6.558  0.00  0.00    +0.011 A 
ENDBRANCH   2  12
BRANCH   1  19
ATOM     19  C   LIG    1       27.185 -20.857   7.641  0.00  0.00    +0.142 C 
BRANCH  19  20
ATOM     20  C   LIG    1       28.492 -20.632   6.845  0.00  0.00    +0.032 C 
BRANCH  20  21
ATOM     21  C   LIG    1       29.433 -19.602   7.481  0.00  0.00    +0.097 C 
BRANCH  21  25
ATOM     22  N   LIG    1       31.099 -21.197   8.290  0.00  0.00    -0.329 N 
ATOM     23  H   LIG    1       30.429 -21.587   8.944  0.00  0.00    +0.145 HD
ATOM     24  H   LIG    1       32.061 -21.499   8.378  0.00  0.00    +0.145 HD
ATOM     25  C   LIG    1       30.875 -20.030   7.636  0.00  0.00    +0.210 C 
ATOM     26  O   LIG    1       31.816 -19.418   7.109  0.00  0.00    -0.276 OA
ENDBRANCH  21  25
ENDBRANCH  20  21
ENDBRANCH  19  20
ENDBRANCH   1  19
TORSDOF 7
ENDMDL
MODEL 3
REMARK VINA RESULT:      -9.3      3.500      5.648
REMARK  Name = *****
REMARK                            x       y       z     vdW  Elec       q    Type
REMARK                         _______ _______ _______ _____ _____    ______ ____
ROOT
ATOM      1  N   LIG    1       26.098 -23.073   6.908  0.00  0.00    -0.283 NA
ATOM      2  C   LIG    1       26.083 -21.842   6.517  0.00  0.00    +0.076 C 
ENDROOT
BRANCH   2   3
ATOM      3  C   LIG    1       24.922 -21.109   5.890  0.00  0.00    +0.045 A 
ATOM      4  C   LIG    1       23.784 -20.711   6.626  0.00  0.00    +0.126 A 
ATOM      5  C   LIG    1       22.769 -19.938   6.043  0.00  0.00    +0.049 A 
ATOM      6  C   LIG    1       22.865 -19.578   4.704  0.00  0.00    +0.042 A 
ATOM      7  C   LIG    1       23.939 -20.040   3.954  0.00  0.00    +0.124 A 
ATOM      8  F   LIG    1       24.011 -19.712   2.658  0.00  0.00    -0.205 F 
ATOM      9  C   LIG    1       24.954 -20.813   4.523  0.00  0.00    +0.052 A 
BRANCH   4  10
ATOM     10  O   LIG    1       23.629 -21.064   7.938  0.00  0.00    -0.506 OA
ATOM     11  H   LIG    1       23.176 -21.925   7.982  0.00  0.00    +0.292 HD
ENDBRANCH   4  10
ENDBRANCH   2   3
BRANCH   2  12
ATOM     12  C   LIG    1       27.384 -21.094   6.714  0.00  0.00    +0.001 A 
ATOM     13  C   LIG    1       28.261 -21.543   7.715  0.00  0.00    +0.011 A 
ATOM     14  C   LIG    1       29.489 -20.909   7.926  0.00  0.00    +0.020 A 
ATOM     15  C   LIG    1       29.845 -19.821   7.137  0.00  0.00    +0.041 A 
ATOM     16 CL   LIG    1       31.374 -19.065   7.366  0.00  0.00    -0.084 Cl
ATOM     17  C   LIG    1       28.973 -19.344   6.159  0.00  0.00    +0.020 A 
ATOM     18  C   LIG    1       27.736 -19.970   5.956  0.00  0.00    +0.011 A 
ENDBRANCH   2  12
BRANCH   1  19
ATOM     19  C   LIG    1       25.048 -24.080   6.839  0.00  0.00    +0.142 C 
BRANCH  19  20
ATOM     20  C   LIG    1       25.059 -24.703   5.424  0.00  0.00    +0.032 C 
BRANCH  20  21
ATOM     21  C   LIG    1       24.780 -26.211   5.410  0.00  0.00    +0.097 C 
BRANCH  21  25
ATOM     22  N   LIG    1       25.768 -28.445   5.466  0.00  0.00    -0.329 N 
ATOM     23  H   LIG    1       24.901 -28.835   5.818  0.00  0.00    +0.145 HD
ATOM     24  H   LIG    1       26.579 -29.051   5.457  0.00  0.00    +0.145 HD
ATOM     25  C   LIG    1       25.996 -27.108   5.428  0.00  0.00    +0.210 C 
ATOM     26  O   LIG    1       27.152 -26.674   5.309  0.00  0.00    -0.276 OA
ENDBRANCH  21  25
ENDBRANCH  20  21
ENDBRANCH  19  20
ENDBRANCH   1  19
TORSDOF 7
ENDMDL
MODEL 4
REMARK VINA RESULT:      -9.1      2.754      4.882
REMARK  Name = *****
REMARK                            x       y       z     vdW  Elec       q    Type
REMARK                         _______ _______ _______ _____ _____    ______ ____
ROOT
ATOM      1  N   LIG    1       23.483 -21.615   6.404  0.00  0.00    -0.283 NA
ATOM      2  C   LIG    1       24.672 -22.064   6.636  0.00  0.00    +0.076 C 
ENDROOT
BRANCH   2   3
ATOM      3  C   LIG    1       25.896 -21.244   6.968  0.00  0.00    +0.045 A 
ATOM      4  C   LIG    1       26.319 -21.007   8.294  0.00  0.00    +0.126 A 
ATOM      5  C   LIG    1       27.518 -20.334   8.571  0.00  0.00    +0.049 A 
ATOM      6  C   LIG    1       28.297 -19.861   7.521  0.00  0.00    +0.042 A 
ATOM      7  C   LIG    1       27.842 -20.016   6.217  0.00  0.00    +0.124 A 
ATOM      8  F   LIG    1       28.583 -19.533   5.212  0.00  0.00    -0.205 F 
ATOM      9  C   LIG    1       26.647 -20.682   5.930  0.00  0.00    +0.052 A 
BRANCH   4  10
ATOM     10  O   LIG    1       25.574 -21.427   9.361  0.00  0.00    -0.506 OA
ATOM     11  H   LIG    1       24.630 -21.378   9.126  0.00  0.00    +0.292 HD
ENDBRANCH   4  10
ENDBRANCH   2   3
BRANCH   2  12
ATOM     12  C   LIG    1       24.815 -23.567   6.546  0.00  0.00    +0.001 A 
ATOM     13  C   LIG    1       23.666 -24.327   6.272  0.00  0.00    +0.011 A 
ATOM     14  C   LIG    1       23.741 -25.718   6.151  0.00  0.00    +0.020 A 
ATOM     15  C   LIG    1       24.967 -26.356   6.305  0.00  0.00    +0.041 A 
ATOM     16 CL   LIG    1       25.071 -28.063   6.115  0.00  0.00    -0.084 Cl
ATOM     17  C   LIG    1       26.112 -25.620   6.608  0.00  0.00    +0.020 A 
ATOM     18  C   LIG    1       26.036 -24.226   6.743  0.00  0.00    +0.011 A 
ENDBRANCH   2  12
BRANCH   1  19
ATOM     19  C   LIG    1       23.001 -20.241   6.373  0.00  0.00    +0.142 C 
BRANCH  19  20
ATOM     20  C   LIG    1       22.393 -19.966   4.978  0.00  0.00    +0.032 C 
BRANCH  20  21
ATOM     21  C   LIG    1       23.157 -18.912   4.167  0.00  0.00    +0.097 C 
BRANCH  21  25
ATOM     22  N   LIG    1       25.434 -18.512   3.375  0.00  0.00    -0.329 N 
ATOM     23  H   LIG    1       25.292 -17.510   3.428  0.00  0.00    +0.145 HD
ATOM     24  H   LIG    1       26.281 -18.837   2.925  0.00  0.00    +0.145 HD
ATOM     25  C   LIG    1       24.407 -19.394   3.467  0.00  0.00    +0.210 C 
ATOM     26  O   LIG    1       24.550 -20.564   3.080  0.00  0.00    -0.276 OA
ENDBRANCH  21  25
ENDBRANCH  20  21
ENDBRANCH  19  20
ENDBRANCH   1  19
TORSDOF 7
ENDMDL
MODEL 5
REMARK VINA RESULT:      -9.1      3.970      6.387
REMARK  Name = *****
REMARK                            x       y       z     vdW  Elec       q    Type
REMARK                         _______ _______ _______ _____ _____    ______ ____
ROOT
ATOM      1  N   LIG    1       24.553 -21.189   6.948  0.00  0.00    -0.283 NA
ATOM      2  C   LIG    1       25.537 -21.982   6.677  0.00  0.00    +0.076 C 
ENDROOT
BRANCH   2   3
ATOM      3  C   LIG    1       25.444 -23.445   6.319  0.00  0.00    +0.045 A 
ATOM      4  C   LIG    1       25.014 -23.895   5.051  0.00  0.00    +0.126 A 
ATOM      5  C   LIG    1       25.039 -25.255   4.708  0.00  0.00    +0.049 A 
ATOM      6  C   LIG    1       25.467 -26.189   5.644  0.00  0.00    +0.042 A 
ATOM      7  C   LIG    1       25.809 -25.761   6.921  0.00  0.00    +0.124 A 
ATOM      8  F   LIG    1       26.194 -26.670   7.826  0.00  0.00    -0.205 F 
ATOM      9  C   LIG    1       25.784 -24.409   7.274  0.00  0.00    +0.052 A 
BRANCH   4  10
ATOM     10  O   LIG    1       24.557 -23.018   4.106  0.00  0.00    -0.506 OA
ATOM     11  H   LIG    1       23.590 -23.111   4.030  0.00  0.00    +0.292 HD
ENDBRANCH   4  10
ENDBRANCH   2   3
BRANCH   2  12
ATOM     12  C   LIG    1       26.908 -21.344   6.748  0.00  0.00    +0.001 A 
ATOM     13  C   LIG    1       27.209 -20.318   5.837  0.00  0.00    +0.011 A 
ATOM     14  C   LIG    1       28.449 -19.674   5.871  0.00  0.00    +0.020 A 
ATOM     15  C   LIG    1       29.395 -20.053   6.817  0.00  0.00    +0.041 A 
ATOM     16 CL   LIG    1       30.906 -19.233   6.890  0.00  0.00    -0.084 Cl
ATOM     17  C   LIG    1       29.123 -21.090   7.709  0.00  0.00    +0.020 A 
ATOM     18  C   LIG    1       27.885 -21.747   7.667  0.00  0.00    +0.011 A 
ENDBRANCH   2  12
BRANCH   1  19
ATOM     19  C   LIG    1       23.126 -21.472   7.006  0.00  0.00    +0.142 C 
BRANCH  19  20
ATOM     20  C   LIG    1       22.504 -21.136   5.631  0.00  0.00    +0.032 C 
BRANCH  20  21
ATOM     21  C   LIG    1       22.567 -19.647   5.270  0.00  0.00    +0.097 C 
BRANCH  21  25
ATOM     22  N   LIG    1       24.288 -20.276   3.653  0.00  0.00    -0.329 N 
ATOM     23  H   LIG    1       24.447 -21.150   4.141  0.00  0.00    +0.145 HD
ATOM     24  H   LIG    1       24.939 -20.030   2.918  0.00  0.00    +0.145 HD
ATOM     25  C   LIG    1       23.559 -19.268   4.195  0.00  0.00    +0.210 C 
ATOM     26  O   LIG    1       23.648 -18.117   3.739  0.00  0.00    -0.276 OA
ENDBRANCH  21  25
ENDBRANCH  20  21
ENDBRANCH  19  20
ENDBRANCH   1  19
TORSDOF 7
ENDMDL
MODEL 6
REMARK VINA RESULT:      -8.4      3.321      5.337
REMARK  Name = *****
REMARK                            x       y       z     vdW  Elec       q    Type
REMARK                         _______ _______ _______ _____ _____    ______ ____
ROOT
ATOM      1  N   LIG    1       26.134 -21.440   7.403  0.00  0.00    -0.283 NA
ATOM      2  C   LIG    1       25.278 -22.049   6.650  0.00  0.00    +0.076 C 
ENDROOT
BRANCH   2   3
ATOM      3  C   LIG    1       25.110 -23.541   6.500  0.00  0.00    +0.045 A 
ATOM      4  C   LIG    1       23.846 -24.171   6.494  0.00  0.00    +0.126 A 
ATOM      5  C   LIG    1       23.713 -25.545   6.245  0.00  0.00    +0.049 A 
ATOM      6  C   LIG    1       24.850 -26.315   6.029  0.00  0.00    +0.042 A 
ATOM      7  C   LIG    1       26.101 -25.717   6.120  0.00  0.00    +0.124 A 
ATOM      8  F   LIG    1       27.192 -26.471   5.938  0.00  0.00    -0.205 F 
ATOM      9  C   LIG    1       26.245 -24.350   6.370  0.00  0.00    +0.052 A 
BRANCH   4  10
ATOM     10  O   LIG    1       22.701 -23.461   6.730  0.00  0.00    -0.506 OA
ATOM     11  H   LIG    1       21.935 -24.055   6.626  0.00  0.00    +0.292 HD
ENDBRANCH   4  10
ENDBRANCH   2   3
BRANCH   2  12
ATOM     12  C   LIG    1       24.377 -21.138   5.845  0.00  0.00    +0.001 A 
ATOM     13  C   LIG    1       23.345 -20.463   6.518  0.00  0.00    +0.011 A 
ATOM     14  C   LIG    1       22.497 -19.589   5.833  0.00  0.00    +0.020 A 
ATOM     15  C   LIG    1       22.677 -19.386   4.468  0.00  0.00    +0.041 A 
ATOM     16 CL   LIG    1       21.662 -18.277   3.630  0.00  0.00    -0.084 Cl
ATOM     17  C   LIG    1       23.677 -20.071   3.779  0.00  0.00    +0.020 A 
ATOM     18  C   LIG    1       24.519 -20.959   4.463  0.00  0.00    +0.011 A 
ENDBRANCH   2  12
BRANCH   1  19
ATOM     19  C   LIG    1       27.161 -21.995   8.274  0.00  0.00    +0.142 C 
BRANCH  19  20
ATOM     20  C   LIG    1       28.535 -21.452   7.818  0.00  0.00    +0.032 C 
BRANCH  20  21
ATOM     21  C   LIG    1       28.548 -19.940   7.560  0.00  0.00    +0.097 C 
BRANCH  21  25
ATOM     22  N   LIG    1       27.930 -19.961   5.196  0.00  0.00    -0.329 N 
ATOM     23  H   LIG    1       27.364 -20.791   5.336  0.00  0.00    +0.145 HD
ATOM     24  H   LIG    1       28.085 -19.662   4.241  0.00  0.00    +0.145 HD
ATOM     25  C   LIG    1       28.804 -19.515   6.132  0.00  0.00    +0.210 C 
ATOM     26  O   LIG    1       29.700 -18.715   5.821  0.00  0.00    -0.276 OA
ENDBRANCH  21  25
ENDBRANCH  20  21
ENDBRANCH  19  20
ENDBRANCH   1  19
TORSDOF 7
ENDMDL
MODEL 7
REMARK VINA RESULT:      -8.1      3.117      5.030
REMARK  Name = *****
REMARK                            x       y       z     vdW  Elec       q    Type
REMARK                         _______ _______ _______ _____ _____    ______ ____
ROOT
ATOM      1  N   LIG    1       24.215 -21.862   6.670  0.00  0.00    -0.283 NA
ATOM      2  C   LIG    1       25.399 -22.364   6.533  0.00  0.00    +0.076 C 
ENDROOT
BRANCH   2   3
ATOM      3  C   LIG    1       26.709 -21.619   6.618  0.00  0.00    +0.045 A 
ATOM      4  C   LIG    1       27.080 -20.618   5.694  0.00  0.00    +0.126 A 
ATOM      5  C   LIG    1       28.253 -19.867   5.858  0.00  0.00    +0.049 A 
ATOM      6  C   LIG    1       29.090 -20.131   6.937  0.00  0.00    +0.042 A 
ATOM      7  C   LIG    1       28.774 -21.174   7.800  0.00  0.00    +0.124 A 
ATOM      8  F   LIG    1       29.599 -21.440   8.820  0.00  0.00    -0.205 F 
ATOM      9  C   LIG    1       27.609 -21.929   7.643  0.00  0.00    +0.052 A 
BRANCH   4  10
ATOM     10  O   LIG    1       26.305 -20.340   4.602  0.00  0.00    -0.506 OA
ATOM     11  H   LIG    1       25.429 -20.040   4.904  0.00  0.00    +0.292 HD
ENDBRANCH   4  10
ENDBRANCH   2   3
BRANCH   2  12
ATOM     12  C   LIG    1       25.432 -23.849   6.249  0.00  0.00    +0.001 A 
ATOM     13  C   LIG    1       25.025 -24.291   4.980  0.00  0.00    +0.011 A 
ATOM     14  C   LIG    1       25.060 -25.649   4.650  0.00  0.00    +0.020 A 
ATOM     15  C   LIG    1       25.502 -26.573   5.591  0.00  0.00    +0.041 A 
ATOM     16 CL   LIG    1       25.586 -28.241   5.174  0.00  0.00    -0.084 Cl
ATOM     17  C   LIG    1       25.882 -26.155   6.865  0.00  0.00    +0.020 A 
ATOM     18  C   LIG    1       25.834 -24.795   7.202  0.00  0.00    +0.011 A 
ENDBRANCH   2  12
BRANCH   1  19
ATOM     19  C   LIG    1       23.817 -20.483   6.913  0.00  0.00    +0.142 C 
BRANCH  19  20
ATOM     20  C   LIG    1       22.545 -20.187   6.085  0.00  0.00    +0.032 C 
BRANCH  20  21
ATOM     21  C   LIG    1       22.781 -19.237   4.905  0.00  0.00    +0.097 C 
BRANCH  21  25
ATOM     22  N   LIG    1       23.670 -21.083   3.573  0.00  0.00    -0.329 N 
ATOM     23  H   LIG    1       23.360 -21.753   4.268  0.00  0.00    +0.145 HD
ATOM     24  H   LIG    1       24.266 -21.428   2.831  0.00  0.00    +0.145 HD
ATOM     25  C   LIG    1       23.697 -19.749   3.817  0.00  0.00    +0.210 C 
ATOM     26  O   LIG    1       24.371 -18.995   3.097  0.00  0.00    -0.276 OA
ENDBRANCH  21  25
ENDBRANCH  20  21
ENDBRANCH  19  20
ENDBRANCH   1  19
TORSDOF 7
ENDMDL
MODEL 8
REMARK VINA RESULT:      -8.0      3.020      4.898
REMARK  Name = *****
REMARK                            x       y       z     vdW  Elec       q    Type
REMARK                         _______ _______ _______ _____ _____    ______ ____
ROOT
ATOM      1  N   LIG    1       26.923 -20.449   6.144  0.00  0.00    -0.283 NA
ATOM      2  C   LIG    1       25.854 -21.150   5.954  0.00  0.00    +0.076 C 
ENDROOT
BRANCH   2   3
ATOM      3  C   LIG    1       25.692 -22.631   6.195  0.00  0.00    +0.045 A 
ATOM      4  C   LIG    1       25.875 -23.223   7.464  0.00  0.00    +0.126 A 
ATOM      5  C   LIG    1       25.614 -24.584   7.682  0.00  0.00    +0.049 A 
ATOM      6  C   LIG    1       25.195 -25.379   6.622  0.00  0.00    +0.042 A 
ATOM      7  C   LIG    1       25.097 -24.821   5.353  0.00  0.00    +0.124 A 
ATOM      8  F   LIG    1       24.720 -25.600   4.332  0.00  0.00    -0.205 F 
ATOM      9  C   LIG    1       25.358 -23.468   5.125  0.00  0.00    +0.052 A 
BRANCH   4  10
ATOM     10  O   LIG    1       26.313 -22.489   8.531  0.00  0.00    -0.506 OA
ATOM     11  H   LIG    1       25.629 -22.501   9.225  0.00  0.00    +0.292 HD
ENDBRANCH   4  10
ENDBRANCH   2   3
BRANCH   2  12
ATOM     12  C   LIG    1       24.667 -20.373   5.427  0.00  0.00    +0.001 A 
ATOM     13  C   LIG    1       24.826 -19.646   4.236  0.00  0.00    +0.011 A 
ATOM     14  C   LIG    1       23.759 -18.931   3.687  0.00  0.00    +0.020 A 
ATOM     15  C   LIG    1       22.524 -18.938   4.328  0.00  0.00    +0.041 A 
ATOM     16 CL   LIG    1       21.196 -18.094   3.632  0.00  0.00    -0.084 Cl
ATOM     17  C   LIG    1       22.357 -19.630   5.527  0.00  0.00    +0.020 A 
ATOM     18  C   LIG    1       23.431 -20.336   6.086  0.00  0.00    +0.011 A 
ENDBRANCH   2  12
BRANCH   1  19
ATOM     19  C   LIG    1       28.238 -20.872   6.604  0.00  0.00    +0.142 C 
BRANCH  19  20
ATOM     20  C   LIG    1       28.682 -19.932   7.748  0.00  0.00    +0.032 C 
BRANCH  20  21
ATOM     21  C   LIG    1       30.122 -19.423   7.607  0.00  0.00    +0.097 C 
BRANCH  21  25
ATOM     22  N   LIG    1       31.277 -21.437   8.368  0.00  0.00    -0.329 N 
ATOM     23  H   LIG    1       30.531 -22.019   8.006  0.00  0.00    +0.145 HD
ATOM     24  H   LIG    1       31.979 -21.887   8.943  0.00  0.00    +0.145 HD
ATOM     25  C   LIG    1       31.150 -20.092   8.490  0.00  0.00    +0.210 C 
ATOM     26  O   LIG    1       31.923 -19.454   9.221  0.00  0.00    -0.276 OA
ENDBRANCH  21  25
ENDBRANCH  20  21
ENDBRANCH  19  20
ENDBRANCH   1  19
TORSDOF 7
ENDMDL
MODEL 9
REMARK VINA RESULT:      -7.9      3.084      5.241
REMARK  Name = *****
REMARK                            x       y       z     vdW  Elec       q    Type
REMARK                         _______ _______ _______ _____ _____    ______ ____
ROOT
ATOM      1  N   LIG    1       25.942 -22.836   7.232  0.00  0.00    -0.283 NA
ATOM      2  C   LIG    1       26.214 -21.640   6.822  0.00  0.00    +0.076 C 
ENDROOT
BRANCH   2   3
ATOM      3  C   LIG    1       25.390 -20.803   5.875  0.00  0.00    +0.045 A 
ATOM      4  C   LIG    1       25.946 -20.149   4.753  0.00  0.00    +0.126 A 
ATOM      5  C   LIG    1       25.140 -19.467   3.829  0.00  0.00    +0.049 A 
ATOM      6  C   LIG    1       23.767 -19.402   4.034  0.00  0.00    +0.042 A 
ATOM      7  C   LIG    1       23.226 -19.969   5.182  0.00  0.00    +0.124 A 
ATOM      8  F   LIG    1       21.906 -19.879   5.386  0.00  0.00    -0.205 F 
ATOM      9  C   LIG    1       24.019 -20.648   6.109  0.00  0.00    +0.052 A 
BRANCH   4  10
ATOM     10  O   LIG    1       27.294 -20.160   4.523  0.00  0.00    -0.506 OA
ATOM     11  H   LIG    1       27.500 -19.515   3.823  0.00  0.00    +0.292 HD
ENDBRANCH   4  10
ENDBRANCH   2   3
BRANCH   2  12
ATOM     12  C   LIG    1       27.503 -21.059   7.362  0.00  0.00    +0.001 A 
ATOM     13  C   LIG    1       28.658 -21.857   7.321  0.00  0.00    +0.011 A 
ATOM     14  C   LIG    1       29.883 -21.366   7.780  0.00  0.00    +0.020 A 
ATOM     15  C   LIG    1       29.959 -20.071   8.284  0.00  0.00    +0.041 A 
ATOM     16 CL   LIG    1       31.473 -19.448   8.810  0.00  0.00    -0.084 Cl
ATOM     17  C   LIG    1       28.816 -19.277   8.360  0.00  0.00    +0.020 A 
ATOM     18  C   LIG    1       27.583 -19.774   7.913  0.00  0.00    +0.011 A 
ENDBRANCH   2  12
BRANCH   1  19
ATOM     19  C   LIG    1       24.818 -23.697   6.893  0.00  0.00    +0.142 C 
BRANCH  19  20
ATOM     20  C   LIG    1       25.110 -24.371   5.532  0.00  0.00    +0.032 C 
BRANCH  20  21
ATOM     21  C   LIG    1       25.009 -25.901   5.565  0.00  0.00    +0.097 C 
BRANCH  21  25
ATOM     22  N   LIG    1       26.135 -27.371   7.159  0.00  0.00    -0.329 N 
ATOM     23  H   LIG    1       25.425 -27.182   7.857  0.00  0.00    +0.145 HD
ATOM     24  H   LIG    1       26.956 -27.882   7.459  0.00  0.00    +0.145 HD
ATOM     25  C   LIG    1       26.247 -26.636   6.024  0.00  0.00    +0.210 C 
ATOM     26  O   LIG    1       27.294 -26.667   5.359  0.00  0.00    -0.276 OA
ENDBRANCH  21  25
ENDBRANCH  20  21
ENDBRANCH  19  20
ENDBRANCH   1  19
TORSDOF 7
ENDMDL
