MODEL 1
REMARK VINA RESULT:      -7.7      0.000      0.000
REMARK  Name = *****
REMARK                            x       y       z     vdW  Elec       q    Type
REMARK                         _______ _______ _______ _____ _____    ______ ____
ROOT
ATOM      1  C   LIG    1       30.011 -20.348   7.340  0.00  0.00    +0.147 C 
ATOM      2  C   LIG    1       28.515 -20.564   7.250  0.00  0.00    +0.315 C 
ATOM      3  N   LIG    1       27.927 -20.183   6.070  0.00  0.00    -0.201 N 
ATOM      4  H   LIG    1       28.503 -19.783   5.338  0.00  0.00    +0.298 HD
ATOM      5  C   LIG    1       26.562 -20.299   5.819  0.00  0.00    +0.148 A 
ATOM      6  C   LIG    1       25.695 -20.829   6.767  0.00  0.00    +0.180 A 
ATOM      7  C   LIG    1       24.320 -20.957   6.541  0.00  0.00    +0.055 A 
ATOM      8  C   LIG    1       23.803 -20.539   5.322  0.00  0.00    +0.043 A 
ATOM      9  C   LIG    1       24.647 -20.004   4.348  0.00  0.00    +0.024 A 
ATOM     10 CL   LIG    1       22.119 -20.682   5.009  0.00  0.00    -0.084 Cl
ATOM     11  S   LIG    1       26.362 -21.364   8.307  0.00  0.00    +0.182 S 
ATOM     12  O   LIG    1       25.754 -20.506   9.307  0.00  0.00    -0.125 OA
ATOM     13  O   LIG    1       26.149 -22.798   8.339  0.00  0.00    -0.125 OA
ATOM     14  C   LIG    1       26.020 -19.884   4.597  0.00  0.00    +0.052 A 
ATOM     15  N   LIG    1       27.952 -21.080   8.286  0.00  0.00    +0.090 NA
ENDROOT
TORSDOF 0
ENDMDL
MODEL 2
REMARK VINA RESULT:      -7.2      3.421      3.633
REMARK  Name = *****
REMARK                            x       y       z     vdW  Elec       q    Type
REMARK                         _______ _______ _______ _____ _____    ______ ____
ROOT
ATOM      1  C   LIG    1       25.663 -25.162   5.522  0.00  0.00    +0.147 C 
ATOM      2  C   LIG    1       24.888 -23.872   5.701  0.00  0.00    +0.315 C 
ATOM      3  N   LIG    1       24.928 -23.001   4.642  0.00  0.00    -0.201 N 
ATOM      4  H   LIG    1       25.461 -23.250   3.817  0.00  0.00    +0.298 HD
ATOM      5  C   LIG    1       24.282 -21.766   4.639  0.00  0.00    +0.148 A 
ATOM      6  C   LIG    1       23.535 -21.338   5.730  0.00  0.00    +0.180 A 
ATOM      7  C   LIG    1       22.877 -20.104   5.753  0.00  0.00    +0.055 A 
ATOM      8  C   LIG    1       22.975 -19.275   4.643  0.00  0.00    +0.043 A 
ATOM      9  C   LIG    1       23.717 -19.676   3.531  0.00  0.00    +0.024 A 
ATOM     10 CL   LIG    1       22.179 -17.752   4.635  0.00  0.00    -0.084 Cl
ATOM     11  S   LIG    1       23.410 -22.400   7.130  0.00  0.00    +0.182 S 
ATOM     12  O   LIG    1       24.044 -21.677   8.217  0.00  0.00    -0.125 OA
ATOM     13  O   LIG    1       22.010 -22.768   7.208  0.00  0.00    -0.125 OA
ATOM     14  C   LIG    1       24.368 -20.916   3.531  0.00  0.00    +0.052 A 
ATOM     15  N   LIG    1       24.275 -23.729   6.825  0.00  0.00    +0.090 NA
ENDROOT
TORSDOF 0
ENDMDL
MODEL 3
REMARK VINA RESULT:      -7.2      3.019      4.550
REMARK  Name = *****
REMARK                            x       y       z     vdW  Elec       q    Type
REMARK                         _______ _______ _______ _____ _____    ______ ____
ROOT
ATOM      1  C   LIG    1       24.246 -20.307   3.943  0.00  0.00    +0.147 C 
ATOM      2  C   LIG    1       25.253 -20.638   5.026  0.00  0.00    +0.315 C 
ATOM      3  N   LIG    1       26.456 -19.986   4.941  0.00  0.00    -0.201 N 
ATOM      4  H   LIG    1       26.613 -19.336   4.179  0.00  0.00    +0.298 HD
ATOM      5  C   LIG    1       27.500 -20.178   5.844  0.00  0.00    +0.148 A 
ATOM      6  C   LIG    1       27.377 -21.055   6.915  0.00  0.00    +0.180 A 
ATOM      7  C   LIG    1       28.408 -21.267   7.836  0.00  0.00    +0.055 A 
ATOM      8  C   LIG    1       29.600 -20.573   7.673  0.00  0.00    +0.043 A 
ATOM      9  C   LIG    1       29.755 -19.684   6.609  0.00  0.00    +0.024 A 
ATOM     10 CL   LIG    1       30.889 -20.807   8.786  0.00  0.00    -0.084 Cl
ATOM     11  S   LIG    1       25.858 -21.924   7.116  0.00  0.00    +0.182 S 
ATOM     12  O   LIG    1       26.195 -23.327   6.960  0.00  0.00    -0.125 OA
ATOM     13  O   LIG    1       25.300 -21.436   8.363  0.00  0.00    -0.125 OA
ATOM     14  C   LIG    1       28.709 -19.489   5.698  0.00  0.00    +0.052 A 
ATOM     15  N   LIG    1       24.875 -21.495   5.910  0.00  0.00    +0.090 NA
ENDROOT
TORSDOF 0
ENDMDL
MODEL 4
REMARK VINA RESULT:      -6.9      3.739      4.588
REMARK  Name = *****
REMARK                            x       y       z     vdW  Elec       q    Type
REMARK                         _______ _______ _______ _____ _____    ______ ____
ROOT
ATOM      1  C   LIG    1       24.186 -19.880   4.059  0.00  0.00    +0.147 C 
ATOM      2  C   LIG    1       24.651 -20.998   4.970  0.00  0.00    +0.315 C 
ATOM      3  N   LIG    1       24.541 -22.267   4.461  0.00  0.00    -0.201 N 
ATOM      4  H   LIG    1       24.161 -22.395   3.530  0.00  0.00    +0.298 HD
ATOM      5  C   LIG    1       24.910 -23.412   5.164  0.00  0.00    +0.148 A 
ATOM      6  C   LIG    1       25.434 -23.333   6.449  0.00  0.00    +0.180 A 
ATOM      7  C   LIG    1       25.813 -24.466   7.178  0.00  0.00    +0.055 A 
ATOM      8  C   LIG    1       25.660 -25.716   6.593  0.00  0.00    +0.043 A 
ATOM      9  C   LIG    1       25.139 -25.829   5.304  0.00  0.00    +0.024 A 
ATOM     10 CL   LIG    1       26.116 -27.130   7.457  0.00  0.00    -0.084 Cl
ATOM     11  S   LIG    1       25.631 -21.742   7.178  0.00  0.00    +0.182 S 
ATOM     12  O   LIG    1       24.750 -21.737   8.332  0.00  0.00    -0.125 OA
ATOM     13  O   LIG    1       27.062 -21.571   7.344  0.00  0.00    -0.125 OA
ATOM     14  C   LIG    1       24.765 -24.681   4.593  0.00  0.00    +0.052 A 
ATOM     15  N   LIG    1       25.100 -20.641   6.123  0.00  0.00    +0.090 NA
ENDROOT
TORSDOF 0
ENDMDL
MODEL 5
REMARK VINA RESULT:      -6.2      3.653      4.849
REMARK  Name = *****
REMARK                            x       y       z     vdW  Elec       q    Type
REMARK                         _______ _______ _______ _____ _____    ______ ____
ROOT
ATOM      1  C   LIG    1       22.628 -23.656   6.851  0.00  0.00    +0.147 C 
ATOM      2  C   LIG    1       23.595 -22.611   6.333  0.00  0.00    +0.315 C 
ATOM      3  N   LIG    1       24.834 -22.600   6.922  0.00  0.00    -0.201 N 
ATOM      4  H   LIG    1       25.037 -23.268   7.657  0.00  0.00    +0.298 HD
ATOM      5  C   LIG    1       25.840 -21.701   6.577  0.00  0.00    +0.148 A 
ATOM      6  C   LIG    1       25.648 -20.746   5.585  0.00  0.00    +0.180 A 
ATOM      7  C   LIG    1       26.642 -19.831   5.220  0.00  0.00    +0.055 A 
ATOM      8  C   LIG    1       27.867 -19.881   5.872  0.00  0.00    +0.043 A 
ATOM      9  C   LIG    1       28.092 -20.829   6.871  0.00  0.00    +0.024 A 
ATOM     10 CL   LIG    1       29.111 -18.774   5.448  0.00  0.00    -0.084 Cl
ATOM     11  S   LIG    1       24.093 -20.697   4.759  0.00  0.00    +0.182 S 
ATOM     12  O   LIG    1       23.526 -19.402   5.087  0.00  0.00    -0.125 OA
ATOM     13  O   LIG    1       24.381 -21.047   3.381  0.00  0.00    -0.125 OA
ATOM     14  C   LIG    1       27.082 -21.734   7.221  0.00  0.00    +0.052 A 
ATOM     15  N   LIG    1       23.154 -21.845   5.397  0.00  0.00    +0.090 NA
ENDROOT
TORSDOF 0
ENDMDL
MODEL 6
REMARK VINA RESULT:      -6.2      4.121      5.224
REMARK  Name = *****
REMARK                            x       y       z     vdW  Elec       q    Type
REMARK                         _______ _______ _______ _____ _____    ______ ____
ROOT
ATOM      1  C   LIG    1       21.802 -17.895   4.422  0.00  0.00    +0.147 C 
ATOM      2  C   LIG    1       22.756 -19.060   4.583  0.00  0.00    +0.315 C 
ATOM      3  N   LIG    1       22.338 -20.061   5.424  0.00  0.00    -0.201 N 
ATOM      4  H   LIG    1       21.441 -19.975   5.887  0.00  0.00    +0.298 HD
ATOM      5  C   LIG    1       23.093 -21.199   5.697  0.00  0.00    +0.148 A 
ATOM      6  C   LIG    1       24.339 -21.399   5.112  0.00  0.00    +0.180 A 
ATOM      7  C   LIG    1       25.117 -22.532   5.369  0.00  0.00    +0.055 A 
ATOM      8  C   LIG    1       24.625 -23.496   6.240  0.00  0.00    +0.043 A 
ATOM      9  C   LIG    1       23.378 -23.326   6.842  0.00  0.00    +0.024 A 
ATOM     10 CL   LIG    1       25.554 -24.902   6.578  0.00  0.00    -0.084 Cl
ATOM     11  S   LIG    1       24.949 -20.175   4.002  0.00  0.00    +0.182 S 
ATOM     12  O   LIG    1       26.148 -19.651   4.631  0.00  0.00    -0.125 OA
ATOM     13  O   LIG    1       25.022 -20.831   2.711  0.00  0.00    -0.125 OA
ATOM     14  C   LIG    1       22.616 -22.182   6.571  0.00  0.00    +0.052 A 
ATOM     15  N   LIG    1       23.856 -18.990   3.917  0.00  0.00    +0.090 NA
ENDROOT
TORSDOF 0
ENDMDL
MODEL 7
REMARK VINA RESULT:      -6.1      2.753      3.660
REMARK  Name = *****
REMARK                            x       y       z     vdW  Elec       q    Type
REMARK                         _______ _______ _______ _____ _____    ______ ____
ROOT
ATOM      1  C   LIG    1       24.339 -25.279   6.598  0.00  0.00    +0.147 C 
ATOM      2  C   LIG    1       24.805 -23.863   6.327  0.00  0.00    +0.315 C 
ATOM      3  N   LIG    1       24.325 -23.287   5.179  0.00  0.00    -0.201 N 
ATOM      4  H   LIG    1       23.704 -23.820   4.580  0.00  0.00    +0.298 HD
ATOM      5  C   LIG    1       24.658 -21.998   4.769  0.00  0.00    +0.148 A 
ATOM      6  C   LIG    1       25.508 -21.196   5.522  0.00  0.00    +0.180 A 
ATOM      7  C   LIG    1       25.858 -19.899   5.134  0.00  0.00    +0.055 A 
ATOM      8  C   LIG    1       25.335 -19.392   3.952  0.00  0.00    +0.043 A 
ATOM      9  C   LIG    1       24.478 -20.171   3.173  0.00  0.00    +0.024 A 
ATOM     10 CL   LIG    1       25.743 -17.802   3.444  0.00  0.00    -0.084 Cl
ATOM     11  S   LIG    1       26.159 -21.846   7.025  0.00  0.00    +0.182 S 
ATOM     12  O   LIG    1       27.595 -21.908   6.825  0.00  0.00    -0.125 OA
ATOM     13  O   LIG    1       25.597 -21.018   8.075  0.00  0.00    -0.125 OA
ATOM     14  C   LIG    1       24.142 -21.468   3.581  0.00  0.00    +0.052 A 
ATOM     15  N   LIG    1       25.600 -23.350   7.200  0.00  0.00    +0.090 NA
ENDROOT
TORSDOF 0
ENDMDL
MODEL 8
REMARK VINA RESULT:      -5.7      3.201      3.951
REMARK  Name = *****
REMARK                            x       y       z     vdW  Elec       q    Type
REMARK                         _______ _______ _______ _____ _____    ______ ____
ROOT
ATOM      1  C   LIG    1       31.499 -21.827   9.498  0.00  0.00    +0.147 C 
ATOM      2  C   LIG    1       30.658 -21.096   8.472  0.00  0.00    +0.315 C 
ATOM      3  N   LIG    1       29.434 -21.653   8.199  0.00  0.00    -0.201 N 
ATOM      4  H   LIG    1       29.160 -22.503   8.678  0.00  0.00    +0.298 HD
ATOM      5  C   LIG    1       28.536 -21.120   7.276  0.00  0.00    +0.148 A 
ATOM      6  C   LIG    1       28.830 -19.961   6.567  0.00  0.00    +0.180 A 
ATOM      7  C   LIG    1       27.948 -19.406   5.635  0.00  0.00    +0.055 A 
ATOM      8  C   LIG    1       26.731 -20.036   5.411  0.00  0.00    +0.043 A 
ATOM      9  C   LIG    1       26.405 -21.201   6.107  0.00  0.00    +0.024 A 
ATOM     10 CL   LIG    1       25.621 -19.382   4.273  0.00  0.00    -0.084 Cl
ATOM     11  S   LIG    1       30.373 -19.165   6.866  0.00  0.00    +0.182 S 
ATOM     12  O   LIG    1       31.091 -19.237   5.606  0.00  0.00    -0.125 OA
ATOM     13  O   LIG    1       30.035 -17.881   7.448  0.00  0.00    -0.125 OA
ATOM     14  C   LIG    1       27.305 -21.740   7.035  0.00  0.00    +0.052 A 
ATOM     15  N   LIG    1       31.177 -20.033   7.964  0.00  0.00    +0.090 NA
ENDROOT
TORSDOF 0
ENDMDL
MODEL 9
REMARK VINA RESULT:      -5.2      8.838      9.630
REMARK  Name = *****
REMARK                            x       y       z     vdW  Elec       q    Type
REMARK                         _______ _______ _______ _____ _____    ______ ____
ROOT
ATOM      1  C   LIG    1       25.640 -26.070   5.116  0.00  0.00    +0.147 C 
ATOM      2  C   LIG    1       25.489 -27.392   5.840  0.00  0.00    +0.315 C 
ATOM      3  N   LIG    1       25.924 -27.412   7.141  0.00  0.00    -0.201 N 
ATOM      4  H   LIG    1       26.318 -26.569   7.544  0.00  0.00    +0.298 HD
ATOM      5  C   LIG    1       25.872 -28.544   7.951  0.00  0.00    +0.148 A 
ATOM      6  C   LIG    1       25.355 -29.746   7.481  0.00  0.00    +0.180 A 
ATOM      7  C   LIG    1       25.292 -30.898   8.272  0.00  0.00    +0.055 A 
ATOM      8  C   LIG    1       25.761 -30.837   9.578  0.00  0.00    +0.043 A 
ATOM      9  C   LIG    1       26.285 -29.645  10.080  0.00  0.00    +0.024 A 
ATOM     10 CL   LIG    1       25.698 -32.232  10.579  0.00  0.00    -0.084 Cl
ATOM     11  S   LIG    1       24.755 -29.811   5.826  0.00  0.00    +0.182 S 
ATOM     12  O   LIG    1       25.612 -30.762   5.144  0.00  0.00    -0.125 OA
ATOM     13  O   LIG    1       23.330 -30.057   5.945  0.00  0.00    -0.125 OA
ATOM     14  C   LIG    1       26.340 -28.505   9.269  0.00  0.00    +0.052 A 
ATOM     15  N   LIG    1       24.971 -28.356   5.161  0.00  0.00    +0.090 NA
ENDROOT
TORSDOF 0
ENDMDL
