MODEL 1
REMARK VINA RESULT:      -7.8      0.000      0.000
REMARK  Name = *****
REMARK                            x       y       z     vdW  Elec       q    Type
REMARK                         _______ _______ _______ _____ _____    ______ ____
ROOT
ATOM      1  C   LIG    1       29.148 -18.923   5.360  0.00  0.00    +0.088 C 
ATOM      2  C   LIG    1       28.586 -19.436   6.631  0.00  0.00    +0.135 A 
ATOM      3  N   LIG    1       27.411 -20.164   6.785  0.00  0.00    -0.275 N 
ATOM      4  C   LIG    1       26.400 -20.522   5.887  0.00  0.00    +0.097 A 
ATOM      5  C   LIG    1       25.528 -21.595   6.013  0.00  0.00    +0.033 A 
ATOM      6  C   LIG    1       25.615 -22.649   7.031  0.00  0.00    +0.077 C 
ATOM      7  N   LIG    1       25.942 -22.454   8.259  0.00  0.00    -0.275 NA
ATOM      8  C   LIG    1       26.224 -21.122   8.778  0.00  0.00    +0.218 C 
ATOM      9  C   LIG    1       24.575 -21.577   4.926  0.00  0.00    +0.035 A 
ATOM     10  C   LIG    1       24.798 -20.537   4.061  0.00  0.00    +0.058 A 
ATOM     11 BR   LIG    1       23.764 -20.220   2.533  0.00  0.00    -0.043 Br
ATOM     12  S   LIG    1       26.115 -19.579   4.506  0.00  0.00    -0.063 S 
ATOM     13  C   LIG    1       27.393 -20.481   8.130  0.00  0.00    +0.160 A 
ATOM     14  N   LIG    1       28.456 -19.995   8.731  0.00  0.00    -0.132 NA
ATOM     15  N   LIG    1       29.201 -19.343   7.793  0.00  0.00    -0.134 NA
ENDROOT
BRANCH   6  16
ATOM     16  C   LIG    1       25.270 -24.035   6.621  0.00  0.00    +0.019 A 
ATOM     17  C   LIG    1       23.949 -24.493   6.534  0.00  0.00    +0.050 A 
ATOM     18 CL   LIG    1       22.583 -23.481   6.834  0.00  0.00    -0.083 Cl
ATOM     19  C   LIG    1       23.702 -25.816   6.152  0.00  0.00    +0.021 A 
ATOM     20  C   LIG    1       24.763 -26.671   5.845  0.00  0.00    +0.002 A 
ATOM     21  C   LIG    1       26.076 -26.208   5.908  0.00  0.00    +0.001 A 
ATOM     22  C   LIG    1       26.331 -24.890   6.290  0.00  0.00    +0.011 A 
ENDBRANCH   6  16
TORSDOF 1
ENDMDL
MODEL 2
REMARK VINA RESULT:      -6.2      7.589      9.841
REMARK  Name = *****
REMARK                            x       y       z     vdW  Elec       q    Type
REMARK                         _______ _______ _______ _____ _____    ______ ____
ROOT
ATOM      1  C   LIG    1       23.276 -32.324   5.876  0.00  0.00    +0.088 C 
ATOM      2  C   LIG    1       24.477 -32.607   6.697  0.00  0.00    +0.135 A 
ATOM      3  N   LIG    1       25.270 -31.672   7.355  0.00  0.00    -0.275 N 
ATOM      4  C   LIG    1       25.269 -30.274   7.364  0.00  0.00    +0.097 A 
ATOM      5  C   LIG    1       25.778 -29.456   8.363  0.00  0.00    +0.033 A 
ATOM      6  C   LIG    1       26.263 -29.910   9.673  0.00  0.00    +0.077 C 
ATOM      7  N   LIG    1       26.941 -30.985   9.868  0.00  0.00    -0.275 NA
ATOM      8  C   LIG    1       27.336 -31.856   8.768  0.00  0.00    +0.218 C 
ATOM      9  C   LIG    1       25.665 -28.072   7.962  0.00  0.00    +0.035 A 
ATOM     10  C   LIG    1       25.073 -27.936   6.732  0.00  0.00    +0.058 A 
ATOM     11 BR   LIG    1       24.755 -26.285   5.912  0.00  0.00    -0.043 Br
ATOM     12  S   LIG    1       24.644 -29.415   6.041  0.00  0.00    -0.063 S 
ATOM     13  C   LIG    1       26.182 -32.446   8.049  0.00  0.00    +0.160 A 
ATOM     14  N   LIG    1       25.959 -33.723   7.835  0.00  0.00    -0.132 NA
ATOM     15  N   LIG    1       24.892 -33.822   6.992  0.00  0.00    -0.134 NA
ENDROOT
BRANCH   6  16
ATOM     16  C   LIG    1       25.978 -29.050  10.850  0.00  0.00    +0.019 A 
ATOM     17  C   LIG    1       24.756 -29.081  11.534  0.00  0.00    +0.050 A 
ATOM     18 CL   LIG    1       23.476 -30.163  11.119  0.00  0.00    -0.083 Cl
ATOM     19  C   LIG    1       24.556 -28.232  12.628  0.00  0.00    +0.021 A 
ATOM     20  C   LIG    1       25.573 -27.369  13.045  0.00  0.00    +0.002 A 
ATOM     21  C   LIG    1       26.797 -27.356  12.380  0.00  0.00    +0.001 A 
ATOM     22  C   LIG    1       27.004 -28.199  11.287  0.00  0.00    +0.011 A 
ENDBRANCH   6  16
TORSDOF 1
ENDMDL
MODEL 3
REMARK VINA RESULT:      -6.2      7.881      9.181
REMARK  Name = *****
REMARK                            x       y       z     vdW  Elec       q    Type
REMARK                         _______ _______ _______ _____ _____    ______ ____
ROOT
ATOM      1  C   LIG    1       24.033 -27.128  13.681  0.00  0.00    +0.088 C 
ATOM      2  C   LIG    1       25.272 -27.704  13.107  0.00  0.00    +0.135 A 
ATOM      3  N   LIG    1       25.354 -28.610  12.055  0.00  0.00    -0.275 N 
ATOM      4  C   LIG    1       24.380 -29.306  11.331  0.00  0.00    +0.097 A 
ATOM      5  C   LIG    1       24.516 -29.819  10.048  0.00  0.00    +0.033 A 
ATOM      6  C   LIG    1       25.653 -29.580   9.151  0.00  0.00    +0.077 C 
ATOM      7  N   LIG    1       26.883 -29.530   9.526  0.00  0.00    -0.275 NA
ATOM      8  C   LIG    1       27.274 -29.754  10.912  0.00  0.00    +0.218 C 
ATOM      9  C   LIG    1       23.320 -30.544   9.686  0.00  0.00    +0.035 A 
ATOM     10  C   LIG    1       22.375 -30.513  10.680  0.00  0.00    +0.058 A 
ATOM     11 BR   LIG    1       20.699 -31.335  10.543  0.00  0.00    -0.043 Br
ATOM     12  S   LIG    1       22.873 -29.639  12.035  0.00  0.00    -0.063 S 
ATOM     13  C   LIG    1       26.714 -28.747  11.844  0.00  0.00    +0.160 A 
ATOM     14  N   LIG    1       27.387 -27.993  12.684  0.00  0.00    -0.132 NA
ATOM     15  N   LIG    1       26.485 -27.341  13.472  0.00  0.00    -0.134 NA
ENDROOT
BRANCH   6  16
ATOM     16  C   LIG    1       25.367 -29.416   7.703  0.00  0.00    +0.019 A 
ATOM     17  C   LIG    1       25.453 -30.474   6.788  0.00  0.00    +0.050 A 
ATOM     18 CL   LIG    1       25.842 -32.090   7.257  0.00  0.00    -0.083 Cl
ATOM     19  C   LIG    1       25.181 -30.241   5.436  0.00  0.00    +0.021 A 
ATOM     20  C   LIG    1       24.810 -28.966   5.001  0.00  0.00    +0.002 A 
ATOM     21  C   LIG    1       24.700 -27.920   5.915  0.00  0.00    +0.001 A 
ATOM     22  C   LIG    1       24.972 -28.143   7.265  0.00  0.00    +0.011 A 
ENDBRANCH   6  16
TORSDOF 1
ENDMDL
MODEL 4
REMARK VINA RESULT:      -6.1      7.992     10.037
REMARK  Name = *****
REMARK                            x       y       z     vdW  Elec       q    Type
REMARK                         _______ _______ _______ _____ _____    ______ ____
ROOT
ATOM      1  C   LIG    1       25.439 -32.449   4.035  0.00  0.00    +0.088 C 
ATOM      2  C   LIG    1       26.086 -32.709   5.342  0.00  0.00    +0.135 A 
ATOM      3  N   LIG    1       26.037 -31.893   6.468  0.00  0.00    -0.275 N 
ATOM      4  C   LIG    1       25.507 -30.617   6.686  0.00  0.00    +0.097 A 
ATOM      5  C   LIG    1       25.110 -30.087   7.906  0.00  0.00    +0.033 A 
ATOM      6  C   LIG    1       25.019 -30.829   9.169  0.00  0.00    +0.077 C 
ATOM      7  N   LIG    1       25.859 -31.724   9.553  0.00  0.00    -0.275 NA
ATOM      8  C   LIG    1       27.037 -32.063   8.764  0.00  0.00    +0.218 C 
ATOM      9  C   LIG    1       24.699 -28.713   7.727  0.00  0.00    +0.035 A 
ATOM     10  C   LIG    1       24.787 -28.313   6.418  0.00  0.00    +0.058 A 
ATOM     11 BR   LIG    1       24.320 -26.600   5.824  0.00  0.00    -0.043 Br
ATOM     12  S   LIG    1       25.343 -29.532   5.392  0.00  0.00    -0.063 S 
ATOM     13  C   LIG    1       26.703 -32.625   7.434  0.00  0.00    +0.160 A 
ATOM     14  N   LIG    1       27.111 -33.772   6.940  0.00  0.00    -0.132 NA
ATOM     15  N   LIG    1       26.724 -33.824   5.634  0.00  0.00    -0.134 NA
ENDROOT
BRANCH   6  16
ATOM     16  C   LIG    1       23.895 -30.501  10.083  0.00  0.00    +0.019 A 
ATOM     17  C   LIG    1       24.040 -29.657  11.191  0.00  0.00    +0.050 A 
ATOM     18 CL   LIG    1       25.524 -28.861  11.576  0.00  0.00    -0.083 Cl
ATOM     19  C   LIG    1       22.938 -29.404  12.014  0.00  0.00    +0.021 A 
ATOM     20  C   LIG    1       21.697 -29.976  11.727  0.00  0.00    +0.002 A 
ATOM     21  C   LIG    1       21.547 -30.796  10.610  0.00  0.00    +0.001 A 
ATOM     22  C   LIG    1       22.641 -31.055   9.785  0.00  0.00    +0.011 A 
ENDBRANCH   6  16
TORSDOF 1
ENDMDL
MODEL 5
REMARK VINA RESULT:      -6.1      7.151     10.105
REMARK  Name = *****
REMARK                            x       y       z     vdW  Elec       q    Type
REMARK                         _______ _______ _______ _____ _____    ______ ____
ROOT
ATOM      1  C   LIG    1       27.469 -33.607   9.088  0.00  0.00    +0.088 C 
ATOM      2  C   LIG    1       27.156 -33.279   7.677  0.00  0.00    +0.135 A 
ATOM      3  N   LIG    1       26.221 -32.352   7.228  0.00  0.00    -0.275 N 
ATOM      4  C   LIG    1       25.268 -31.575   7.896  0.00  0.00    +0.097 A 
ATOM      5  C   LIG    1       24.711 -30.387   7.444  0.00  0.00    +0.033 A 
ATOM      6  C   LIG    1       25.143 -29.640   6.256  0.00  0.00    +0.077 C 
ATOM      7  N   LIG    1       25.503 -30.179   5.145  0.00  0.00    -0.275 NA
ATOM      8  C   LIG    1       25.475 -31.623   4.946  0.00  0.00    +0.218 C 
ATOM      9  C   LIG    1       23.705 -29.936   8.378  0.00  0.00    +0.035 A 
ATOM     10  C   LIG    1       23.587 -30.776   9.457  0.00  0.00    +0.058 A 
ATOM     11 BR   LIG    1       22.392 -30.490  10.868  0.00  0.00    -0.043 Br
ATOM     12  S   LIG    1       24.646 -32.088   9.389  0.00  0.00    -0.063 S 
ATOM     13  C   LIG    1       26.388 -32.353   5.856  0.00  0.00    +0.160 A 
ATOM     14  N   LIG    1       27.335 -33.196   5.510  0.00  0.00    -0.132 NA
ATOM     15  N   LIG    1       27.815 -33.773   6.648  0.00  0.00    -0.134 NA
ENDROOT
BRANCH   6  16
ATOM     16  C   LIG    1       25.132 -28.157   6.332  0.00  0.00    +0.019 A 
ATOM     17  C   LIG    1       25.817 -27.442   7.323  0.00  0.00    +0.050 A 
ATOM     18 CL   LIG    1       26.796 -28.207   8.523  0.00  0.00    -0.083 Cl
ATOM     19  C   LIG    1       25.750 -26.046   7.337  0.00  0.00    +0.021 A 
ATOM     20  C   LIG    1       25.017 -25.365   6.362  0.00  0.00    +0.002 A 
ATOM     21  C   LIG    1       24.356 -26.075   5.362  0.00  0.00    +0.001 A 
ATOM     22  C   LIG    1       24.416 -27.468   5.341  0.00  0.00    +0.011 A 
ENDBRANCH   6  16
TORSDOF 1
ENDMDL
MODEL 6
REMARK VINA RESULT:      -6.0      3.307      5.976
REMARK  Name = *****
REMARK                            x       y       z     vdW  Elec       q    Type
REMARK                         _______ _______ _______ _____ _____    ______ ____
ROOT
ATOM      1  C   LIG    1       26.886 -25.559   6.026  0.00  0.00    +0.088 C 
ATOM      2  C   LIG    1       25.455 -25.254   6.260  0.00  0.00    +0.135 A 
ATOM      3  N   LIG    1       24.910 -24.009   6.556  0.00  0.00    -0.275 N 
ATOM      4  C   LIG    1       25.492 -22.765   6.822  0.00  0.00    +0.097 A 
ATOM      5  C   LIG    1       24.891 -21.523   6.662  0.00  0.00    +0.033 A 
ATOM      6  C   LIG    1       23.591 -21.281   6.025  0.00  0.00    +0.077 C 
ATOM      7  N   LIG    1       22.558 -22.037   6.161  0.00  0.00    -0.275 NA
ATOM      8  C   LIG    1       22.575 -23.214   7.019  0.00  0.00    +0.218 C 
ATOM      9  C   LIG    1       25.786 -20.488   7.125  0.00  0.00    +0.035 A 
ATOM     10  C   LIG    1       26.980 -20.996   7.570  0.00  0.00    +0.058 A 
ATOM     11 BR   LIG    1       28.377 -19.938   8.225  0.00  0.00    -0.043 Br
ATOM     12  S   LIG    1       27.066 -22.677   7.448  0.00  0.00    -0.063 S 
ATOM     13  C   LIG    1       23.547 -24.242   6.577  0.00  0.00    +0.160 A 
ATOM     14  N   LIG    1       23.294 -25.504   6.316  0.00  0.00    -0.132 NA
ATOM     15  N   LIG    1       24.486 -26.136   6.116  0.00  0.00    -0.134 NA
ENDROOT
BRANCH   6  16
ATOM     16  C   LIG    1       23.447 -20.061   5.191  0.00  0.00    +0.019 A 
ATOM     17  C   LIG    1       24.409 -19.666   4.252  0.00  0.00    +0.050 A 
ATOM     18 CL   LIG    1       25.831 -20.588   3.921  0.00  0.00    -0.083 Cl
ATOM     19  C   LIG    1       24.211 -18.496   3.511  0.00  0.00    +0.021 A 
ATOM     20  C   LIG    1       23.055 -17.733   3.695  0.00  0.00    +0.002 A 
ATOM     21  C   LIG    1       22.087 -18.139   4.612  0.00  0.00    +0.001 A 
ATOM     22  C   LIG    1       22.278 -19.304   5.356  0.00  0.00    +0.011 A 
ENDBRANCH   6  16
TORSDOF 1
ENDMDL
MODEL 7
REMARK VINA RESULT:      -5.7      7.498      9.949
REMARK  Name = *****
REMARK                            x       y       z     vdW  Elec       q    Type
REMARK                         _______ _______ _______ _____ _____    ______ ____
ROOT
ATOM      1  C   LIG    1       25.822 -26.727   6.987  0.00  0.00    +0.088 C 
ATOM      2  C   LIG    1       25.287 -28.045   6.571  0.00  0.00    +0.135 A 
ATOM      3  N   LIG    1       25.073 -29.148   7.391  0.00  0.00    -0.275 N 
ATOM      4  C   LIG    1       25.372 -29.397   8.735  0.00  0.00    +0.097 A 
ATOM      5  C   LIG    1       24.738 -30.312   9.564  0.00  0.00    +0.033 A 
ATOM      6  C   LIG    1       23.526 -31.069   9.229  0.00  0.00    +0.077 C 
ATOM      7  N   LIG    1       23.275 -31.574   8.072  0.00  0.00    -0.275 NA
ATOM      8  C   LIG    1       24.220 -31.470   6.968  0.00  0.00    +0.218 C 
ATOM      9  C   LIG    1       25.392 -30.333  10.852  0.00  0.00    +0.035 A 
ATOM     10  C   LIG    1       26.432 -29.442  10.920  0.00  0.00    +0.058 A 
ATOM     11 BR   LIG    1       27.489 -29.195  12.445  0.00  0.00    -0.043 Br
ATOM     12  S   LIG    1       26.650 -28.575   9.488  0.00  0.00    -0.063 S 
ATOM     13  C   LIG    1       24.478 -30.072   6.551  0.00  0.00    +0.160 A 
ATOM     14  N   LIG    1       24.342 -29.573   5.343  0.00  0.00    -0.132 NA
ATOM     15  N   LIG    1       24.847 -28.306   5.357  0.00  0.00    -0.134 NA
ENDROOT
BRANCH   6  16
ATOM     16  C   LIG    1       22.534 -31.298  10.310  0.00  0.00    +0.019 A 
ATOM     17  C   LIG    1       22.452 -32.501  11.023  0.00  0.00    +0.050 A 
ATOM     18 CL   LIG    1       23.533 -33.822  10.761  0.00  0.00    -0.083 Cl
ATOM     19  C   LIG    1       21.482 -32.648  12.020  0.00  0.00    +0.021 A 
ATOM     20  C   LIG    1       20.610 -31.597  12.315  0.00  0.00    +0.002 A 
ATOM     21  C   LIG    1       20.708 -30.392  11.623  0.00  0.00    +0.001 A 
ATOM     22  C   LIG    1       21.671 -30.238  10.626  0.00  0.00    +0.011 A 
ENDBRANCH   6  16
TORSDOF 1
ENDMDL
MODEL 8
REMARK VINA RESULT:      -5.6      8.289      9.171
REMARK  Name = *****
REMARK                            x       y       z     vdW  Elec       q    Type
REMARK                         _______ _______ _______ _____ _____    ______ ____
ROOT
ATOM      1  C   LIG    1       25.567 -23.406  14.594  0.00  0.00    +0.088 C 
ATOM      2  C   LIG    1       26.477 -24.548  14.842  0.00  0.00    +0.135 A 
ATOM      3  N   LIG    1       26.256 -25.876  14.492  0.00  0.00    -0.275 N 
ATOM      4  C   LIG    1       25.151 -26.535  13.944  0.00  0.00    +0.097 A 
ATOM      5  C   LIG    1       25.172 -27.724  13.228  0.00  0.00    +0.033 A 
ATOM      6  C   LIG    1       26.380 -28.424  12.773  0.00  0.00    +0.077 C 
ATOM      7  N   LIG    1       27.465 -28.530  13.457  0.00  0.00    -0.275 NA
ATOM      8  C   LIG    1       27.582 -27.984  14.803  0.00  0.00    +0.218 C 
ATOM      9  C   LIG    1       23.821 -28.122  12.908  0.00  0.00    +0.035 A 
ATOM     10  C   LIG    1       22.893 -27.221  13.366  0.00  0.00    +0.058 A 
ATOM     11 BR   LIG    1       21.049 -27.413  13.114  0.00  0.00    -0.043 Br
ATOM     12  S   LIG    1       23.590 -25.910  14.168  0.00  0.00    -0.063 S 
ATOM     13  C   LIG    1       27.432 -26.510  14.848  0.00  0.00    +0.160 A 
ATOM     14  N   LIG    1       28.282 -25.649  15.359  0.00  0.00    -0.132 NA
ATOM     15  N   LIG    1       27.685 -24.422  15.354  0.00  0.00    -0.134 NA
ENDROOT
BRANCH   6  16
ATOM     16  C   LIG    1       26.336 -29.083  11.443  0.00  0.00    +0.019 A 
ATOM     17  C   LIG    1       26.035 -30.442  11.280  0.00  0.00    +0.050 A 
ATOM     18 CL   LIG    1       25.625 -31.477  12.600  0.00  0.00    -0.083 Cl
ATOM     19  C   LIG    1       26.024 -30.996   9.996  0.00  0.00    +0.021 A 
ATOM     20  C   LIG    1       26.297 -30.199   8.881  0.00  0.00    +0.002 A 
ATOM     21  C   LIG    1       26.572 -28.842   9.042  0.00  0.00    +0.001 A 
ATOM     22  C   LIG    1       26.586 -28.282  10.319  0.00  0.00    +0.011 A 
ENDBRANCH   6  16
TORSDOF 1
ENDMDL
MODEL 9
REMARK VINA RESULT:      -5.6      8.953     10.957
REMARK  Name = *****
REMARK                            x       y       z     vdW  Elec       q    Type
REMARK                         _______ _______ _______ _____ _____    ______ ____
ROOT
ATOM      1  C   LIG    1       26.558 -28.619   9.350  0.00  0.00    +0.088 C 
ATOM      2  C   LIG    1       25.326 -29.422   9.167  0.00  0.00    +0.135 A 
ATOM      3  N   LIG    1       24.436 -29.813  10.162  0.00  0.00    -0.275 N 
ATOM      4  C   LIG    1       24.466 -29.691  11.556  0.00  0.00    +0.097 A 
ATOM      5  C   LIG    1       23.370 -29.698  12.407  0.00  0.00    +0.033 A 
ATOM      6  C   LIG    1       21.964 -29.669  11.987  0.00  0.00    +0.077 C 
ATOM      7  N   LIG    1       21.490 -30.304  10.973  0.00  0.00    -0.275 NA
ATOM      8  C   LIG    1       22.325 -31.170  10.150  0.00  0.00    +0.218 C 
ATOM      9  C   LIG    1       23.820 -29.635  13.779  0.00  0.00    +0.035 A 
ATOM     10  C   LIG    1       25.187 -29.562  13.872  0.00  0.00    +0.058 A 
ATOM     11 BR   LIG    1       26.111 -29.453  15.495  0.00  0.00    -0.043 Br
ATOM     12  S   LIG    1       25.951 -29.564  12.367  0.00  0.00    -0.063 S 
ATOM     13  C   LIG    1       23.420 -30.443   9.467  0.00  0.00    +0.160 A 
ATOM     14  N   LIG    1       23.671 -30.429   8.177  0.00  0.00    -0.132 NA
ATOM     15  N   LIG    1       24.861 -29.789   7.991  0.00  0.00    -0.134 NA
ENDROOT
BRANCH   6  16
ATOM     16  C   LIG    1       21.014 -28.875  12.808  0.00  0.00    +0.019 A 
ATOM     17  C   LIG    1       20.049 -29.465  13.635  0.00  0.00    +0.050 A 
ATOM     18 CL   LIG    1       19.902 -31.175  13.832  0.00  0.00    -0.083 Cl
ATOM     19  C   LIG    1       19.181 -28.653  14.370  0.00  0.00    +0.021 A 
ATOM     20  C   LIG    1       19.283 -27.261  14.294  0.00  0.00    +0.002 A 
ATOM     21  C   LIG    1       20.259 -26.675  13.491  0.00  0.00    +0.001 A 
ATOM     22  C   LIG    1       21.128 -27.478  12.752  0.00  0.00    +0.011 A 
ENDBRANCH   6  16
TORSDOF 1
ENDMDL
