MODEL 1
REMARK VINA RESULT:       5.7      0.000      0.000
REMARK  Name = *****
REMARK                            x       y       z     vdW  Elec       q    Type
REMARK                         _______ _______ _______ _____ _____    ______ ____
ROOT
ATOM      1  C   LIG    1       25.446 -28.313   5.712  0.00  0.00    +0.045 C 
ATOM      2  C   LIG    1       24.520 -28.805   6.944  0.00  0.00    +0.083 C 
ATOM      3  N   LIG    1       24.499 -27.833   8.026  0.00  0.00    -0.294 NA
ATOM      4  C   LIG    1       25.717 -28.055   8.822  0.00  0.00    +0.086 C 
ATOM      5  C   LIG    1       26.194 -29.494   8.432  0.00  0.00    +0.030 C 
ATOM      6  C   LIG    1       24.089 -26.506   7.587  0.00  0.00    +0.112 C 
ATOM      7  C   LIG    1       24.013 -26.321   6.073  0.00  0.00    -0.015 C 
ATOM      8  C   LIG    1       24.971 -30.045   7.674  0.00  0.00    +0.037 C 
ATOM      9  C   LIG    1       24.963 -31.202   6.634  0.00  0.00    +0.132 C 
ATOM     10  C   LIG    1       25.801 -30.950   5.346  0.00  0.00    +0.220 C 
ATOM     11  N   LIG    1       25.318 -32.409   7.458  0.00  0.00    -0.325 N 
ATOM     12  C   LIG    1       25.093 -33.770   6.982  0.00  0.00    +0.130 C 
ATOM     13  C   LIG    1       24.583 -32.120   8.662  0.00  0.00    +0.037 A 
ATOM     14  C   LIG    1       24.357 -32.986   9.709  0.00  0.00    +0.069 A 
ATOM     15  C   LIG    1       23.898 -32.513  10.954  0.00  0.00    +0.127 A 
ATOM     16  C   LIG    1       23.443 -31.168  11.120  0.00  0.00    +0.017 A 
ATOM     17  C   LIG    1       23.597 -30.315   9.975  0.00  0.00    +0.014 A 
ATOM     18  C   LIG    1       24.224 -30.780   8.797  0.00  0.00    -0.016 A 
ATOM     19  C   LIG    1       25.627 -29.512   4.696  0.00  0.00    +0.232 C 
ATOM     20  C   LIG    1       24.601 -27.149   5.182  0.00  0.00    -0.018 C 
ENDROOT
BRANCH  16  21
ATOM     21  C   LIG    1       22.990 -30.526  12.555  0.00  0.00    +0.136 C 
ATOM     22  C   LIG    1       21.440 -30.648  12.934  0.00  0.00    +0.043 C 
ATOM     23  C   LIG    1       20.648 -30.407  14.096  0.00  0.00    -0.004 C 
ATOM     24  C   LIG    1       19.290 -30.783  13.757  0.00  0.00    +0.004 C 
ATOM     25  C   LIG    1       19.257 -31.031  12.394  0.00  0.00    +0.047 C 
ATOM     26  C   LIG    1       18.098 -31.407  11.708  0.00  0.00    +0.026 C 
ATOM     27  C   LIG    1       16.917 -31.520  12.443  0.00  0.00    +0.002 C 
ATOM     28  C   LIG    1       16.900 -31.252  13.809  0.00  0.00    +0.001 C 
ATOM     29  C   LIG    1       18.075 -30.879  14.475  0.00  0.00    +0.010 C 
ATOM     30  C   LIG    1       20.984 -29.834  15.473  0.00  0.00    +0.122 C 
ATOM     31  N   LIG    1       21.385 -28.399  15.499  0.00  0.00    -0.297 NA
ATOM     32  C   LIG    1       22.686 -28.229  14.889  0.00  0.00    +0.088 C 
ATOM     33  C   LIG    1       22.464 -28.093  13.389  0.00  0.00    +0.005 C 
ATOM     34  C   LIG    1       22.126 -26.640  13.133  0.00  0.00    +0.015 C 
ATOM     35  C   LIG    1       20.755 -26.381  13.871  0.00  0.00    +0.072 C 
ATOM     36  C   LIG    1       20.384 -27.428  15.008  0.00  0.00    +0.094 C 
ATOM     37  N   LIG    1       20.513 -30.776  11.917  0.00  0.00    -0.356 NA
ATOM     38  H   LIG    1       20.756 -30.808  10.938  0.00  0.00    +0.166 HD
ATOM     39  C   LIG    1       23.405 -28.957  12.556  0.00  0.00    +0.034 C 
BRANCH  35  40
ATOM     40  C   LIG    1       19.609 -26.312  12.834  0.00  0.00    +0.250 C 
ATOM     41  F   LIG    1       19.573 -27.459  12.105  0.00  0.00    -0.206 F 
ATOM     42  F   LIG    1       19.882 -25.316  11.945  0.00  0.00    -0.206 F 
ATOM     43  C   LIG    1       18.218 -26.058  13.391  0.00  0.00    +0.085 C 
ENDBRANCH  35  40
BRANCH  21  44
ATOM     44  C   LIG    1       23.796 -31.327  13.638  0.00  0.00    +0.324 C 
ATOM     45  O   LIG    1       23.360 -32.248  14.321  0.00  0.00    -0.249 OA
BRANCH  44  46
ATOM     46  O   LIG    1       25.033 -30.776  13.830  0.00  0.00    -0.467 OA
ATOM     47  C   LIG    1       25.654 -31.109  15.072  0.00  0.00    +0.280 C 
ENDBRANCH  44  46
ENDBRANCH  21  44
ENDBRANCH  16  21
BRANCH   1  49
ATOM     48  C   LIG    1       26.937 -26.111   6.401  0.00  0.00    +0.005 C 
ATOM     49  C   LIG    1       26.845 -27.601   6.041  0.00  0.00    +0.013 C 
ENDBRANCH   1  49
BRANCH  10  50
ATOM     50  O   LIG    1       27.177 -31.169   5.684  0.00  0.00    -0.373 OA
ATOM     51  H   LIG    1       27.666 -30.488   5.178  0.00  0.00    +0.211 HD
ENDBRANCH  10  50
BRANCH  10  52
ATOM     52  C   LIG    1       25.258 -31.943   4.272  0.00  0.00    +0.345 C 
ATOM     53  O   LIG    1       24.097 -32.331   4.188  0.00  0.00    -0.247 OA
BRANCH  52  54
ATOM     54  O   LIG    1       26.274 -32.351   3.460  0.00  0.00    -0.466 OA
ATOM     55  C   LIG    1       26.829 -33.640   3.722  0.00  0.00    +0.280 C 
ENDBRANCH  52  54
ENDBRANCH  10  52
BRANCH  15  56
ATOM     56  O   LIG    1       23.976 -33.321  12.060  0.00  0.00    -0.495 OA
ATOM     57  C   LIG    1       25.253 -33.820  12.455  0.00  0.00    +0.277 C 
ENDBRANCH  15  56
BRANCH  19  58
ATOM     58  O   LIG    1       26.796 -29.191   3.874  0.00  0.00    -0.457 OA
BRANCH  58  59
ATOM     59  C   LIG    1       27.320 -27.979   3.701  0.00  0.00    +0.304 C 
ATOM     60  O   LIG    1       28.429 -27.685   4.023  0.00  0.00    -0.251 OA
ATOM     61  C   LIG    1       26.402 -27.052   3.023  0.00  0.00    +0.136 C 
ENDBRANCH  58  59
ENDBRANCH  19  58
TORSDOF 11
ENDMDL
