MODEL 1
REMARK VINA RESULT:      -5.4      0.000      0.000
REMARK  Name = *****
REMARK                            x       y       z     vdW  Elec       q    Type
REMARK                         _______ _______ _______ _____ _____    ______ ____
ROOT
ATOM      1  C   LIG    1       25.859 -19.706   4.039  0.00  0.00    +0.234 C 
ENDROOT
BRANCH   1   2
ATOM      2  C   LIG    1       24.513 -19.929   4.784  0.00  0.00    +0.177 C 
ATOM      3  O   LIG    1       24.773 -20.261   6.167  0.00  0.00    -0.370 OA
ATOM      4  C   LIG    1       23.539 -20.437   6.877  0.00  0.00    +0.175 C 
ATOM      5  C   LIG    1       22.705 -21.572   6.265  0.00  0.00    +0.109 C 
ATOM      6  N   LIG    1       22.433 -21.342   4.839  0.00  0.00    -0.311 NA
ATOM      7  H   LIG    1       21.987 -22.168   4.440  0.00  0.00    +0.122 HD
ATOM      8  C   LIG    1       23.704 -21.084   4.131  0.00  0.00    +0.116 C 
ENDBRANCH   1   2
BRANCH   1   9
ATOM      9  C   LIG    1       27.055 -19.538   4.982  0.00  0.00    -0.005 A 
ATOM     10  C   LIG    1       27.217 -20.417   6.068  0.00  0.00    +0.007 A 
ATOM     11  C   LIG    1       28.326 -20.318   6.915  0.00  0.00    +0.000 A 
ATOM     12  C   LIG    1       29.296 -19.346   6.694  0.00  0.00    +0.000 A 
ATOM     13  C   LIG    1       29.146 -18.456   5.632  0.00  0.00    +0.000 A 
ATOM     14  C   LIG    1       28.030 -18.546   4.794  0.00  0.00    +0.007 A 
ENDBRANCH   1   9
BRANCH   1  15
ATOM     15  O   LIG    1       25.719 -18.527   3.223  0.00  0.00    -0.478 OA
BRANCH  15  17
ATOM     16  C   LIG    1       25.335 -16.209   3.577  0.00  0.00    +0.162 A 
ATOM     17  C   LIG    1       24.859 -17.531   3.593  0.00  0.00    +0.163 A 
ATOM     18  C   LIG    1       23.562 -17.769   4.070  0.00  0.00    +0.049 A 
ATOM     19  C   LIG    1       22.741 -16.701   4.454  0.00  0.00    +0.004 A 
ATOM     20  C   LIG    1       23.208 -15.396   4.394  0.00  0.00    +0.004 A 
ATOM     21  C   LIG    1       24.516 -15.149   3.979  0.00  0.00    +0.049 A 
BRANCH  16  22
ATOM     22  O   LIG    1       26.629 -15.849   3.289  0.00  0.00    -0.489 OA
BRANCH  22  24
ATOM     23  C   LIG    1       27.913 -13.870   3.712  0.00  0.00    +0.048 C 
ATOM     24  C   LIG    1       26.789 -14.486   2.897  0.00  0.00    +0.226 C 
ENDBRANCH  22  24
ENDBRANCH  16  22
ENDBRANCH  15  17
ENDBRANCH   1  15
TORSDOF 6
ENDMDL
MODEL 2
REMARK VINA RESULT:      -3.8      2.018      4.112
REMARK  Name = *****
REMARK                            x       y       z     vdW  Elec       q    Type
REMARK                         _______ _______ _______ _____ _____    ______ ____
ROOT
ATOM      1  C   LIG    1       25.635 -18.322   4.542  0.00  0.00    +0.234 C 
ENDROOT
BRANCH   1   2
ATOM      2  C   LIG    1       27.069 -18.912   4.667  0.00  0.00    +0.177 C 
ATOM      3  O   LIG    1       27.107 -19.868   5.751  0.00  0.00    -0.370 OA
ATOM      4  C   LIG    1       28.415 -20.446   5.858  0.00  0.00    +0.175 C 
ATOM      5  C   LIG    1       29.474 -19.371   6.137  0.00  0.00    +0.109 C 
ATOM      6  N   LIG    1       29.474 -18.323   5.105  0.00  0.00    -0.311 NA
ATOM      7  H   LIG    1       30.100 -17.568   5.386  0.00  0.00    +0.122 HD
ATOM      8  C   LIG    1       28.105 -17.789   4.948  0.00  0.00    +0.116 C 
ENDBRANCH   1   2
BRANCH   1   9
ATOM      9  C   LIG    1       24.555 -19.389   4.330  0.00  0.00    -0.005 A 
ATOM     10  C   LIG    1       24.740 -20.384   3.353  0.00  0.00    +0.007 A 
ATOM     11  C   LIG    1       23.794 -21.399   3.172  0.00  0.00    +0.000 A 
ATOM     12  C   LIG    1       22.652 -21.445   3.964  0.00  0.00    +0.000 A 
ATOM     13  C   LIG    1       22.445 -20.461   4.928  0.00  0.00    +0.000 A 
ATOM     14  C   LIG    1       23.383 -19.438   5.099  0.00  0.00    +0.007 A 
ENDBRANCH   1   9
BRANCH   1  15
ATOM     15  O   LIG    1       25.633 -17.407   3.429  0.00  0.00    -0.478 OA
BRANCH  15  17
ATOM     16  C   LIG    1       25.848 -15.047   3.262  0.00  0.00    +0.162 A 
ATOM     17  C   LIG    1       25.059 -16.173   3.552  0.00  0.00    +0.163 A 
ATOM     18  C   LIG    1       23.758 -15.972   4.037  0.00  0.00    +0.049 A 
ATOM     19  C   LIG    1       23.240 -14.676   4.160  0.00  0.00    +0.004 A 
ATOM     20  C   LIG    1       24.015 -13.573   3.831  0.00  0.00    +0.004 A 
ATOM     21  C   LIG    1       25.330 -13.755   3.404  0.00  0.00    +0.049 A 
BRANCH  16  22
ATOM     22  O   LIG    1       27.181 -15.091   2.935  0.00  0.00    -0.489 OA
BRANCH  22  24
ATOM     23  C   LIG    1       28.539 -13.249   3.647  0.00  0.00    +0.048 C 
ATOM     24  C   LIG    1       28.058 -14.653   3.972  0.00  0.00    +0.226 C 
ENDBRANCH  22  24
ENDBRANCH  16  22
ENDBRANCH  15  17
ENDBRANCH   1  15
TORSDOF 6
ENDMDL
MODEL 3
REMARK VINA RESULT:      -3.7      1.296      5.267
REMARK  Name = *****
REMARK                            x       y       z     vdW  Elec       q    Type
REMARK                         _______ _______ _______ _____ _____    ______ ____
ROOT
ATOM      1  C   LIG    1       25.232 -17.918   4.276  0.00  0.00    +0.234 C 
ENDROOT
BRANCH   1   2
ATOM      2  C   LIG    1       23.998 -18.676   3.710  0.00  0.00    +0.177 C 
ATOM      3  O   LIG    1       22.887 -18.546   4.625  0.00  0.00    -0.370 OA
ATOM      4  C   LIG    1       21.730 -19.213   4.102  0.00  0.00    +0.175 C 
ATOM      5  C   LIG    1       22.001 -20.709   3.895  0.00  0.00    +0.109 C 
ATOM      6  N   LIG    1       23.153 -20.939   3.011  0.00  0.00    -0.311 NA
ATOM      7  H   LIG    1       23.377 -21.934   2.996  0.00  0.00    +0.122 HD
ATOM      8  C   LIG    1       24.318 -20.185   3.517  0.00  0.00    +0.116 C 
ENDBRANCH   1   2
BRANCH   1   9
ATOM      9  C   LIG    1       25.336 -16.471   3.780  0.00  0.00    -0.005 A 
ATOM     10  C   LIG    1       24.297 -15.563   4.055  0.00  0.00    +0.007 A 
ATOM     11  C   LIG    1       24.388 -14.224   3.659  0.00  0.00    +0.000 A 
ATOM     12  C   LIG    1       25.515 -13.765   2.985  0.00  0.00    +0.000 A 
ATOM     13  C   LIG    1       26.548 -14.653   2.691  0.00  0.00    +0.000 A 
ATOM     14  C   LIG    1       26.450 -15.994   3.075  0.00  0.00    +0.007 A 
ENDBRANCH   1   9
BRANCH   1  15
ATOM     15  O   LIG    1       26.412 -18.646   3.885  0.00  0.00    -0.478 OA
BRANCH  15  17
ATOM     16  C   LIG    1       27.121 -20.018   5.691  0.00  0.00    +0.162 A 
ATOM     17  C   LIG    1       27.371 -18.952   4.810  0.00  0.00    +0.163 A 
ATOM     18  C   LIG    1       28.544 -18.204   4.982  0.00  0.00    +0.049 A 
ATOM     19  C   LIG    1       29.475 -18.561   5.966  0.00  0.00    +0.004 A 
ATOM     20  C   LIG    1       29.236 -19.642   6.803  0.00  0.00    +0.004 A 
ATOM     21  C   LIG    1       28.046 -20.358   6.684  0.00  0.00    +0.049 A 
BRANCH  16  22
ATOM     22  O   LIG    1       25.947 -20.730   5.742  0.00  0.00    -0.489 OA
BRANCH  22  24
ATOM     23  C   LIG    1       23.924 -20.834   7.022  0.00  0.00    +0.048 C 
ATOM     24  C   LIG    1       25.439 -20.938   7.060  0.00  0.00    +0.226 C 
ENDBRANCH  22  24
ENDBRANCH  16  22
ENDBRANCH  15  17
ENDBRANCH   1  15
TORSDOF 6
ENDMDL
MODEL 4
REMARK VINA RESULT:      -3.6      1.568      2.605
REMARK  Name = *****
REMARK                            x       y       z     vdW  Elec       q    Type
REMARK                         _______ _______ _______ _____ _____    ______ ____
ROOT
ATOM      1  C   LIG    1       26.228 -17.373   3.612  0.00  0.00    +0.234 C 
ENDROOT
BRANCH   1   2
ATOM      2  C   LIG    1       24.937 -18.196   3.336  0.00  0.00    +0.177 C 
ATOM      3  O   LIG    1       23.947 -17.898   4.346  0.00  0.00    -0.370 OA
ATOM      4  C   LIG    1       22.738 -18.625   4.085  0.00  0.00    +0.175 C 
ATOM      5  C   LIG    1       22.988 -20.139   4.099  0.00  0.00    +0.109 C 
ATOM      6  N   LIG    1       24.025 -20.530   3.132  0.00  0.00    -0.311 NA
ATOM      7  H   LIG    1       24.250 -21.517   3.255  0.00  0.00    +0.122 HD
ATOM      8  C   LIG    1       25.239 -19.720   3.359  0.00  0.00    +0.116 C 
ENDBRANCH   1   2
BRANCH   1   9
ATOM      9  C   LIG    1       27.271 -18.138   4.435  0.00  0.00    -0.005 A 
ATOM     10  C   LIG    1       28.523 -17.551   4.694  0.00  0.00    +0.007 A 
ATOM     11  C   LIG    1       29.475 -18.204   5.484  0.00  0.00    +0.000 A 
ATOM     12  C   LIG    1       29.196 -19.450   6.034  0.00  0.00    +0.000 A 
ATOM     13  C   LIG    1       27.967 -20.054   5.778  0.00  0.00    +0.000 A 
ATOM     14  C   LIG    1       27.021 -19.408   4.976  0.00  0.00    +0.007 A 
ENDBRANCH   1   9
BRANCH   1  15
ATOM     15  O   LIG    1       25.843 -16.176   4.315  0.00  0.00    -0.478 OA
BRANCH  15  17
ATOM     16  C   LIG    1       26.460 -14.274   3.032  0.00  0.00    +0.162 A 
ATOM     17  C   LIG    1       25.458 -15.063   3.621  0.00  0.00    +0.163 A 
ATOM     18  C   LIG    1       24.128 -14.624   3.545  0.00  0.00    +0.049 A 
ATOM     19  C   LIG    1       23.806 -13.459   2.835  0.00  0.00    +0.004 A 
ATOM     20  C   LIG    1       24.801 -12.710   2.222  0.00  0.00    +0.004 A 
ATOM     21  C   LIG    1       26.133 -13.102   2.340  0.00  0.00    +0.049 A 
BRANCH  16  22
ATOM     22  O   LIG    1       27.808 -14.496   3.165  0.00  0.00    -0.489 OA
BRANCH  22  24
ATOM     23  C   LIG    1       28.006 -13.050   5.066  0.00  0.00    +0.048 C 
ATOM     24  C   LIG    1       28.541 -13.387   3.685  0.00  0.00    +0.226 C 
ENDBRANCH  22  24
ENDBRANCH  16  22
ENDBRANCH  15  17
ENDBRANCH   1  15
TORSDOF 6
ENDMDL
MODEL 5
REMARK VINA RESULT:      -3.4      1.480      3.044
REMARK  Name = *****
REMARK                            x       y       z     vdW  Elec       q    Type
REMARK                         _______ _______ _______ _____ _____    ______ ____
ROOT
ATOM      1  C   LIG    1       25.730 -18.025   3.567  0.00  0.00    +0.234 C 
ENDROOT
BRANCH   1   2
ATOM      2  C   LIG    1       24.519 -18.994   3.452  0.00  0.00    +0.177 C 
ATOM      3  O   LIG    1       23.555 -18.692   4.486  0.00  0.00    -0.370 OA
ATOM      4  C   LIG    1       22.417 -19.556   4.372  0.00  0.00    +0.175 C 
ATOM      5  C   LIG    1       22.823 -21.029   4.519  0.00  0.00    +0.109 C 
ATOM      6  N   LIG    1       23.844 -21.415   3.534  0.00  0.00    -0.311 NA
ATOM      7  H   LIG    1       24.177 -22.357   3.740  0.00  0.00    +0.122 HD
ATOM      8  C   LIG    1       24.978 -20.471   3.606  0.00  0.00    +0.116 C 
ENDBRANCH   1   2
BRANCH   1   9
ATOM      9  C   LIG    1       26.866 -18.573   4.438  0.00  0.00    -0.005 A 
ATOM     10  C   LIG    1       28.085 -17.875   4.515  0.00  0.00    +0.007 A 
ATOM     11  C   LIG    1       29.121 -18.325   5.340  0.00  0.00    +0.000 A 
ATOM     12  C   LIG    1       28.961 -19.474   6.107  0.00  0.00    +0.000 A 
ATOM     13  C   LIG    1       27.766 -20.187   6.033  0.00  0.00    +0.000 A 
ATOM     14  C   LIG    1       26.736 -19.745   5.197  0.00  0.00    +0.007 A 
ENDBRANCH   1   9
BRANCH   1  15
ATOM     15  O   LIG    1       25.249 -16.787   4.126  0.00  0.00    -0.478 OA
BRANCH  15  17
ATOM     16  C   LIG    1       24.719 -14.562   3.481  0.00  0.00    +0.162 A 
ATOM     17  C   LIG    1       25.668 -15.591   3.614  0.00  0.00    +0.163 A 
ATOM     18  C   LIG    1       26.967 -15.369   3.134  0.00  0.00    +0.049 A 
ATOM     19  C   LIG    1       27.322 -14.124   2.599  0.00  0.00    +0.004 A 
ATOM     20  C   LIG    1       26.387 -13.102   2.512  0.00  0.00    +0.004 A 
ATOM     21  C   LIG    1       25.076 -13.327   2.930  0.00  0.00    +0.049 A 
BRANCH  16  22
ATOM     22  O   LIG    1       23.381 -14.694   3.759  0.00  0.00    -0.489 OA
BRANCH  22  24
ATOM     23  C   LIG    1       22.102 -15.868   5.411  0.00  0.00    +0.048 C 
ATOM     24  C   LIG    1       23.066 -14.723   5.151  0.00  0.00    +0.226 C 
ENDBRANCH  22  24
ENDBRANCH  16  22
ENDBRANCH  15  17
ENDBRANCH   1  15
TORSDOF 6
ENDMDL
MODEL 6
REMARK VINA RESULT:      -3.2      2.119      4.734
REMARK  Name = *****
REMARK                            x       y       z     vdW  Elec       q    Type
REMARK                         _______ _______ _______ _____ _____    ______ ____
ROOT
ATOM      1  C   LIG    1       25.674 -18.005   4.298  0.00  0.00    +0.234 C 
ENDROOT
BRANCH   1   2
ATOM      2  C   LIG    1       27.060 -18.681   4.495  0.00  0.00    +0.177 C 
ATOM      3  O   LIG    1       26.990 -19.625   5.588  0.00  0.00    -0.370 OA
ATOM      4  C   LIG    1       28.253 -20.281   5.761  0.00  0.00    +0.175 C 
ATOM      5  C   LIG    1       29.363 -19.269   6.080  0.00  0.00    +0.109 C 
ATOM      6  N   LIG    1       29.475 -18.235   5.040  0.00  0.00    -0.311 NA
ATOM      7  H   LIG    1       30.132 -17.517   5.344  0.00  0.00    +0.122 HD
ATOM      8  C   LIG    1       28.150 -17.620   4.815  0.00  0.00    +0.116 C 
ENDBRANCH   1   2
BRANCH   1   9
ATOM      9  C   LIG    1       24.529 -19.009   4.118  0.00  0.00    -0.005 A 
ATOM     10  C   LIG    1       24.791 -20.272   3.555  0.00  0.00    +0.007 A 
ATOM     11  C   LIG    1       23.776 -21.226   3.425  0.00  0.00    +0.000 A 
ATOM     12  C   LIG    1       22.484 -20.942   3.857  0.00  0.00    +0.000 A 
ATOM     13  C   LIG    1       22.203 -19.692   4.405  0.00  0.00    +0.000 A 
ATOM     14  C   LIG    1       23.214 -18.733   4.521  0.00  0.00    +0.007 A 
ENDBRANCH   1   9
BRANCH   1  15
ATOM     15  O   LIG    1       25.759 -17.159   3.136  0.00  0.00    -0.478 OA
BRANCH  15  17
ATOM     16  C   LIG    1       24.888 -15.028   3.725  0.00  0.00    +0.162 A 
ATOM     17  C   LIG    1       25.963 -15.814   3.276  0.00  0.00    +0.163 A 
ATOM     18  C   LIG    1       27.155 -15.172   2.910  0.00  0.00    +0.049 A 
ATOM     19  C   LIG    1       27.287 -13.785   3.058  0.00  0.00    +0.004 A 
ATOM     20  C   LIG    1       26.233 -13.024   3.542  0.00  0.00    +0.004 A 
ATOM     21  C   LIG    1       25.021 -13.641   3.853  0.00  0.00    +0.049 A 
BRANCH  16  22
ATOM     22  O   LIG    1       23.621 -15.500   3.963  0.00  0.00    -0.489 OA
BRANCH  22  24
ATOM     23  C   LIG    1       22.066 -15.792   5.763  0.00  0.00    +0.048 C 
ATOM     24  C   LIG    1       22.912 -14.799   4.985  0.00  0.00    +0.226 C 
ENDBRANCH  22  24
ENDBRANCH  16  22
ENDBRANCH  15  17
ENDBRANCH   1  15
TORSDOF 6
ENDMDL
MODEL 7
REMARK VINA RESULT:      -3.1      1.734      4.983
REMARK  Name = *****
REMARK                            x       y       z     vdW  Elec       q    Type
REMARK                         _______ _______ _______ _____ _____    ______ ____
ROOT
ATOM      1  C   LIG    1       27.130 -17.147   3.364  0.00  0.00    +0.234 C 
ENDROOT
BRANCH   1   2
ATOM      2  C   LIG    1       27.543 -17.871   4.677  0.00  0.00    +0.177 C 
ATOM      3  O   LIG    1       28.974 -17.769   4.858  0.00  0.00    -0.370 OA
ATOM      4  C   LIG    1       29.366 -18.403   6.083  0.00  0.00    +0.175 C 
ATOM      5  C   LIG    1       28.995 -19.892   6.079  0.00  0.00    +0.109 C 
ATOM      6  N   LIG    1       27.556 -20.095   5.850  0.00  0.00    -0.311 NA
ATOM      7  H   LIG    1       27.368 -21.091   5.731  0.00  0.00    +0.122 HD
ATOM      8  C   LIG    1       27.147 -19.373   4.628  0.00  0.00    +0.116 C 
ENDBRANCH   1   2
BRANCH   1   9
ATOM      9  C   LIG    1       26.931 -15.638   3.539  0.00  0.00    -0.005 A 
ATOM     10  C   LIG    1       27.214 -15.036   4.778  0.00  0.00    +0.007 A 
ATOM     11  C   LIG    1       27.090 -13.653   4.952  0.00  0.00    +0.000 A 
ATOM     12  C   LIG    1       26.686 -12.845   3.895  0.00  0.00    +0.000 A 
ATOM     13  C   LIG    1       26.387 -13.425   2.663  0.00  0.00    +0.000 A 
ATOM     14  C   LIG    1       26.498 -14.808   2.494  0.00  0.00    +0.007 A 
ENDBRANCH   1   9
BRANCH   1  15
ATOM     15  O   LIG    1       25.904 -17.744   2.901  0.00  0.00    -0.478 OA
BRANCH  15  17
ATOM     16  C   LIG    1       23.882 -18.582   3.826  0.00  0.00    +0.162 A 
ATOM     17  C   LIG    1       24.727 -17.494   3.551  0.00  0.00    +0.163 A 
ATOM     18  C   LIG    1       24.283 -16.203   3.873  0.00  0.00    +0.049 A 
ATOM     19  C   LIG    1       23.053 -16.017   4.518  0.00  0.00    +0.004 A 
ATOM     20  C   LIG    1       22.246 -17.103   4.823  0.00  0.00    +0.004 A 
ATOM     21  C   LIG    1       22.647 -18.387   4.455  0.00  0.00    +0.049 A 
BRANCH  16  22
ATOM     22  O   LIG    1       24.115 -19.874   3.424  0.00  0.00    -0.489 OA
BRANCH  22  24
ATOM     23  C   LIG    1       24.373 -21.571   5.095  0.00  0.00    +0.048 C 
ATOM     24  C   LIG    1       23.402 -20.862   4.167  0.00  0.00    +0.226 C 
ENDBRANCH  22  24
ENDBRANCH  16  22
ENDBRANCH  15  17
ENDBRANCH   1  15
TORSDOF 6
ENDMDL
MODEL 8
REMARK VINA RESULT:      -3.1      2.707      6.490
REMARK  Name = *****
REMARK                            x       y       z     vdW  Elec       q    Type
REMARK                         _______ _______ _______ _____ _____    ______ ____
ROOT
ATOM      1  C   LIG    1       25.812 -14.763   4.178  0.00  0.00    +0.234 C 
ENDROOT
BRANCH   1   2
ATOM      2  C   LIG    1       24.625 -13.917   3.636  0.00  0.00    +0.177 C 
ATOM      3  O   LIG    1       24.968 -13.374   2.341  0.00  0.00    -0.370 OA
ATOM      4  C   LIG    1       23.870 -12.618   1.812  0.00  0.00    +0.175 C 
ATOM      5  C   LIG    1       23.508 -11.447   2.736  0.00  0.00    +0.109 C 
ATOM      6  N   LIG    1       23.191 -11.903   4.098  0.00  0.00    -0.311 NA
ATOM      7  H   LIG    1       23.078 -11.094   4.709  0.00  0.00    +0.122 HD
ATOM      8  C   LIG    1       24.295 -12.746   4.603  0.00  0.00    +0.116 C 
ENDBRANCH   1   2
BRANCH   1   9
ATOM      9  C   LIG    1       27.112 -13.964   4.320  0.00  0.00    -0.005 A 
ATOM     10  C   LIG    1       27.985 -13.850   3.223  0.00  0.00    +0.007 A 
ATOM     11  C   LIG    1       29.154 -13.086   3.309  0.00  0.00    +0.000 A 
ATOM     12  C   LIG    1       29.472 -12.417   4.487  0.00  0.00    +0.000 A 
ATOM     13  C   LIG    1       28.626 -12.528   5.589  0.00  0.00    +0.000 A 
ATOM     14  C   LIG    1       27.465 -13.304   5.507  0.00  0.00    +0.007 A 
ENDBRANCH   1   9
BRANCH   1  15
ATOM     15  O   LIG    1       26.019 -15.861   3.270  0.00  0.00    -0.478 OA
BRANCH  15  17
ATOM     16  C   LIG    1       25.517 -18.128   3.775  0.00  0.00    +0.162 A 
ATOM     17  C   LIG    1       26.444 -17.073   3.739  0.00  0.00    +0.163 A 
ATOM     18  C   LIG    1       27.725 -17.289   4.267  0.00  0.00    +0.049 A 
ATOM     19  C   LIG    1       28.088 -18.553   4.752  0.00  0.00    +0.004 A 
ATOM     20  C   LIG    1       27.176 -19.599   4.744  0.00  0.00    +0.004 A 
ATOM     21  C   LIG    1       25.880 -19.382   4.278  0.00  0.00    +0.049 A 
BRANCH  16  22
ATOM     22  O   LIG    1       24.190 -18.013   3.443  0.00  0.00    -0.489 OA
BRANCH  22  24
ATOM     23  C   LIG    1       21.892 -18.288   4.065  0.00  0.00    +0.048 C 
ATOM     24  C   LIG    1       23.310 -18.801   4.245  0.00  0.00    +0.226 C 
ENDBRANCH  22  24
ENDBRANCH  16  22
ENDBRANCH  15  17
ENDBRANCH   1  15
TORSDOF 6
ENDMDL
MODEL 9
REMARK VINA RESULT:      -3.0      1.019      2.811
REMARK  Name = *****
REMARK                            x       y       z     vdW  Elec       q    Type
REMARK                         _______ _______ _______ _____ _____    ______ ____
ROOT
ATOM      1  C   LIG    1       26.054 -19.988   4.021  0.00  0.00    +0.234 C 
ENDROOT
BRANCH   1   2
ATOM      2  C   LIG    1       24.683 -20.109   4.746  0.00  0.00    +0.177 C 
ATOM      3  O   LIG    1       24.898 -20.335   6.157  0.00  0.00    -0.370 OA
ATOM      4  C   LIG    1       23.643 -20.416   6.845  0.00  0.00    +0.175 C 
ATOM      5  C   LIG    1       22.789 -21.572   6.305  0.00  0.00    +0.109 C 
ATOM      6  N   LIG    1       22.559 -21.451   4.857  0.00  0.00    -0.311 NA
ATOM      7  H   LIG    1       22.098 -22.294   4.515  0.00  0.00    +0.122 HD
ATOM      8  C   LIG    1       23.855 -21.290   4.166  0.00  0.00    +0.116 C 
ENDBRANCH   1   2
BRANCH   1   9
ATOM      9  C   LIG    1       27.214 -19.656   4.968  0.00  0.00    -0.005 A 
ATOM     10  C   LIG    1       28.102 -18.614   4.644  0.00  0.00    +0.007 A 
ATOM     11  C   LIG    1       29.138 -18.256   5.512  0.00  0.00    +0.000 A 
ATOM     12  C   LIG    1       29.306 -18.925   6.720  0.00  0.00    +0.000 A 
ATOM     13  C   LIG    1       28.445 -19.969   7.052  0.00  0.00    +0.000 A 
ATOM     14  C   LIG    1       27.418 -20.336   6.177  0.00  0.00    +0.007 A 
ENDBRANCH   1   9
BRANCH   1  15
ATOM     15  O   LIG    1       25.934 -18.955   3.025  0.00  0.00    -0.478 OA
BRANCH  15  17
ATOM     16  C   LIG    1       24.269 -17.426   3.758  0.00  0.00    +0.162 A 
ATOM     17  C   LIG    1       25.601 -17.680   3.391  0.00  0.00    +0.163 A 
ATOM     18  C   LIG    1       26.496 -16.602   3.332  0.00  0.00    +0.049 A 
ATOM     19  C   LIG    1       26.081 -15.315   3.699  0.00  0.00    +0.004 A 
ATOM     20  C   LIG    1       24.772 -15.084   4.100  0.00  0.00    +0.004 A 
ATOM     21  C   LIG    1       23.856 -16.136   4.106  0.00  0.00    +0.049 A 
BRANCH  16  22
ATOM     22  O   LIG    1       23.254 -18.350   3.704  0.00  0.00    -0.489 OA
BRANCH  22  24
ATOM     23  C   LIG    1       20.868 -18.572   3.699  0.00  0.00    +0.048 C 
ATOM     24  C   LIG    1       22.071 -17.970   4.404  0.00  0.00    +0.226 C 
ENDBRANCH  22  24
ENDBRANCH  16  22
ENDBRANCH  15  17
ENDBRANCH   1  15
TORSDOF 6
ENDMDL
