MODEL 1
REMARK VINA RESULT:      -1.1      0.000      0.000
REMARK  Name = *****
REMARK                            x       y       z     vdW  Elec       q    Type
REMARK                         _______ _______ _______ _____ _____    ______ ____
ROOT
ATOM      1  N   LIG    1       25.404 -18.758   4.032  0.00  0.00    -0.344 NA
ATOM      2  C   LIG    1       24.879 -17.445   3.895  0.00  0.00    +0.090 C 
ATOM      3  C   LIG    1       23.511 -17.233   4.156  0.00  0.00    +0.052 C 
ATOM      4  C   LIG    1       22.937 -15.966   4.070  0.00  0.00    +0.054 C 
ATOM      5  C   LIG    1       23.714 -14.874   3.705  0.00  0.00    +0.148 C 
ATOM      6  C   LIG    1       25.083 -14.985   3.391  0.00  0.00    +0.103 C 
ATOM      7  F   LIG    1       23.070 -13.700   3.641  0.00  0.00    -0.203 F 
ATOM      8  C   LIG    1       22.644 -18.361   4.567  0.00  0.00    +0.203 C 
ATOM      9  O   LIG    1       21.462 -18.194   4.860  0.00  0.00    -0.286 OA
ATOM     10  C   LIG    1       23.239 -19.701   4.654  0.00  0.00    +0.122 C 
ATOM     11  C   LIG    1       25.625 -16.298   3.515  0.00  0.00    +0.171 C 
ATOM     12  F   LIG    1       26.942 -16.445   3.303  0.00  0.00    -0.201 F 
ATOM     13  C   LIG    1       24.550 -19.794   4.398  0.00  0.00    +0.105 C 
ENDROOT
BRANCH   6  14
ATOM     14  N   LIG    1       25.890 -13.886   3.037  0.00  0.00    -0.323 NA
ATOM     15  C   LIG    1       25.859 -12.665   3.879  0.00  0.00    +0.123 C 
ATOM     16  C   LIG    1       26.972 -12.683   4.967  0.00  0.00    +0.068 C 
ATOM     17  C   LIG    1       26.636 -13.637   6.117  0.00  0.00    +0.025 C 
ATOM     18  N   LIG    1       28.329 -12.948   4.426  0.00  0.00    -0.310 NA
ATOM     19  H   LIG    1       28.592 -12.144   3.854  0.00  0.00    +0.122 HD
ATOM     20  C   LIG    1       28.321 -14.135   3.539  0.00  0.00    +0.100 C 
ATOM     21  C   LIG    1       27.231 -14.083   2.443  0.00  0.00    +0.120 C 
ENDBRANCH   6  14
BRANCH   1  23
ATOM     22  C   LIG    1       27.395 -19.683   5.179  0.00  0.00    +0.027 C 
ATOM     23  C   LIG    1       26.854 -19.020   3.918  0.00  0.00    +0.118 C 
ENDBRANCH   1  23
BRANCH  10  24
ATOM     24  C   LIG    1       22.490 -20.911   5.053  0.00  0.00    +0.342 C 
ATOM     25  O   LIG    1       22.760 -21.571   6.039  0.00  0.00    -0.245 OA
BRANCH  24  26
ATOM     26  O   LIG    1       21.442 -21.199   4.249  0.00  0.00    -0.477 OA
ATOM     27  H   LIG    1       20.655 -21.553   4.728  0.00  0.00    +0.295 HD
ENDBRANCH  24  26
ENDBRANCH  10  24
TORSDOF 4
ENDMDL
MODEL 2
REMARK VINA RESULT:      -0.9      3.558      7.117
REMARK  Name = *****
REMARK                            x       y       z     vdW  Elec       q    Type
REMARK                         _______ _______ _______ _____ _____    ______ ____
ROOT
ATOM      1  N   LIG    1       25.204 -14.441   3.928  0.00  0.00    -0.344 NA
ATOM      2  C   LIG    1       25.442 -15.839   3.846  0.00  0.00    +0.090 C 
ATOM      3  C   LIG    1       26.771 -16.303   3.904  0.00  0.00    +0.052 C 
ATOM      4  C   LIG    1       27.076 -17.663   3.860  0.00  0.00    +0.054 C 
ATOM      5  C   LIG    1       26.056 -18.599   3.742  0.00  0.00    +0.148 C 
ATOM      6  C   LIG    1       24.698 -18.238   3.643  0.00  0.00    +0.103 C 
ATOM      7  F   LIG    1       26.448 -19.880   3.698  0.00  0.00    -0.203 F 
ATOM      8  C   LIG    1       27.893 -15.347   4.048  0.00  0.00    +0.203 C 
ATOM      9  O   LIG    1       29.056 -15.727   4.162  0.00  0.00    -0.286 OA
ATOM     10  C   LIG    1       27.582 -13.911   4.089  0.00  0.00    +0.122 C 
ATOM     11  C   LIG    1       24.441 -16.837   3.715  0.00  0.00    +0.171 C 
ATOM     12  F   LIG    1       23.158 -16.443   3.704  0.00  0.00    -0.201 F 
ATOM     13  C   LIG    1       26.288 -13.575   4.040  0.00  0.00    +0.105 C 
ENDROOT
BRANCH   6  14
ATOM     14  N   LIG    1       23.651 -19.174   3.541  0.00  0.00    -0.323 NA
ATOM     15  C   LIG    1       23.973 -20.622   3.544  0.00  0.00    +0.123 C 
ATOM     16  C   LIG    1       23.906 -21.230   4.975  0.00  0.00    +0.068 C 
ATOM     17  C   LIG    1       25.116 -20.832   5.825  0.00  0.00    +0.025 C 
ATOM     18  N   LIG    1       22.633 -20.945   5.683  0.00  0.00    -0.310 NA
ATOM     19  H   LIG    1       21.892 -21.450   5.194  0.00  0.00    +0.122 HD
ATOM     20  C   LIG    1       22.301 -19.503   5.614  0.00  0.00    +0.100 C 
ATOM     21  C   LIG    1       22.339 -18.926   4.180  0.00  0.00    +0.120 C 
ENDBRANCH   6  14
BRANCH   1  23
ATOM     22  C   LIG    1       23.843 -12.382   4.118  0.00  0.00    +0.027 C 
ATOM     23  C   LIG    1       23.832 -13.902   4.023  0.00  0.00    +0.118 C 
ENDBRANCH   1  23
BRANCH  10  24
ATOM     24  C   LIG    1       28.602 -12.852   4.232  0.00  0.00    +0.342 C 
ATOM     25  O   LIG    1       28.683 -12.126   5.206  0.00  0.00    -0.245 OA
BRANCH  24  26
ATOM     26  O   LIG    1       29.475 -12.785   3.201  0.00  0.00    -0.477 OA
ATOM     27  H   LIG    1       29.820 -11.877   3.027  0.00  0.00    +0.295 HD
ENDBRANCH  24  26
ENDBRANCH  10  24
TORSDOF 4
ENDMDL
MODEL 3
REMARK VINA RESULT:       0.3      1.530      2.962
REMARK  Name = *****
REMARK                            x       y       z     vdW  Elec       q    Type
REMARK                         _______ _______ _______ _____ _____    ______ ____
ROOT
ATOM      1  N   LIG    1       22.684 -17.025   4.517  0.00  0.00    -0.344 NA
ATOM      2  C   LIG    1       23.979 -16.580   4.136  0.00  0.00    +0.090 C 
ATOM      3  C   LIG    1       24.936 -17.539   3.749  0.00  0.00    +0.052 C 
ATOM      4  C   LIG    1       26.216 -17.172   3.336  0.00  0.00    +0.054 C 
ATOM      5  C   LIG    1       26.579 -15.831   3.311  0.00  0.00    +0.148 C 
ATOM      6  C   LIG    1       25.709 -14.798   3.710  0.00  0.00    +0.103 C 
ATOM      7  F   LIG    1       27.833 -15.578   2.909  0.00  0.00    -0.203 F 
ATOM      8  C   LIG    1       24.592 -18.979   3.740  0.00  0.00    +0.203 C 
ATOM      9  O   LIG    1       25.387 -19.832   3.350  0.00  0.00    -0.286 OA
ATOM     10  C   LIG    1       23.248 -19.377   4.180  0.00  0.00    +0.122 C 
ATOM     11  C   LIG    1       24.407 -15.227   4.104  0.00  0.00    +0.171 C 
ATOM     12  F   LIG    1       23.512 -14.277   4.419  0.00  0.00    -0.201 F 
ATOM     13  C   LIG    1       22.409 -18.389   4.516  0.00  0.00    +0.105 C 
ENDROOT
BRANCH   6  14
ATOM     14  N   LIG    1       26.055 -13.434   3.675  0.00  0.00    -0.323 NA
ATOM     15  C   LIG    1       25.870 -12.609   4.893  0.00  0.00    +0.123 C 
ATOM     16  C   LIG    1       27.162 -12.553   5.758  0.00  0.00    +0.068 C 
ATOM     17  C   LIG    1       27.399 -13.857   6.525  0.00  0.00    +0.025 C 
ATOM     18  N   LIG    1       28.371 -12.150   4.996  0.00  0.00    -0.310 NA
ATOM     19  H   LIG    1       28.247 -11.174   4.721  0.00  0.00    +0.122 HD
ATOM     20  C   LIG    1       28.500 -12.945   3.753  0.00  0.00    +0.100 C 
ATOM     21  C   LIG    1       27.217 -12.960   2.890  0.00  0.00    +0.120 C 
ENDBRANCH   6  14
BRANCH   1  23
ATOM     22  C   LIG    1       21.651 -15.560   6.225  0.00  0.00    +0.027 C 
ATOM     23  C   LIG    1       21.594 -16.065   4.789  0.00  0.00    +0.118 C 
ENDBRANCH   1  23
BRANCH  10  24
ATOM     24  C   LIG    1       22.774 -20.775   4.218  0.00  0.00    +0.342 C 
ATOM     25  O   LIG    1       21.938 -21.178   5.006  0.00  0.00    -0.245 OA
BRANCH  24  26
ATOM     26  O   LIG    1       23.317 -21.568   3.267  0.00  0.00    -0.477 OA
ATOM     27  H   LIG    1       23.048 -21.332   2.347  0.00  0.00    +0.295 HD
ENDBRANCH  24  26
ENDBRANCH  10  24
TORSDOF 4
ENDMDL
MODEL 4
REMARK VINA RESULT:       0.3      3.474      6.597
REMARK  Name = *****
REMARK                            x       y       z     vdW  Elec       q    Type
REMARK                         _______ _______ _______ _____ _____    ______ ____
ROOT
ATOM      1  N   LIG    1       28.096 -16.919   4.436  0.00  0.00    -0.344 NA
ATOM      2  C   LIG    1       26.778 -17.381   4.171  0.00  0.00    +0.090 C 
ATOM      3  C   LIG    1       25.819 -16.458   3.708  0.00  0.00    +0.052 C 
ATOM      4  C   LIG    1       24.517 -16.848   3.400  0.00  0.00    +0.054 C 
ATOM      5  C   LIG    1       24.132 -18.173   3.561  0.00  0.00    +0.148 C 
ATOM      6  C   LIG    1       25.004 -19.166   4.049  0.00  0.00    +0.103 C 
ATOM      7  F   LIG    1       22.857 -18.448   3.249  0.00  0.00    -0.203 F 
ATOM      8  C   LIG    1       26.185 -15.038   3.502  0.00  0.00    +0.203 C 
ATOM      9  O   LIG    1       25.386 -14.225   3.042  0.00  0.00    -0.286 OA
ATOM     10  C   LIG    1       27.554 -14.617   3.830  0.00  0.00    +0.122 C 
ATOM     11  C   LIG    1       26.329 -18.718   4.328  0.00  0.00    +0.171 C 
ATOM     12  F   LIG    1       27.222 -19.640   4.722  0.00  0.00    -0.201 F 
ATOM     13  C   LIG    1       28.392 -15.572   4.251  0.00  0.00    +0.105 C 
ENDROOT
BRANCH   6  14
ATOM     14  N   LIG    1       24.636 -20.516   4.201  0.00  0.00    -0.323 NA
ATOM     15  C   LIG    1       24.833 -21.176   5.515  0.00  0.00    +0.123 C 
ATOM     16  C   LIG    1       23.557 -21.093   6.404  0.00  0.00    +0.068 C 
ATOM     17  C   LIG    1       23.357 -19.695   6.994  0.00  0.00    +0.025 C 
ATOM     18  N   LIG    1       22.327 -21.572   5.724  0.00  0.00    -0.310 NA
ATOM     19  H   LIG    1       22.430 -22.577   5.578  0.00  0.00    +0.122 HD
ATOM     20  C   LIG    1       22.185 -20.946   4.388  0.00  0.00    +0.100 C 
ATOM     21  C   LIG    1       23.450 -21.069   3.508  0.00  0.00    +0.120 C 
ENDBRANCH   6  14
BRANCH   1  23
ATOM     22  C   LIG    1       29.276 -18.066   6.286  0.00  0.00    +0.027 C 
ATOM     23  C   LIG    1       29.182 -17.860   4.779  0.00  0.00    +0.118 C 
ENDBRANCH   1  23
BRANCH  10  24
ATOM     24  C   LIG    1       28.050 -13.235   3.670  0.00  0.00    +0.342 C 
ATOM     25  O   LIG    1       28.940 -12.760   4.352  0.00  0.00    -0.245 OA
BRANCH  24  26
ATOM     26  O   LIG    1       27.459 -12.549   2.666  0.00  0.00    -0.477 OA
ATOM     27  H   LIG    1       26.631 -12.084   2.931  0.00  0.00    +0.295 HD
ENDBRANCH  24  26
ENDBRANCH  10  24
TORSDOF 4
ENDMDL
MODEL 5
REMARK VINA RESULT:       0.5      2.754      4.215
REMARK  Name = *****
REMARK                            x       y       z     vdW  Elec       q    Type
REMARK                         _______ _______ _______ _____ _____    ______ ____
ROOT
ATOM      1  N   LIG    1       25.829 -18.842   4.192  0.00  0.00    -0.344 NA
ATOM      2  C   LIG    1       26.453 -17.574   4.044  0.00  0.00    +0.090 C 
ATOM      3  C   LIG    1       27.704 -17.361   4.656  0.00  0.00    +0.052 C 
ATOM      4  C   LIG    1       28.386 -16.152   4.527  0.00  0.00    +0.054 C 
ATOM      5  C   LIG    1       27.828 -15.115   3.791  0.00  0.00    +0.148 C 
ATOM      6  C   LIG    1       26.568 -15.214   3.169  0.00  0.00    +0.103 C 
ATOM      7  F   LIG    1       28.554 -13.989   3.733  0.00  0.00    -0.203 F 
ATOM      8  C   LIG    1       28.351 -18.442   5.435  0.00  0.00    +0.203 C 
ATOM      9  O   LIG    1       29.468 -18.304   5.929  0.00  0.00    -0.286 OA
ATOM     10  C   LIG    1       27.636 -19.717   5.582  0.00  0.00    +0.122 C 
ATOM     11  C   LIG    1       25.923 -16.478   3.315  0.00  0.00    +0.171 C 
ATOM     12  F   LIG    1       24.756 -16.653   2.676  0.00  0.00    -0.201 F 
ATOM     13  C   LIG    1       26.460 -19.823   4.952  0.00  0.00    +0.105 C 
ENDROOT
BRANCH   6  14
ATOM     14  N   LIG    1       25.995 -14.180   2.405  0.00  0.00    -0.323 NA
ATOM     15  C   LIG    1       24.549 -14.236   2.080  0.00  0.00    +0.123 C 
ATOM     16  C   LIG    1       23.688 -13.467   3.123  0.00  0.00    +0.068 C 
ATOM     17  C   LIG    1       23.551 -14.239   4.438  0.00  0.00    +0.025 C 
ATOM     18  N   LIG    1       24.147 -12.075   3.361  0.00  0.00    -0.310 NA
ATOM     19  H   LIG    1       23.979 -11.547   2.504  0.00  0.00    +0.122 HD
ATOM     20  C   LIG    1       25.605 -12.037   3.623  0.00  0.00    +0.100 C 
ATOM     21  C   LIG    1       26.445 -12.778   2.557  0.00  0.00    +0.120 C 
ENDBRANCH   6  14
BRANCH   1  23
ATOM     22  C   LIG    1       23.400 -19.275   4.397  0.00  0.00    +0.027 C 
ATOM     23  C   LIG    1       24.593 -19.179   3.456  0.00  0.00    +0.118 C 
ENDBRANCH   1  23
BRANCH  10  24
ATOM     24  C   LIG    1       28.166 -20.876   6.329  0.00  0.00    +0.342 C 
ATOM     25  O   LIG    1       27.484 -21.572   7.059  0.00  0.00    -0.245 OA
BRANCH  24  26
ATOM     26  O   LIG    1       29.474 -21.130   6.098  0.00  0.00    -0.477 OA
ATOM     27  H   LIG    1       29.886 -20.533   5.429  0.00  0.00    +0.295 HD
ENDBRANCH  24  26
ENDBRANCH  10  24
TORSDOF 4
ENDMDL
MODEL 6
REMARK VINA RESULT:       1.2      3.257      6.347
REMARK  Name = *****
REMARK                            x       y       z     vdW  Elec       q    Type
REMARK                         _______ _______ _______ _____ _____    ______ ____
ROOT
ATOM      1  N   LIG    1       26.937 -16.547   3.628  0.00  0.00    -0.344 NA
ATOM      2  C   LIG    1       25.598 -16.987   3.810  0.00  0.00    +0.090 C 
ATOM      3  C   LIG    1       24.556 -16.044   3.705  0.00  0.00    +0.052 C 
ATOM      4  C   LIG    1       23.219 -16.412   3.842  0.00  0.00    +0.054 C 
ATOM      5  C   LIG    1       22.886 -17.735   4.103  0.00  0.00    +0.148 C 
ATOM      6  C   LIG    1       23.852 -18.747   4.260  0.00  0.00    +0.103 C 
ATOM      7  F   LIG    1       21.575 -17.988   4.228  0.00  0.00    -0.203 F 
ATOM      8  C   LIG    1       24.858 -14.625   3.409  0.00  0.00    +0.203 C 
ATOM      9  O   LIG    1       23.967 -13.793   3.252  0.00  0.00    -0.286 OA
ATOM     10  C   LIG    1       26.266 -14.227   3.269  0.00  0.00    +0.122 C 
ATOM     11  C   LIG    1       25.203 -18.322   4.089  0.00  0.00    +0.171 C 
ATOM     12  F   LIG    1       26.159 -19.262   4.150  0.00  0.00    -0.201 F 
ATOM     13  C   LIG    1       27.179 -15.200   3.374  0.00  0.00    +0.105 C 
ENDROOT
BRANCH   6  14
ATOM     14  N   LIG    1       23.531 -20.096   4.507  0.00  0.00    -0.323 NA
ATOM     15  C   LIG    1       24.627 -21.083   4.666  0.00  0.00    +0.123 C 
ATOM     16  C   LIG    1       25.029 -21.270   6.158  0.00  0.00    +0.068 C 
ATOM     17  C   LIG    1       25.846 -20.088   6.686  0.00  0.00    +0.025 C 
ATOM     18  N   LIG    1       23.880 -21.572   7.049  0.00  0.00    -0.310 NA
ATOM     19  H   LIG    1       23.532 -22.497   6.795  0.00  0.00    +0.122 HD
ATOM     20  C   LIG    1       22.774 -20.610   6.828  0.00  0.00    +0.100 C 
ATOM     21  C   LIG    1       22.367 -20.464   5.344  0.00  0.00    +0.120 C 
ENDBRANCH   6  14
BRANCH   1  23
ATOM     22  C   LIG    1       28.718 -17.656   4.943  0.00  0.00    +0.027 C 
ATOM     23  C   LIG    1       28.059 -17.507   3.578  0.00  0.00    +0.118 C 
ENDBRANCH   1  23
BRANCH  10  24
ATOM     24  C   LIG    1       26.706 -12.848   2.972  0.00  0.00    +0.342 C 
ATOM     25  O   LIG    1       27.808 -12.420   3.261  0.00  0.00    -0.245 OA
BRANCH  24  26
ATOM     26  O   LIG    1       25.790 -12.108   2.307  0.00  0.00    -0.477 OA
ATOM     27  H   LIG    1       25.000 -12.620   2.010  0.00  0.00    +0.295 HD
ENDBRANCH  24  26
ENDBRANCH  10  24
TORSDOF 4
ENDMDL
MODEL 7
REMARK VINA RESULT:       1.5      2.794      6.105
REMARK  Name = *****
REMARK                            x       y       z     vdW  Elec       q    Type
REMARK                         _______ _______ _______ _____ _____    ______ ____
ROOT
ATOM      1  N   LIG    1       26.277 -14.965   3.819  0.00  0.00    -0.344 NA
ATOM      2  C   LIG    1       25.468 -16.130   3.905  0.00  0.00    +0.090 C 
ATOM      3  C   LIG    1       24.070 -15.977   3.989  0.00  0.00    +0.052 C 
ATOM      4  C   LIG    1       23.215 -17.076   4.045  0.00  0.00    +0.054 C 
ATOM      5  C   LIG    1       23.737 -18.363   4.033  0.00  0.00    +0.148 C 
ATOM      6  C   LIG    1       25.120 -18.624   3.985  0.00  0.00    +0.103 C 
ATOM      7  F   LIG    1       22.836 -19.354   4.100  0.00  0.00    -0.203 F 
ATOM      8  C   LIG    1       23.464 -14.626   3.987  0.00  0.00    +0.203 C 
ATOM      9  O   LIG    1       22.245 -14.464   3.998  0.00  0.00    -0.286 OA
ATOM     10  C   LIG    1       24.357 -13.461   3.934  0.00  0.00    +0.122 C 
ATOM     11  C   LIG    1       25.949 -17.465   3.907  0.00  0.00    +0.171 C 
ATOM     12  F   LIG    1       27.271 -17.659   3.780  0.00  0.00    -0.201 F 
ATOM     13  C   LIG    1       25.669 -13.714   3.843  0.00  0.00    +0.105 C 
ENDROOT
BRANCH   6  14
ATOM     14  N   LIG    1       25.665 -19.922   3.953  0.00  0.00    -0.323 NA
ATOM     15  C   LIG    1       27.098 -20.113   4.287  0.00  0.00    +0.123 C 
ATOM     16  C   LIG    1       27.304 -20.442   5.794  0.00  0.00    +0.068 C 
ATOM     17  C   LIG    1       27.132 -19.207   6.682  0.00  0.00    +0.025 C 
ATOM     18  N   LIG    1       26.469 -21.572   6.275  0.00  0.00    -0.310 NA
ATOM     19  H   LIG    1       26.806 -22.418   5.816  0.00  0.00    +0.122 HD
ATOM     20  C   LIG    1       25.054 -21.389   5.877  0.00  0.00    +0.100 C 
ATOM     21  C   LIG    1       24.867 -21.097   4.370  0.00  0.00    +0.120 C 
ENDBRANCH   6  14
BRANCH   1  23
ATOM     22  C   LIG    1       28.376 -13.678   3.550  0.00  0.00    +0.027 C 
ATOM     23  C   LIG    1       27.732 -15.059   3.579  0.00  0.00    +0.118 C 
ENDBRANCH   1  23
BRANCH  10  24
ATOM     24  C   LIG    1       23.886 -12.061   3.924  0.00  0.00    +0.342 C 
ATOM     25  O   LIG    1       23.587 -11.447   4.931  0.00  0.00    -0.245 OA
BRANCH  24  26
ATOM     26  O   LIG    1       23.856 -11.499   2.694  0.00  0.00    -0.477 OA
ATOM     27  H   LIG    1       22.959 -11.484   2.282  0.00  0.00    +0.295 HD
ENDBRANCH  24  26
ENDBRANCH  10  24
TORSDOF 4
ENDMDL
MODEL 8
REMARK VINA RESULT:       1.6      0.886      1.155
REMARK  Name = *****
REMARK                            x       y       z     vdW  Elec       q    Type
REMARK                         _______ _______ _______ _____ _____    ______ ____
ROOT
ATOM      1  N   LIG    1       24.833 -19.092   3.753  0.00  0.00    -0.344 NA
ATOM      2  C   LIG    1       24.649 -17.683   3.742  0.00  0.00    +0.090 C 
ATOM      3  C   LIG    1       23.371 -17.166   4.033  0.00  0.00    +0.052 C 
ATOM      4  C   LIG    1       23.127 -15.794   4.070  0.00  0.00    +0.054 C 
ATOM      5  C   LIG    1       24.155 -14.899   3.800  0.00  0.00    +0.148 C 
ATOM      6  C   LIG    1       25.458 -15.313   3.466  0.00  0.00    +0.103 C 
ATOM      7  F   LIG    1       23.820 -13.601   3.850  0.00  0.00    -0.203 F 
ATOM      8  C   LIG    1       22.248 -18.078   4.346  0.00  0.00    +0.203 C 
ATOM      9  O   LIG    1       21.138 -17.653   4.663  0.00  0.00    -0.286 OA
ATOM     10  C   LIG    1       22.494 -19.526   4.304  0.00  0.00    +0.122 C 
ATOM     11  C   LIG    1       25.659 -16.725   3.464  0.00  0.00    +0.171 C 
ATOM     12  F   LIG    1       26.903 -17.172   3.228  0.00  0.00    -0.201 F 
ATOM     13  C   LIG    1       23.745 -19.915   4.029  0.00  0.00    +0.105 C 
ENDROOT
BRANCH   6  14
ATOM     14  N   LIG    1       26.515 -14.419   3.208  0.00  0.00    -0.323 NA
ATOM     15  C   LIG    1       26.216 -12.978   3.027  0.00  0.00    +0.123 C 
ATOM     16  C   LIG    1       26.339 -12.188   4.362  0.00  0.00    +0.068 C 
ATOM     17  C   LIG    1       25.153 -12.446   5.295  0.00  0.00    +0.025 C 
ATOM     18  N   LIG    1       27.632 -12.400   5.061  0.00  0.00    -0.310 NA
ATOM     19  H   LIG    1       28.363 -11.979   4.487  0.00  0.00    +0.122 HD
ATOM     20  C   LIG    1       27.939 -13.845   5.175  0.00  0.00    +0.100 C 
ATOM     21  C   LIG    1       27.844 -14.606   3.832  0.00  0.00    +0.120 C 
ENDBRANCH   6  14
BRANCH   1  23
ATOM     22  C   LIG    1       26.937 -19.674   4.923  0.00  0.00    +0.027 C 
ATOM     23  C   LIG    1       26.175 -19.691   3.604  0.00  0.00    +0.118 C 
ENDBRANCH   1  23
BRANCH  10  24
ATOM     24  C   LIG    1       21.465 -20.546   4.595  0.00  0.00    +0.342 C 
ATOM     25  O   LIG    1       20.348 -20.526   4.113  0.00  0.00    -0.245 OA
BRANCH  24  26
ATOM     26  O   LIG    1       21.886 -21.535   5.415  0.00  0.00    -0.477 OA
ATOM     27  H   LIG    1       21.438 -21.545   6.295  0.00  0.00    +0.295 HD
ENDBRANCH  24  26
ENDBRANCH  10  24
TORSDOF 4
ENDMDL
MODEL 9
REMARK VINA RESULT:       1.8      1.628      3.463
REMARK  Name = *****
REMARK                            x       y       z     vdW  Elec       q    Type
REMARK                         _______ _______ _______ _____ _____    ______ ____
ROOT
ATOM      1  N   LIG    1       22.465 -17.087   4.743  0.00  0.00    -0.344 NA
ATOM      2  C   LIG    1       23.777 -16.779   4.294  0.00  0.00    +0.090 C 
ATOM      3  C   LIG    1       24.646 -17.839   3.969  0.00  0.00    +0.052 C 
ATOM      4  C   LIG    1       25.936 -17.609   3.493  0.00  0.00    +0.054 C 
ATOM      5  C   LIG    1       26.399 -16.308   3.343  0.00  0.00    +0.148 C 
ATOM      6  C   LIG    1       25.622 -15.180   3.672  0.00  0.00    +0.103 C 
ATOM      7  F   LIG    1       27.655 -16.189   2.890  0.00  0.00    -0.203 F 
ATOM      8  C   LIG    1       24.194 -19.244   4.094  0.00  0.00    +0.203 C 
ATOM      9  O   LIG    1       24.910 -20.186   3.760  0.00  0.00    -0.286 OA
ATOM     10  C   LIG    1       22.838 -19.496   4.600  0.00  0.00    +0.122 C 
ATOM     11  C   LIG    1       24.304 -15.471   4.133  0.00  0.00    +0.171 C 
ATOM     12  F   LIG    1       23.495 -14.431   4.385  0.00  0.00    -0.201 F 
ATOM     13  C   LIG    1       22.087 -18.421   4.868  0.00  0.00    +0.105 C 
ENDROOT
BRANCH   6  14
ATOM     14  N   LIG    1       26.069 -13.855   3.509  0.00  0.00    -0.323 NA
ATOM     15  C   LIG    1       25.962 -13.215   2.175  0.00  0.00    +0.123 C 
ATOM     16  C   LIG    1       24.636 -12.415   2.019  0.00  0.00    +0.068 C 
ATOM     17  C   LIG    1       23.430 -13.336   1.813  0.00  0.00    +0.025 C 
ATOM     18  N   LIG    1       24.393 -11.447   3.118  0.00  0.00    -0.310 NA
ATOM     19  H   LIG    1       25.102 -10.716   3.044  0.00  0.00    +0.122 HD
ATOM     20  C   LIG    1       24.566 -12.094   4.440  0.00  0.00    +0.100 C 
ATOM     21  C   LIG    1       25.905 -12.854   4.587  0.00  0.00    +0.120 C 
ENDBRANCH   6  14
BRANCH   1  23
ATOM     22  C   LIG    1       21.551 -15.456   6.367  0.00  0.00    +0.027 C 
ATOM     23  C   LIG    1       21.459 -16.026   4.957  0.00  0.00    +0.118 C 
ENDBRANCH   1  23
BRANCH  10  24
ATOM     24  C   LIG    1       22.260 -20.845   4.771  0.00  0.00    +0.342 C 
ATOM     25  O   LIG    1       22.523 -21.572   5.712  0.00  0.00    -0.245 OA
BRANCH  24  26
ATOM     26  O   LIG    1       21.374 -21.191   3.811  0.00  0.00    -0.477 OA
ATOM     27  H   LIG    1       20.863 -22.012   4.014  0.00  0.00    +0.295 HD
ENDBRANCH  24  26
ENDBRANCH  10  24
TORSDOF 4
ENDMDL
