MODEL 1
REMARK VINA RESULT:      -3.7      0.000      0.000
REMARK  Name = *****
REMARK                            x       y       z     vdW  Elec       q    Type
REMARK                         _______ _______ _______ _____ _____    ______ ____
ROOT
ATOM      1  C   LIG    1       30.661 -16.796  10.060  0.00  0.00    +0.040 C 
ATOM      2  C   LIG    1       31.978 -17.272   9.460  0.00  0.00    +0.137 C 
ENDROOT
BRANCH   2   3
ATOM      3  O   LIG    1       32.580 -16.203   8.733  0.00  0.00    -0.390 OA
ATOM      4  H   LIG    1       33.455 -16.502   8.430  0.00  0.00    +0.210 HD
ENDBRANCH   2   3
BRANCH   2   5
ATOM      5  C   LIG    1       31.796 -18.489   8.544  0.00  0.00    +0.186 C 
BRANCH   5   6
ATOM      6  O   LIG    1       32.082 -19.706   9.219  0.00  0.00    -0.393 OA
ATOM      7  H   LIG    1       32.528 -19.477  10.054  0.00  0.00    +0.209 HD
ENDBRANCH   5   6
ENDBRANCH   2   5
TORSDOF 3
ENDMDL
MODEL 2
REMARK VINA RESULT:      -3.7      0.736      2.668
REMARK  Name = *****
REMARK                            x       y       z     vdW  Elec       q    Type
REMARK                         _______ _______ _______ _____ _____    ______ ____
ROOT
ATOM      1  C   LIG    1       30.177 -18.459   8.439  0.00  0.00    +0.040 C 
ATOM      2  C   LIG    1       31.688 -18.394   8.630  0.00  0.00    +0.137 C 
ENDROOT
BRANCH   2   3
ATOM      3  O   LIG    1       32.141 -19.611   9.220  0.00  0.00    -0.390 OA
ATOM      4  H   LIG    1       31.525 -19.844   9.936  0.00  0.00    +0.210 HD
ENDBRANCH   2   3
BRANCH   2   5
ATOM      5  C   LIG    1       32.115 -17.203   9.497  0.00  0.00    +0.186 C 
BRANCH   5   6
ATOM      6  O   LIG    1       32.662 -16.150   8.715  0.00  0.00    -0.393 OA
ATOM      7  H   LIG    1       33.631 -16.220   8.772  0.00  0.00    +0.209 HD
ENDBRANCH   5   6
ENDBRANCH   2   5
TORSDOF 3
ENDMDL
MODEL 3
REMARK VINA RESULT:      -3.6      3.343      3.706
REMARK  Name = *****
REMARK                            x       y       z     vdW  Elec       q    Type
REMARK                         _______ _______ _______ _____ _____    ______ ____
ROOT
ATOM      1  C   LIG    1       29.306 -20.605   7.329  0.00  0.00    +0.040 C 
ATOM      2  C   LIG    1       30.566 -20.387   8.157  0.00  0.00    +0.137 C 
ENDROOT
BRANCH   2   3
ATOM      3  O   LIG    1       31.634 -19.994   7.298  0.00  0.00    -0.390 OA
ATOM      4  H   LIG    1       32.406 -19.789   7.854  0.00  0.00    +0.210 HD
ENDBRANCH   2   3
BRANCH   2   5
ATOM      5  C   LIG    1       30.967 -21.638   8.949  0.00  0.00    +0.186 C 
BRANCH   5   6
ATOM      6  O   LIG    1       32.259 -21.508   9.525  0.00  0.00    -0.393 OA
ATOM      7  H   LIG    1       32.323 -20.609   9.894  0.00  0.00    +0.209 HD
ENDBRANCH   5   6
ENDBRANCH   2   5
TORSDOF 3
ENDMDL
MODEL 4
REMARK VINA RESULT:      -3.4      1.560      3.163
REMARK  Name = *****
REMARK                            x       y       z     vdW  Elec       q    Type
REMARK                         _______ _______ _______ _____ _____    ______ ____
ROOT
ATOM      1  C   LIG    1       29.849 -18.959   7.058  0.00  0.00    +0.040 C 
ATOM      2  C   LIG    1       31.317 -19.076   7.447  0.00  0.00    +0.137 C 
ENDROOT
BRANCH   2   3
ATOM      3  O   LIG    1       31.638 -20.448   7.670  0.00  0.00    -0.390 OA
ATOM      4  H   LIG    1       32.438 -20.481   8.224  0.00  0.00    +0.210 HD
ENDBRANCH   2   3
BRANCH   2   5
ATOM      5  C   LIG    1       31.658 -18.251   8.694  0.00  0.00    +0.186 C 
BRANCH   5   6
ATOM      6  O   LIG    1       32.359 -17.060   8.364  0.00  0.00    -0.393 OA
ATOM      7  H   LIG    1       33.248 -17.319   8.065  0.00  0.00    +0.209 HD
ENDBRANCH   5   6
ENDBRANCH   2   5
TORSDOF 3
ENDMDL
MODEL 5
REMARK VINA RESULT:      -3.3      1.724      2.515
REMARK  Name = *****
REMARK                            x       y       z     vdW  Elec       q    Type
REMARK                         _______ _______ _______ _____ _____    ______ ____
ROOT
ATOM      1  C   LIG    1       31.744 -18.353   8.752  0.00  0.00    +0.040 C 
ATOM      2  C   LIG    1       31.610 -16.910   9.221  0.00  0.00    +0.137 C 
ENDROOT
BRANCH   2   3
ATOM      3  O   LIG    1       32.722 -16.154   8.747  0.00  0.00    -0.390 OA
ATOM      4  H   LIG    1       32.397 -15.537   8.068  0.00  0.00    +0.210 HD
ENDBRANCH   2   3
BRANCH   2   5
ATOM      5  C   LIG    1       31.517 -16.799  10.748  0.00  0.00    +0.186 C 
BRANCH   5   6
ATOM      6  O   LIG    1       30.219 -16.407  11.171  0.00  0.00    -0.393 OA
ATOM      7  H   LIG    1       29.780 -15.986  10.410  0.00  0.00    +0.209 HD
ENDBRANCH   5   6
ENDBRANCH   2   5
TORSDOF 3
ENDMDL
MODEL 6
REMARK VINA RESULT:      -3.3      9.993     10.856
REMARK  Name = *****
REMARK                            x       y       z     vdW  Elec       q    Type
REMARK                         _______ _______ _______ _____ _____    ______ ____
ROOT
ATOM      1  C   LIG    1       24.058 -25.310   6.201  0.00  0.00    +0.040 C 
ATOM      2  C   LIG    1       23.628 -23.952   6.742  0.00  0.00    +0.137 C 
ENDROOT
BRANCH   2   3
ATOM      3  O   LIG    1       22.212 -23.827   6.631  0.00  0.00    -0.390 OA
ATOM      4  H   LIG    1       21.841 -24.719   6.514  0.00  0.00    +0.210 HD
ENDBRANCH   2   3
BRANCH   2   5
ATOM      5  C   LIG    1       24.314 -22.789   6.013  0.00  0.00    +0.186 C 
BRANCH   5   6
ATOM      6  O   LIG    1       24.774 -23.171   4.725  0.00  0.00    -0.393 OA
ATOM      7  H   LIG    1       24.355 -24.022   4.507  0.00  0.00    +0.209 HD
ENDBRANCH   5   6
ENDBRANCH   2   5
TORSDOF 3
ENDMDL
MODEL 7
REMARK VINA RESULT:      -3.3      2.017      2.702
REMARK  Name = *****
REMARK                            x       y       z     vdW  Elec       q    Type
REMARK                         _______ _______ _______ _____ _____    ______ ____
ROOT
ATOM      1  C   LIG    1       30.286 -17.964   9.038  0.00  0.00    +0.040 C 
ATOM      2  C   LIG    1       30.862 -19.304   8.599  0.00  0.00    +0.137 C 
ENDROOT
BRANCH   2   3
ATOM      3  O   LIG    1       32.097 -19.532   9.274  0.00  0.00    -0.390 OA
ATOM      4  H   LIG    1       32.293 -18.744   9.811  0.00  0.00    +0.210 HD
ENDBRANCH   2   3
BRANCH   2   5
ATOM      5  C   LIG    1       31.074 -19.380   7.081  0.00  0.00    +0.186 C 
BRANCH   5   6
ATOM      6  O   LIG    1       30.346 -18.371   6.395  0.00  0.00    -0.393 OA
ATOM      7  H   LIG    1       30.152 -18.709   5.503  0.00  0.00    +0.209 HD
ENDBRANCH   5   6
ENDBRANCH   2   5
TORSDOF 3
ENDMDL
MODEL 8
REMARK VINA RESULT:      -3.3      9.584     10.387
REMARK  Name = *****
REMARK                            x       y       z     vdW  Elec       q    Type
REMARK                         _______ _______ _______ _____ _____    ______ ____
ROOT
ATOM      1  C   LIG    1       25.776 -23.497   6.990  0.00  0.00    +0.040 C 
ATOM      2  C   LIG    1       25.179 -24.316   5.853  0.00  0.00    +0.137 C 
ENDROOT
BRANCH   2   3
ATOM      3  O   LIG    1       24.818 -23.445   4.783  0.00  0.00    -0.390 OA
ATOM      4  H   LIG    1       25.080 -22.541   5.032  0.00  0.00    +0.210 HD
ENDBRANCH   2   3
BRANCH   2   5
ATOM      5  C   LIG    1       23.958 -25.130   6.299  0.00  0.00    +0.186 C 
BRANCH   5   6
ATOM      6  O   LIG    1       22.840 -24.299   6.574  0.00  0.00    -0.393 OA
ATOM      7  H   LIG    1       22.293 -24.758   7.236  0.00  0.00    +0.209 HD
ENDBRANCH   5   6
ENDBRANCH   2   5
TORSDOF 3
ENDMDL
MODEL 9
REMARK VINA RESULT:      -3.2      3.176      3.751
REMARK  Name = *****
REMARK                            x       y       z     vdW  Elec       q    Type
REMARK                         _______ _______ _______ _____ _____    ______ ____
ROOT
ATOM      1  C   LIG    1       29.015 -20.142   6.438  0.00  0.00    +0.040 C 
ATOM      2  C   LIG    1       29.653 -18.776   6.662  0.00  0.00    +0.137 C 
ENDROOT
BRANCH   2   3
ATOM      3  O   LIG    1       29.962 -18.187   5.401  0.00  0.00    -0.390 OA
ATOM      4  H   LIG    1       29.147 -18.176   4.868  0.00  0.00    +0.210 HD
ENDBRANCH   2   3
BRANCH   2   5
ATOM      5  C   LIG    1       30.919 -18.858   7.524  0.00  0.00    +0.186 C 
BRANCH   5   6
ATOM      6  O   LIG    1       31.629 -20.069   7.307  0.00  0.00    -0.393 OA
ATOM      7  H   LIG    1       31.056 -20.651   6.778  0.00  0.00    +0.209 HD
ENDBRANCH   5   6
ENDBRANCH   2   5
TORSDOF 3
ENDMDL
