MODEL 1
REMARK VINA RESULT:      -6.0      0.000      0.000
REMARK  Name = *****
REMARK                            x       y       z     vdW  Elec       q    Type
REMARK                         _______ _______ _______ _____ _____    ______ ____
ROOT
ATOM      1  C   LIG    1       30.041 -20.115   7.966  0.00  0.00    +0.171 C 
ATOM      2  C   LIG    1       30.310 -18.647   8.231  0.00  0.00    +0.180 C 
ATOM      3  O   LIG    1       29.722 -18.178   9.457  0.00  0.00    -0.369 OA
ATOM      4  C   LIG    1       30.693 -17.376  10.149  0.00  0.00    +0.194 C 
ATOM      5  C   LIG    1       32.032 -17.509   9.428  0.00  0.00    +0.171 C 
ATOM      6  C   LIG    1       31.810 -18.636   8.441  0.00  0.00    +0.180 C 
ATOM      7  O   LIG    1       32.168 -19.914   9.010  0.00  0.00    -0.369 OA
ATOM      8  C   LIG    1       31.030 -20.786   8.905  0.00  0.00    +0.194 C 
ENDROOT
BRANCH   1   9
ATOM      9  O   LIG    1       28.693 -20.507   8.169  0.00  0.00    -0.387 OA
ATOM     10  H   LIG    1       28.615 -20.881   9.057  0.00  0.00    +0.210 HD
ENDBRANCH   1   9
BRANCH   5  11
ATOM     11  O   LIG    1       32.364 -16.298   8.741  0.00  0.00    -0.387 OA
ATOM     12  H   LIG    1       31.567 -15.742   8.686  0.00  0.00    +0.210 HD
ENDBRANCH   5  11
TORSDOF 2
ENDMDL
MODEL 2
REMARK VINA RESULT:      -5.8      1.640      2.273
REMARK  Name = *****
REMARK                            x       y       z     vdW  Elec       q    Type
REMARK                         _______ _______ _______ _____ _____    ______ ____
ROOT
ATOM      1  C   LIG    1       30.773 -20.261   8.092  0.00  0.00    +0.171 C 
ATOM      2  C   LIG    1       30.894 -19.321   9.275  0.00  0.00    +0.180 C 
ATOM      3  O   LIG    1       32.241 -18.874   9.507  0.00  0.00    -0.369 OA
ATOM      4  C   LIG    1       32.214 -17.459   9.756  0.00  0.00    +0.194 C 
ATOM      5  C   LIG    1       30.807 -16.944   9.466  0.00  0.00    +0.171 C 
ATOM      6  C   LIG    1       30.116 -18.113   8.795  0.00  0.00    +0.180 C 
ATOM      7  O   LIG    1       30.262 -18.058   7.359  0.00  0.00    -0.369 OA
ATOM      8  C   LIG    1       30.845 -19.296   6.920  0.00  0.00    +0.194 C 
ENDROOT
BRANCH   1   9
ATOM      9  O   LIG    1       31.756 -21.285   8.059  0.00  0.00    -0.387 OA
ATOM     10  H   LIG    1       32.423 -21.088   8.730  0.00  0.00    +0.210 HD
ENDBRANCH   1   9
BRANCH   5  11
ATOM     11  O   LIG    1       30.132 -16.593  10.679  0.00  0.00    -0.387 OA
ATOM     12  H   LIG    1       30.463 -17.161  11.396  0.00  0.00    +0.210 HD
ENDBRANCH   5  11
TORSDOF 2
ENDMDL
MODEL 3
REMARK VINA RESULT:      -5.8      0.947      3.669
REMARK  Name = *****
REMARK                            x       y       z     vdW  Elec       q    Type
REMARK                         _______ _______ _______ _____ _____    ______ ____
ROOT
ATOM      1  C   LIG    1       31.730 -17.376   9.670  0.00  0.00    +0.171 C 
ATOM      2  C   LIG    1       31.689 -18.506   8.661  0.00  0.00    +0.180 C 
ATOM      3  O   LIG    1       32.125 -19.765   9.204  0.00  0.00    -0.369 OA
ATOM      4  C   LIG    1       31.209 -20.786   8.778  0.00  0.00    +0.194 C 
ATOM      5  C   LIG    1       30.017 -20.114   8.101  0.00  0.00    +0.171 C 
ATOM      6  C   LIG    1       30.202 -18.642   8.402  0.00  0.00    +0.180 C 
ATOM      7  O   LIG    1       29.523 -18.263   9.619  0.00  0.00    -0.369 OA
ATOM      8  C   LIG    1       30.485 -17.654  10.498  0.00  0.00    +0.194 C 
ENDROOT
BRANCH   1   9
ATOM      9  O   LIG    1       32.927 -17.316  10.429  0.00  0.00    -0.387 OA
ATOM     10  H   LIG    1       32.710 -17.490  11.355  0.00  0.00    +0.210 HD
ENDBRANCH   1   9
BRANCH   5  11
ATOM     11  O   LIG    1       30.037 -20.344   6.688  0.00  0.00    -0.387 OA
ATOM     12  H   LIG    1       29.709 -21.242   6.513  0.00  0.00    +0.210 HD
ENDBRANCH   5  11
TORSDOF 2
ENDMDL
MODEL 4
REMARK VINA RESULT:      -5.6      1.344      3.370
REMARK  Name = *****
REMARK                            x       y       z     vdW  Elec       q    Type
REMARK                         _______ _______ _______ _____ _____    ______ ____
ROOT
ATOM      1  C   LIG    1       31.260 -17.111  10.559  0.00  0.00    +0.171 C 
ATOM      2  C   LIG    1       30.890 -18.418   9.887  0.00  0.00    +0.180 C 
ATOM      3  O   LIG    1       29.609 -18.375   9.236  0.00  0.00    -0.369 OA
ATOM      4  C   LIG    1       29.735 -18.986   7.942  0.00  0.00    +0.194 C 
ATOM      5  C   LIG    1       31.215 -19.246   7.672  0.00  0.00    +0.171 C 
ATOM      6  C   LIG    1       31.929 -18.510   8.787  0.00  0.00    +0.180 C 
ATOM      7  O   LIG    1       32.257 -17.158   8.401  0.00  0.00    -0.369 OA
ATOM      8  C   LIG    1       31.691 -16.263   9.373  0.00  0.00    +0.194 C 
ENDROOT
BRANCH   1   9
ATOM      9  O   LIG    1       30.217 -16.538  11.332  0.00  0.00    -0.387 OA
ATOM     10  H   LIG    1       30.513 -15.674  11.650  0.00  0.00    +0.210 HD
ENDBRANCH   1   9
BRANCH   5  11
ATOM     11  O   LIG    1       31.506 -20.646   7.730  0.00  0.00    -0.387 OA
ATOM     12  H   LIG    1       31.875 -20.853   8.606  0.00  0.00    +0.210 HD
ENDBRANCH   5  11
TORSDOF 2
ENDMDL
MODEL 5
REMARK VINA RESULT:      -5.5      1.762      2.795
REMARK  Name = *****
REMARK                            x       y       z     vdW  Elec       q    Type
REMARK                         _______ _______ _______ _____ _____    ______ ____
ROOT
ATOM      1  C   LIG    1       28.864 -20.021   6.082  0.00  0.00    +0.171 C 
ATOM      2  C   LIG    1       30.155 -19.586   6.749  0.00  0.00    +0.180 C 
ATOM      3  O   LIG    1       30.152 -18.201   7.135  0.00  0.00    -0.369 OA
ATOM      4  C   LIG    1       30.689 -18.098   8.464  0.00  0.00    +0.194 C 
ATOM      5  C   LIG    1       30.850 -19.506   9.030  0.00  0.00    +0.171 C 
ATOM      6  C   LIG    1       30.131 -20.391   8.032  0.00  0.00    +0.180 C 
ATOM      7  O   LIG    1       28.745 -20.574   8.392  0.00  0.00    -0.369 OA
ATOM      8  C   LIG    1       27.934 -20.170   7.276  0.00  0.00    +0.194 C 
ENDROOT
BRANCH   1   9
ATOM      9  O   LIG    1       28.392 -19.125   5.089  0.00  0.00    -0.387 OA
ATOM     10  H   LIG    1       27.741 -18.536   5.494  0.00  0.00    +0.210 HD
ENDBRANCH   1   9
BRANCH   5  11
ATOM     11  O   LIG    1       32.233 -19.867   9.115  0.00  0.00    -0.387 OA
ATOM     12  H   LIG    1       32.731 -19.110   9.467  0.00  0.00    +0.210 HD
ENDBRANCH   5  11
TORSDOF 2
ENDMDL
MODEL 6
REMARK VINA RESULT:      -5.1      1.722      3.842
REMARK  Name = *****
REMARK                            x       y       z     vdW  Elec       q    Type
REMARK                         _______ _______ _______ _____ _____    ______ ____
ROOT
ATOM      1  C   LIG    1       31.507 -19.581   8.154  0.00  0.00    +0.171 C 
ATOM      2  C   LIG    1       30.385 -20.313   7.445  0.00  0.00    +0.180 C 
ATOM      3  O   LIG    1       29.303 -20.673   8.320  0.00  0.00    -0.369 OA
ATOM      4  C   LIG    1       28.064 -20.355   7.666  0.00  0.00    +0.194 C 
ATOM      5  C   LIG    1       28.375 -19.566   6.398  0.00  0.00    +0.171 C 
ATOM      6  C   LIG    1       29.850 -19.242   6.517  0.00  0.00    +0.180 C 
ATOM      7  O   LIG    1       30.060 -17.971   7.170  0.00  0.00    -0.369 OA
ATOM      8  C   LIG    1       30.923 -18.185   8.299  0.00  0.00    +0.194 C 
ENDROOT
BRANCH   1   9
ATOM      9  O   LIG    1       31.904 -20.173   9.381  0.00  0.00    -0.387 OA
ATOM     10  H   LIG    1       32.857 -20.048   9.486  0.00  0.00    +0.210 HD
ENDBRANCH   1   9
BRANCH   5  11
ATOM     11  O   LIG    1       28.129 -20.357   5.231  0.00  0.00    -0.387 OA
ATOM     12  H   LIG    1       27.233 -20.163   4.905  0.00  0.00    +0.210 HD
ENDBRANCH   5  11
TORSDOF 2
ENDMDL
MODEL 7
REMARK VINA RESULT:      -5.1      1.435      2.403
REMARK  Name = *****
REMARK                            x       y       z     vdW  Elec       q    Type
REMARK                         _______ _______ _______ _____ _____    ______ ____
ROOT
ATOM      1  C   LIG    1       31.086 -19.583   8.224  0.00  0.00    +0.171 C 
ATOM      2  C   LIG    1       31.860 -18.632   9.114  0.00  0.00    +0.180 C 
ATOM      3  O   LIG    1       32.228 -17.411   8.451  0.00  0.00    -0.369 OA
ATOM      4  C   LIG    1       31.956 -16.312   9.336  0.00  0.00    +0.194 C 
ATOM      5  C   LIG    1       31.185 -16.843  10.542  0.00  0.00    +0.171 C 
ATOM      6  C   LIG    1       30.822 -18.261  10.154  0.00  0.00    +0.180 C 
ATOM      7  O   LIG    1       29.533 -18.316   9.505  0.00  0.00    -0.369 OA
ATOM      8  C   LIG    1       29.702 -18.954   8.227  0.00  0.00    +0.194 C 
ENDROOT
BRANCH   1   9
ATOM      9  O   LIG    1       31.641 -19.752   6.929  0.00  0.00    -0.387 OA
ATOM     10  H   LIG    1       32.561 -20.034   7.027  0.00  0.00    +0.210 HD
ENDBRANCH   1   9
BRANCH   5  11
ATOM     11  O   LIG    1       32.007 -16.839  11.715  0.00  0.00    -0.387 OA
ATOM     12  H   LIG    1       32.016 -17.735  12.092  0.00  0.00    +0.210 HD
ENDBRANCH   5  11
TORSDOF 2
ENDMDL
MODEL 8
REMARK VINA RESULT:      -5.1      8.550      9.657
REMARK  Name = *****
REMARK                            x       y       z     vdW  Elec       q    Type
REMARK                         _______ _______ _______ _____ _____    ______ ____
ROOT
ATOM      1  C   LIG    1       24.738 -27.301   5.600  0.00  0.00    +0.171 C 
ATOM      2  C   LIG    1       24.171 -25.918   5.350  0.00  0.00    +0.180 C 
ATOM      3  O   LIG    1       23.474 -25.379   6.487  0.00  0.00    -0.369 OA
ATOM      4  C   LIG    1       23.876 -24.011   6.661  0.00  0.00    +0.194 C 
ATOM      5  C   LIG    1       25.039 -23.725   5.715  0.00  0.00    +0.171 C 
ATOM      6  C   LIG    1       25.429 -25.089   5.185  0.00  0.00    +0.180 C 
ATOM      7  O   LIG    1       26.450 -25.700   6.003  0.00  0.00    -0.369 OA
ATOM      8  C   LIG    1       25.970 -26.985   6.433  0.00  0.00    +0.194 C 
ENDROOT
BRANCH   1   9
ATOM      9  O   LIG    1       23.832 -28.197   6.224  0.00  0.00    -0.387 OA
ATOM     10  H   LIG    1       23.680 -27.896   7.130  0.00  0.00    +0.210 HD
ENDBRANCH   1   9
BRANCH   5  11
ATOM     11  O   LIG    1       24.627 -22.870   4.643  0.00  0.00    -0.387 OA
ATOM     12  H   LIG    1       25.194 -23.041   3.871  0.00  0.00    +0.210 HD
ENDBRANCH   5  11
TORSDOF 2
ENDMDL
MODEL 9
REMARK VINA RESULT:      -5.1      5.325      6.824
REMARK  Name = *****
REMARK                            x       y       z     vdW  Elec       q    Type
REMARK                         _______ _______ _______ _____ _____    ______ ____
ROOT
ATOM      1  C   LIG    1       24.529 -22.631   5.639  0.00  0.00    +0.171 C 
ATOM      2  C   LIG    1       25.186 -22.442   6.992  0.00  0.00    +0.180 C 
ATOM      3  O   LIG    1       26.606 -22.666   6.967  0.00  0.00    -0.369 OA
ATOM      4  C   LIG    1       27.246 -21.615   7.709  0.00  0.00    +0.194 C 
ATOM      5  C   LIG    1       26.199 -20.558   8.050  0.00  0.00    +0.171 C 
ATOM      6  C   LIG    1       24.988 -20.960   7.233  0.00  0.00    +0.180 C 
ATOM      7  O   LIG    1       24.987 -20.317   5.941  0.00  0.00    -0.369 OA
ATOM      8  C   LIG    1       24.901 -21.337   4.932  0.00  0.00    +0.194 C 
ENDROOT
BRANCH   1   9
ATOM      9  O   LIG    1       24.936 -23.804   4.953  0.00  0.00    -0.387 OA
ATOM     10  H   LIG    1       24.174 -24.394   4.879  0.00  0.00    +0.210 HD
ENDBRANCH   1   9
BRANCH   5  11
ATOM     11  O   LIG    1       25.889 -20.579   9.448  0.00  0.00    -0.387 OA
ATOM     12  H   LIG    1       25.716 -21.498   9.716  0.00  0.00    +0.210 HD
ENDBRANCH   5  11
TORSDOF 2
ENDMDL
