MODEL 1
REMARK VINA RESULT:      -9.1      0.000      0.000
REMARK  Name = *****
REMARK                            x       y       z     vdW  Elec       q    Type
REMARK                         _______ _______ _______ _____ _____    ______ ____
ROOT
ATOM      1  C   LIG    1       30.071 -19.503   6.896  0.00  0.00    +0.039 C 
ENDROOT
BRANCH   1   2
ATOM      2  C   LIG    1       28.615 -19.880   6.742  0.00  0.00    -0.047 A 
ATOM      3  C   LIG    1       27.857 -20.325   7.830  0.00  0.00    +0.004 A 
ATOM      4  C   LIG    1       26.511 -20.683   7.662  0.00  0.00    +0.004 A 
ATOM      5  C   LIG    1       25.869 -20.586   6.416  0.00  0.00    -0.042 A 
ATOM      6  C   LIG    1       26.653 -20.153   5.330  0.00  0.00    +0.004 A 
ATOM      7  C   LIG    1       27.996 -19.800   5.495  0.00  0.00    +0.004 A 
BRANCH   5   8
ATOM      8  C   LIG    1       24.388 -20.966   6.221  0.00  0.00    -0.013 C 
ATOM      9  C   LIG    1       23.705 -20.098   5.138  0.00  0.00    +0.015 C 
ATOM     10  C   LIG    1       23.555 -20.784   7.511  0.00  0.00    +0.015 C 
ATOM     11  C   LIG    1       24.302 -22.444   5.792  0.00  0.00    +0.015 C 
ENDBRANCH   5   8
ENDBRANCH   1   2
BRANCH   1  13
ATOM     12  C   LIG    1       31.032 -20.979   8.696  0.00  0.00    +0.009 C 
ATOM     13  C   LIG    1       30.606 -19.545   8.347  0.00  0.00    +0.004 C 
BRANCH  13  14
ATOM     14  C   LIG    1       31.780 -18.554   8.553  0.00  0.00    +0.088 C 
BRANCH  14  15
ATOM     15  N   LIG    1       31.408 -17.150   8.803  0.00  0.00    -0.302 NA
ATOM     16  C   LIG    1       30.221 -17.061   9.674  0.00  0.00    +0.084 C 
ATOM     17  C   LIG    1       30.484 -17.423  11.141  0.00  0.00    +0.015 C 
ATOM     18  C   LIG    1       31.647 -16.624  11.718  0.00  0.00    +0.002 C 
ATOM     19  C   LIG    1       32.867 -16.675  10.803  0.00  0.00    +0.015 C 
ATOM     20  C   LIG    1       32.497 -16.332   9.359  0.00  0.00    +0.084 C 
ENDBRANCH  14  15
ENDBRANCH  13  14
ENDBRANCH   1  13
TORSDOF 5
ENDMDL
MODEL 2
REMARK VINA RESULT:      -9.0      0.051      1.073
REMARK  Name = *****
REMARK                            x       y       z     vdW  Elec       q    Type
REMARK                         _______ _______ _______ _____ _____    ______ ____
ROOT
ATOM      1  C   LIG    1       30.085 -19.503   6.848  0.00  0.00    +0.039 C 
ENDROOT
BRANCH   1   2
ATOM      2  C   LIG    1       28.630 -19.874   6.675  0.00  0.00    -0.047 A 
ATOM      3  C   LIG    1       27.993 -19.775   5.434  0.00  0.00    +0.004 A 
ATOM      4  C   LIG    1       26.638 -20.112   5.299  0.00  0.00    +0.004 A 
ATOM      5  C   LIG    1       25.881 -20.584   6.385  0.00  0.00    -0.042 A 
ATOM      6  C   LIG    1       26.535 -20.661   7.629  0.00  0.00    +0.004 A 
ATOM      7  C   LIG    1       27.884 -20.320   7.765  0.00  0.00    +0.004 A 
BRANCH   5   8
ATOM      8  C   LIG    1       24.395 -20.967   6.247  0.00  0.00    -0.013 C 
ATOM      9  C   LIG    1       23.687 -20.150   5.140  0.00  0.00    +0.015 C 
ATOM     10  C   LIG    1       23.595 -20.718   7.547  0.00  0.00    +0.015 C 
ATOM     11  C   LIG    1       24.293 -22.464   5.894  0.00  0.00    +0.015 C 
ENDBRANCH   5   8
ENDBRANCH   1   2
BRANCH   1  13
ATOM     12  C   LIG    1       31.025 -20.970   8.666  0.00  0.00    +0.009 C 
ATOM     13  C   LIG    1       30.599 -19.538   8.307  0.00  0.00    +0.004 C 
BRANCH  13  14
ATOM     14  C   LIG    1       31.767 -18.543   8.526  0.00  0.00    +0.088 C 
BRANCH  14  15
ATOM     15  N   LIG    1       31.386 -17.143   8.789  0.00  0.00    -0.302 NA
ATOM     16  C   LIG    1       30.209 -17.069   9.673  0.00  0.00    +0.084 C 
ATOM     17  C   LIG    1       30.491 -17.438  11.135  0.00  0.00    +0.015 C 
ATOM     18  C   LIG    1       31.655 -16.632  11.703  0.00  0.00    +0.002 C 
ATOM     19  C   LIG    1       32.864 -16.668  10.775  0.00  0.00    +0.015 C 
ATOM     20  C   LIG    1       32.475 -16.320   9.336  0.00  0.00    +0.084 C 
ENDBRANCH  14  15
ENDBRANCH  13  14
ENDBRANCH   1  13
TORSDOF 5
ENDMDL
MODEL 3
REMARK VINA RESULT:      -8.7      2.744      7.705
REMARK  Name = *****
REMARK                            x       y       z     vdW  Elec       q    Type
REMARK                         _______ _______ _______ _____ _____    ______ ____
ROOT
ATOM      1  C   LIG    1       25.288 -20.302   5.045  0.00  0.00    +0.039 C 
ENDROOT
BRANCH   1   2
ATOM      2  C   LIG    1       26.561 -20.129   5.842  0.00  0.00    -0.047 A 
ATOM      3  C   LIG    1       26.604 -20.391   7.216  0.00  0.00    +0.004 A 
ATOM      4  C   LIG    1       27.793 -20.210   7.938  0.00  0.00    +0.004 A 
ATOM      5  C   LIG    1       28.981 -19.791   7.317  0.00  0.00    -0.042 A 
ATOM      6  C   LIG    1       28.913 -19.517   5.938  0.00  0.00    +0.004 A 
ATOM      7  C   LIG    1       27.729 -19.691   5.217  0.00  0.00    +0.004 A 
BRANCH   5   8
ATOM      8  C   LIG    1       30.295 -19.599   8.099  0.00  0.00    -0.013 C 
ATOM      9  C   LIG    1       30.167 -18.506   9.187  0.00  0.00    +0.015 C 
ATOM     10  C   LIG    1       31.468 -19.169   7.189  0.00  0.00    +0.015 C 
ATOM     11  C   LIG    1       30.672 -20.929   8.781  0.00  0.00    +0.015 C 
ENDBRANCH   5   8
ENDBRANCH   1   2
BRANCH   1  13
ATOM     12  C   LIG    1       22.842 -19.877   5.464  0.00  0.00    +0.009 C 
ATOM     13  C   LIG    1       24.053 -20.729   5.873  0.00  0.00    +0.004 C 
BRANCH  13  14
ATOM     14  C   LIG    1       23.748 -22.240   5.707  0.00  0.00    +0.088 C 
BRANCH  14  15
ATOM     15  N   LIG    1       23.756 -23.044   6.942  0.00  0.00    -0.302 NA
ATOM     16  C   LIG    1       23.206 -24.391   6.705  0.00  0.00    +0.084 C 
ATOM     17  C   LIG    1       24.127 -25.318   5.902  0.00  0.00    +0.015 C 
ATOM     18  C   LIG    1       25.520 -25.396   6.516  0.00  0.00    +0.002 C 
ATOM     19  C   LIG    1       26.081 -24.008   6.805  0.00  0.00    +0.015 C 
ATOM     20  C   LIG    1       25.078 -23.149   7.579  0.00  0.00    +0.084 C 
ENDBRANCH  14  15
ENDBRANCH  13  14
ENDBRANCH   1  13
TORSDOF 5
ENDMDL
MODEL 4
REMARK VINA RESULT:      -8.7      2.751      7.770
REMARK  Name = *****
REMARK                            x       y       z     vdW  Elec       q    Type
REMARK                         _______ _______ _______ _____ _____    ______ ____
ROOT
ATOM      1  C   LIG    1       25.312 -20.264   4.980  0.00  0.00    +0.039 C 
ENDROOT
BRANCH   1   2
ATOM      2  C   LIG    1       26.595 -20.078   5.756  0.00  0.00    -0.047 A 
ATOM      3  C   LIG    1       27.753 -19.583   5.146  0.00  0.00    +0.004 A 
ATOM      4  C   LIG    1       28.938 -19.431   5.882  0.00  0.00    +0.004 A 
ATOM      5  C   LIG    1       29.003 -19.738   7.251  0.00  0.00    -0.042 A 
ATOM      6  C   LIG    1       27.833 -20.250   7.843  0.00  0.00    +0.004 A 
ATOM      7  C   LIG    1       26.654 -20.407   7.110  0.00  0.00    +0.004 A 
BRANCH   5   8
ATOM      8  C   LIG    1       30.296 -19.565   8.072  0.00  0.00    -0.013 C 
ATOM      9  C   LIG    1       31.494 -19.152   7.185  0.00  0.00    +0.015 C 
ATOM     10  C   LIG    1       30.718 -20.865   8.794  0.00  0.00    +0.015 C 
ATOM     11  C   LIG    1       30.072 -18.471   9.135  0.00  0.00    +0.015 C 
ENDBRANCH   5   8
ENDBRANCH   1   2
BRANCH   1  13
ATOM     12  C   LIG    1       22.863 -19.885   5.431  0.00  0.00    +0.009 C 
ATOM     13  C   LIG    1       24.096 -20.712   5.827  0.00  0.00    +0.004 C 
BRANCH  13  14
ATOM     14  C   LIG    1       23.818 -22.229   5.672  0.00  0.00    +0.088 C 
BRANCH  14  15
ATOM     15  N   LIG    1       23.792 -23.015   6.918  0.00  0.00    -0.302 NA
ATOM     16  C   LIG    1       23.203 -24.347   6.695  0.00  0.00    +0.084 C 
ATOM     17  C   LIG    1       24.102 -25.313   5.912  0.00  0.00    +0.015 C 
ATOM     18  C   LIG    1       25.487 -25.425   6.539  0.00  0.00    +0.002 C 
ATOM     19  C   LIG    1       26.088 -24.051   6.814  0.00  0.00    +0.015 C 
ATOM     20  C   LIG    1       25.106 -23.152   7.567  0.00  0.00    +0.084 C 
ENDBRANCH  14  15
ENDBRANCH  13  14
ENDBRANCH   1  13
TORSDOF 5
ENDMDL
MODEL 5
REMARK VINA RESULT:      -8.2      3.067      7.667
REMARK  Name = *****
REMARK                            x       y       z     vdW  Elec       q    Type
REMARK                         _______ _______ _______ _____ _____    ______ ____
ROOT
ATOM      1  C   LIG    1       24.803 -22.588   7.970  0.00  0.00    +0.039 C 
ENDROOT
BRANCH   1   2
ATOM      2  C   LIG    1       26.065 -21.759   7.906  0.00  0.00    -0.047 A 
ATOM      3  C   LIG    1       26.207 -20.585   8.654  0.00  0.00    +0.004 A 
ATOM      4  C   LIG    1       27.382 -19.823   8.568  0.00  0.00    +0.004 A 
ATOM      5  C   LIG    1       28.462 -20.216   7.760  0.00  0.00    -0.042 A 
ATOM      6  C   LIG    1       28.293 -21.390   7.002  0.00  0.00    +0.004 A 
ATOM      7  C   LIG    1       27.122 -22.148   7.083  0.00  0.00    +0.004 A 
BRANCH   5   8
ATOM      8  C   LIG    1       29.761 -19.392   7.666  0.00  0.00    -0.013 C 
ATOM      9  C   LIG    1       31.018 -20.269   7.880  0.00  0.00    +0.015 C 
ATOM     10  C   LIG    1       29.830 -18.270   8.727  0.00  0.00    +0.015 C 
ATOM     11  C   LIG    1       29.845 -18.746   6.269  0.00  0.00    +0.015 C 
ENDBRANCH   5   8
ENDBRANCH   1   2
BRANCH   1  13
ATOM     12  C   LIG    1       23.135 -23.979   6.695  0.00  0.00    +0.009 C 
ATOM     13  C   LIG    1       24.064 -22.757   6.622  0.00  0.00    +0.004 C 
BRANCH  13  14
ATOM     14  C   LIG    1       23.270 -21.481   6.241  0.00  0.00    +0.088 C 
BRANCH  14  15
ATOM     15  N   LIG    1       22.887 -21.354   4.823  0.00  0.00    -0.302 NA
ATOM     16  C   LIG    1       21.936 -20.245   4.627  0.00  0.00    +0.084 C 
ATOM     17  C   LIG    1       22.558 -18.849   4.753  0.00  0.00    +0.015 C 
ATOM     18  C   LIG    1       23.777 -18.692   3.849  0.00  0.00    +0.002 C 
ATOM     19  C   LIG    1       24.747 -19.857   4.014  0.00  0.00    +0.015 C 
ATOM     20  C   LIG    1       24.027 -21.203   3.906  0.00  0.00    +0.084 C 
ENDBRANCH  14  15
ENDBRANCH  13  14
ENDBRANCH   1  13
TORSDOF 5
ENDMDL
MODEL 6
REMARK VINA RESULT:      -8.1      3.303      8.348
REMARK  Name = *****
REMARK                            x       y       z     vdW  Elec       q    Type
REMARK                         _______ _______ _______ _____ _____    ______ ____
ROOT
ATOM      1  C   LIG    1       25.035 -21.855   5.945  0.00  0.00    +0.039 C 
ENDROOT
BRANCH   1   2
ATOM      2  C   LIG    1       26.354 -21.294   6.428  0.00  0.00    -0.047 A 
ATOM      3  C   LIG    1       27.015 -20.278   5.728  0.00  0.00    +0.004 A 
ATOM      4  C   LIG    1       28.244 -19.782   6.186  0.00  0.00    +0.004 A 
ATOM      5  C   LIG    1       28.842 -20.257   7.366  0.00  0.00    -0.042 A 
ATOM      6  C   LIG    1       28.170 -21.290   8.046  0.00  0.00    +0.004 A 
ATOM      7  C   LIG    1       26.947 -21.790   7.588  0.00  0.00    +0.004 A 
BRANCH   5   8
ATOM      8  C   LIG    1       30.187 -19.712   7.884  0.00  0.00    -0.013 C 
ATOM      9  C   LIG    1       29.994 -18.511   8.841  0.00  0.00    +0.015 C 
ATOM     10  C   LIG    1       31.104 -19.214   6.743  0.00  0.00    +0.015 C 
ATOM     11  C   LIG    1       30.923 -20.833   8.645  0.00  0.00    +0.015 C 
ENDBRANCH   5   8
ENDBRANCH   1   2
BRANCH   1  13
ATOM     12  C   LIG    1       22.913 -22.105   7.278  0.00  0.00    +0.009 C 
ATOM     13  C   LIG    1       24.283 -22.731   6.975  0.00  0.00    +0.004 C 
BRANCH  13  14
ATOM     14  C   LIG    1       24.126 -24.191   6.479  0.00  0.00    +0.088 C 
BRANCH  14  15
ATOM     15  N   LIG    1       25.235 -24.722   5.665  0.00  0.00    -0.302 NA
ATOM     16  C   LIG    1       26.299 -25.283   6.517  0.00  0.00    +0.084 C 
ATOM     17  C   LIG    1       25.936 -26.615   7.187  0.00  0.00    +0.015 C 
ATOM     18  C   LIG    1       25.450 -27.642   6.170  0.00  0.00    +0.002 C 
ATOM     19  C   LIG    1       24.378 -27.057   5.256  0.00  0.00    +0.015 C 
ATOM     20  C   LIG    1       24.819 -25.717   4.664  0.00  0.00    +0.084 C 
ENDBRANCH  14  15
ENDBRANCH  13  14
ENDBRANCH   1  13
TORSDOF 5
ENDMDL
MODEL 7
REMARK VINA RESULT:      -8.1      5.831      8.910
REMARK  Name = *****
REMARK                            x       y       z     vdW  Elec       q    Type
REMARK                         _______ _______ _______ _____ _____    ______ ____
ROOT
ATOM      1  C   LIG    1       25.516 -24.910   5.490  0.00  0.00    +0.039 C 
ENDROOT
BRANCH   1   2
ATOM      2  C   LIG    1       25.330 -26.276   6.111  0.00  0.00    -0.047 A 
ATOM      3  C   LIG    1       26.122 -26.706   7.181  0.00  0.00    +0.004 A 
ATOM      4  C   LIG    1       25.941 -27.983   7.733  0.00  0.00    +0.004 A 
ATOM      5  C   LIG    1       24.952 -28.861   7.260  0.00  0.00    -0.042 A 
ATOM      6  C   LIG    1       24.176 -28.416   6.173  0.00  0.00    +0.004 A 
ATOM      7  C   LIG    1       24.359 -27.146   5.618  0.00  0.00    +0.004 A 
BRANCH   5   8
ATOM      8  C   LIG    1       24.737 -30.261   7.866  0.00  0.00    -0.013 C 
ATOM      9  C   LIG    1       23.745 -30.232   9.053  0.00  0.00    +0.015 C 
ATOM     10  C   LIG    1       26.045 -30.878   8.411  0.00  0.00    +0.015 C 
ATOM     11  C   LIG    1       24.174 -31.198   6.779  0.00  0.00    +0.015 C 
ENDBRANCH   5   8
ENDBRANCH   1   2
BRANCH   1  13
ATOM     12  C   LIG    1       25.920 -23.273   7.361  0.00  0.00    +0.009 C 
ATOM     13  C   LIG    1       24.912 -23.737   6.298  0.00  0.00    +0.004 C 
BRANCH  13  14
ATOM     14  C   LIG    1       24.498 -22.561   5.377  0.00  0.00    +0.088 C 
BRANCH  14  15
ATOM     15  N   LIG    1       24.703 -21.207   5.923  0.00  0.00    -0.302 NA
ATOM     16  C   LIG    1       25.433 -20.354   4.968  0.00  0.00    +0.084 C 
ATOM     17  C   LIG    1       24.607 -19.916   3.751  0.00  0.00    +0.015 C 
ATOM     18  C   LIG    1       23.291 -19.269   4.168  0.00  0.00    +0.002 C 
ATOM     19  C   LIG    1       22.548 -20.124   5.189  0.00  0.00    +0.015 C 
ATOM     20  C   LIG    1       23.462 -20.538   6.344  0.00  0.00    +0.084 C 
ENDBRANCH  14  15
ENDBRANCH  13  14
ENDBRANCH   1  13
TORSDOF 5
ENDMDL
MODEL 8
REMARK VINA RESULT:      -8.0      2.737      7.521
REMARK  Name = *****
REMARK                            x       y       z     vdW  Elec       q    Type
REMARK                         _______ _______ _______ _____ _____    ______ ____
ROOT
ATOM      1  C   LIG    1       24.952 -22.652   7.794  0.00  0.00    +0.039 C 
ENDROOT
BRANCH   1   2
ATOM      2  C   LIG    1       26.230 -21.843   7.826  0.00  0.00    -0.047 A 
ATOM      3  C   LIG    1       26.313 -20.636   8.530  0.00  0.00    +0.004 A 
ATOM      4  C   LIG    1       27.504 -19.895   8.535  0.00  0.00    +0.004 A 
ATOM      5  C   LIG    1       28.656 -20.342   7.866  0.00  0.00    -0.042 A 
ATOM      6  C   LIG    1       28.548 -21.549   7.151  0.00  0.00    +0.004 A 
ATOM      7  C   LIG    1       27.360 -22.286   7.141  0.00  0.00    +0.004 A 
BRANCH   5   8
ATOM      8  C   LIG    1       29.973 -19.541   7.874  0.00  0.00    -0.013 C 
ATOM      9  C   LIG    1       29.884 -18.288   8.777  0.00  0.00    +0.015 C 
ATOM     10  C   LIG    1       30.367 -19.034   6.467  0.00  0.00    +0.015 C 
ATOM     11  C   LIG    1       31.107 -20.445   8.399  0.00  0.00    +0.015 C 
ENDBRANCH   5   8
ENDBRANCH   1   2
BRANCH   1  13
ATOM     12  C   LIG    1       23.568 -24.381   6.596  0.00  0.00    +0.009 C 
ATOM     13  C   LIG    1       24.597 -23.255   6.414  0.00  0.00    +0.004 C 
BRANCH  13  14
ATOM     14  C   LIG    1       24.068 -22.175   5.437  0.00  0.00    +0.088 C 
BRANCH  14  15
ATOM     15  N   LIG    1       24.258 -20.774   5.853  0.00  0.00    -0.302 NA
ATOM     16  C   LIG    1       25.135 -20.053   4.912  0.00  0.00    +0.084 C 
ATOM     17  C   LIG    1       24.485 -19.734   3.560  0.00  0.00    +0.015 C 
ATOM     18  C   LIG    1       23.154 -19.010   3.733  0.00  0.00    +0.002 C 
ATOM     19  C   LIG    1       22.256 -19.724   4.737  0.00  0.00    +0.015 C 
ATOM     20  C   LIG    1       23.003 -20.028   6.037  0.00  0.00    +0.084 C 
ENDBRANCH  14  15
ENDBRANCH  13  14
ENDBRANCH   1  13
TORSDOF 5
ENDMDL
MODEL 9
REMARK VINA RESULT:      -7.7      5.295      8.285
REMARK  Name = *****
REMARK                            x       y       z     vdW  Elec       q    Type
REMARK                         _______ _______ _______ _____ _____    ______ ____
ROOT
ATOM      1  C   LIG    1       25.197 -25.137   5.084  0.00  0.00    +0.039 C 
ENDROOT
BRANCH   1   2
ATOM      2  C   LIG    1       25.186 -26.416   5.891  0.00  0.00    -0.047 A 
ATOM      3  C   LIG    1       24.291 -27.452   5.605  0.00  0.00    +0.004 A 
ATOM      4  C   LIG    1       24.289 -28.625   6.376  0.00  0.00    +0.004 A 
ATOM      5  C   LIG    1       25.193 -28.817   7.434  0.00  0.00    -0.042 A 
ATOM      6  C   LIG    1       26.075 -27.757   7.716  0.00  0.00    +0.004 A 
ATOM      7  C   LIG    1       26.074 -26.586   6.952  0.00  0.00    +0.004 A 
BRANCH   5   8
ATOM      8  C   LIG    1       25.207 -30.105   8.280  0.00  0.00    -0.013 C 
ATOM      9  C   LIG    1       26.350 -30.099   9.323  0.00  0.00    +0.015 C 
ATOM     10  C   LIG    1       25.410 -31.375   7.422  0.00  0.00    +0.015 C 
ATOM     11  C   LIG    1       23.864 -30.231   9.025  0.00  0.00    +0.015 C 
ENDBRANCH   5   8
ENDBRANCH   1   2
BRANCH   1  13
ATOM     12  C   LIG    1       23.440 -24.245   6.652  0.00  0.00    +0.009 C 
ATOM     13  C   LIG    1       24.694 -23.885   5.841  0.00  0.00    +0.004 C 
BRANCH  13  14
ATOM     14  C   LIG    1       25.793 -23.290   6.757  0.00  0.00    +0.088 C 
BRANCH  14  15
ATOM     15  N   LIG    1       25.475 -22.002   7.400  0.00  0.00    -0.302 NA
ATOM     16  C   LIG    1       26.495 -21.642   8.403  0.00  0.00    +0.084 C 
ATOM     17  C   LIG    1       27.838 -21.200   7.808  0.00  0.00    +0.015 C 
ATOM     18  C   LIG    1       27.659 -20.085   6.784  0.00  0.00    +0.002 C 
ATOM     19  C   LIG    1       26.576 -20.429   5.767  0.00  0.00    +0.015 C 
ATOM     20  C   LIG    1       25.290 -20.891   6.455  0.00  0.00    +0.084 C 
ENDBRANCH  14  15
ENDBRANCH  13  14
ENDBRANCH   1  13
TORSDOF 5
ENDMDL
