MODEL 1
REMARK VINA RESULT:      -5.0      0.000      0.000
REMARK  Name = *****
REMARK                            x       y       z     vdW  Elec       q    Type
REMARK                         _______ _______ _______ _____ _____    ______ ____
ROOT
ATOM      1  C   LIG    1       24.067 -12.278   3.710  0.00  0.00    +0.129 C 
ATOM      2  N   LIG    1       24.991 -13.398   3.685  0.00  0.00    -0.330 N 
ATOM      3  C   LIG    1       24.637 -14.730   3.795  0.00  0.00    +0.039 C 
ATOM      4  C   LIG    1       25.743 -15.547   3.337  0.00  0.00    +0.006 C 
ATOM      5  C   LIG    1       25.727 -16.880   3.280  0.00  0.00    +0.041 C 
ATOM      6  C   LIG    1       24.516 -17.602   3.738  0.00  0.00    +0.129 C 
ATOM      7  C   LIG    1       23.343 -16.745   4.232  0.00  0.00    +0.207 C 
ATOM      8  O   LIG    1       22.301 -17.261   4.620  0.00  0.00    -0.285 OA
ATOM      9  N   LIG    1       24.526 -18.907   3.699  0.00  0.00    -0.175 NA
ATOM     10  C   LIG    1       26.880 -14.634   2.956  0.00  0.00    +0.164 C 
ATOM     11  C   LIG    1       23.496 -15.274   4.227  0.00  0.00    +0.076 C 
ATOM     12  C   LIG    1       26.208 -13.245   2.865  0.00  0.00    +0.140 C 
ENDROOT
BRANCH   9  13
ATOM     13  N   LIG    1       23.406 -19.570   4.124  0.00  0.00    -0.190 N 
ATOM     14  H   LIG    1       22.492 -19.357   3.717  0.00  0.00    +0.179 HD
ATOM     15  C   LIG    1       23.448 -20.506   5.126  0.00  0.00    +0.317 C 
ATOM     16  O   LIG    1       22.458 -21.084   5.559  0.00  0.00    -0.251 OA
ATOM     17  N   LIG    1       24.694 -20.749   5.607  0.00  0.00    -0.312 N 
ATOM     18  H   LIG    1       24.777 -21.302   6.445  0.00  0.00    +0.146 HD
ATOM     19  H   LIG    1       25.390 -20.056   5.373  0.00  0.00    +0.146 HD
ENDBRANCH   9  13
BRANCH  10  20
ATOM     20  O   LIG    1       27.847 -14.658   4.006  0.00  0.00    -0.386 OA
ATOM     21  H   LIG    1       28.457 -13.918   3.829  0.00  0.00    +0.210 HD
ENDBRANCH  10  20
TORSDOF 2
ENDMDL
MODEL 2
REMARK VINA RESULT:      -4.3      1.850      2.499
REMARK  Name = *****
REMARK                            x       y       z     vdW  Elec       q    Type
REMARK                         _______ _______ _______ _____ _____    ______ ____
ROOT
ATOM      1  C   LIG    1       27.859 -13.612   3.458  0.00  0.00    +0.129 C 
ATOM      2  N   LIG    1       26.419 -13.804   3.490  0.00  0.00    -0.330 N 
ATOM      3  C   LIG    1       25.777 -15.026   3.565  0.00  0.00    +0.039 C 
ATOM      4  C   LIG    1       24.403 -14.807   3.970  0.00  0.00    +0.006 C 
ATOM      5  C   LIG    1       23.509 -15.777   4.170  0.00  0.00    +0.041 C 
ATOM      6  C   LIG    1       23.915 -17.184   3.941  0.00  0.00    +0.129 C 
ATOM      7  C   LIG    1       25.367 -17.425   3.506  0.00  0.00    +0.207 C 
ATOM      8  O   LIG    1       25.788 -18.557   3.304  0.00  0.00    -0.285 OA
ATOM      9  N   LIG    1       23.021 -18.120   4.117  0.00  0.00    -0.175 NA
ATOM     10  C   LIG    1       24.182 -13.323   4.111  0.00  0.00    +0.164 C 
ATOM     11  C   LIG    1       26.253 -16.253   3.336  0.00  0.00    +0.076 C 
ATOM     12  C   LIG    1       25.616 -12.748   4.135  0.00  0.00    +0.140 C 
ENDROOT
BRANCH   9  13
ATOM     13  N   LIG    1       23.401 -19.418   3.904  0.00  0.00    -0.190 N 
ATOM     14  H   LIG    1       23.785 -19.704   3.000  0.00  0.00    +0.179 HD
ATOM     15  C   LIG    1       23.248 -20.390   4.860  0.00  0.00    +0.317 C 
ATOM     16  O   LIG    1       23.535 -21.567   4.685  0.00  0.00    -0.251 OA
ATOM     17  N   LIG    1       22.747 -19.936   6.037  0.00  0.00    -0.312 N 
ATOM     18  H   LIG    1       22.462 -20.617   6.724  0.00  0.00    +0.146 HD
ATOM     19  H   LIG    1       22.311 -19.025   5.999  0.00  0.00    +0.146 HD
ENDBRANCH   9  13
BRANCH  10  20
ATOM     20  O   LIG    1       23.474 -12.863   2.960  0.00  0.00    -0.386 OA
ATOM     21  H   LIG    1       22.571 -12.653   3.263  0.00  0.00    +0.210 HD
ENDBRANCH  10  20
TORSDOF 2
ENDMDL
MODEL 3
REMARK VINA RESULT:      -3.2      2.201      5.908
REMARK  Name = *****
REMARK                            x       y       z     vdW  Elec       q    Type
REMARK                         _______ _______ _______ _____ _____    ______ ____
ROOT
ATOM      1  C   LIG    1       21.999 -20.984   5.150  0.00  0.00    +0.129 C 
ATOM      2  N   LIG    1       23.061 -20.383   4.361  0.00  0.00    -0.330 N 
ATOM      3  C   LIG    1       23.312 -19.027   4.260  0.00  0.00    +0.039 C 
ATOM      4  C   LIG    1       24.648 -18.839   3.730  0.00  0.00    +0.006 C 
ATOM      5  C   LIG    1       25.224 -17.651   3.534  0.00  0.00    +0.041 C 
ATOM      6  C   LIG    1       24.454 -16.422   3.843  0.00  0.00    +0.129 C 
ATOM      7  C   LIG    1       23.036 -16.612   4.397  0.00  0.00    +0.207 C 
ATOM      8  O   LIG    1       22.335 -15.651   4.688  0.00  0.00    -0.285 OA
ATOM      9  N   LIG    1       25.023 -15.267   3.622  0.00  0.00    -0.175 NA
ATOM     10  C   LIG    1       25.241 -20.195   3.448  0.00  0.00    +0.164 C 
ATOM     11  C   LIG    1       22.531 -17.991   4.577  0.00  0.00    +0.076 C 
ATOM     12  C   LIG    1       24.305 -21.160   4.209  0.00  0.00    +0.140 C 
ENDROOT
BRANCH   9  13
ATOM     13  N   LIG    1       24.308 -14.135   3.908  0.00  0.00    -0.190 N 
ATOM     14  H   LIG    1       23.644 -14.124   4.685  0.00  0.00    +0.179 HD
ATOM     15  C   LIG    1       24.417 -12.993   3.155  0.00  0.00    +0.317 C 
ATOM     16  O   LIG    1       23.760 -11.980   3.358  0.00  0.00    -0.251 OA
ATOM     17  N   LIG    1       25.328 -13.075   2.152  0.00  0.00    -0.312 N 
ATOM     18  H   LIG    1       25.344 -12.335   1.467  0.00  0.00    +0.146 HD
ATOM     19  H   LIG    1       25.623 -14.010   1.911  0.00  0.00    +0.146 HD
ENDBRANCH   9  13
BRANCH  10  20
ATOM     20  O   LIG    1       25.173 -20.430   2.042  0.00  0.00    -0.386 OA
ATOM     21  H   LIG    1       24.442 -19.875   1.709  0.00  0.00    +0.210 HD
ENDBRANCH  10  20
TORSDOF 2
ENDMDL
MODEL 4
REMARK VINA RESULT:      -2.3      2.061      2.799
REMARK  Name = *****
REMARK                            x       y       z     vdW  Elec       q    Type
REMARK                         _______ _______ _______ _____ _____    ______ ____
ROOT
ATOM      1  C   LIG    1       28.465 -12.857   4.153  0.00  0.00    +0.129 C 
ATOM      2  N   LIG    1       27.207 -13.368   3.635  0.00  0.00    -0.330 N 
ATOM      3  C   LIG    1       26.815 -14.693   3.653  0.00  0.00    +0.039 C 
ATOM      4  C   LIG    1       25.384 -14.759   3.428  0.00  0.00    +0.006 C 
ATOM      5  C   LIG    1       24.672 -15.887   3.414  0.00  0.00    +0.041 C 
ATOM      6  C   LIG    1       25.372 -17.180   3.609  0.00  0.00    +0.129 C 
ATOM      7  C   LIG    1       26.887 -17.119   3.841  0.00  0.00    +0.207 C 
ATOM      8  O   LIG    1       27.542 -18.139   4.020  0.00  0.00    -0.285 OA
ATOM      9  N   LIG    1       24.664 -18.276   3.567  0.00  0.00    -0.175 NA
ATOM     10  C   LIG    1       24.873 -13.358   3.215  0.00  0.00    +0.164 C 
ATOM     11  C   LIG    1       27.545 -15.795   3.845  0.00  0.00    +0.076 C 
ATOM     12  C   LIG    1       26.037 -12.472   3.715  0.00  0.00    +0.140 C 
ENDROOT
BRANCH   9  13
ATOM     13  N   LIG    1       25.314 -19.467   3.747  0.00  0.00    -0.190 N 
ATOM     14  H   LIG    1       26.164 -19.679   3.219  0.00  0.00    +0.179 HD
ATOM     15  C   LIG    1       24.844 -20.434   4.600  0.00  0.00    +0.317 C 
ATOM     16  O   LIG    1       25.378 -21.526   4.749  0.00  0.00    -0.251 OA
ATOM     17  N   LIG    1       23.723 -20.079   5.278  0.00  0.00    -0.312 N 
ATOM     18  H   LIG    1       23.238 -20.794   5.796  0.00  0.00    +0.146 HD
ATOM     19  H   LIG    1       23.227 -19.282   4.905  0.00  0.00    +0.146 HD
ENDBRANCH   9  13
BRANCH  10  20
ATOM     20  O   LIG    1       24.658 -13.166   1.817  0.00  0.00    -0.386 OA
ATOM     21  H   LIG    1       24.417 -12.227   1.706  0.00  0.00    +0.210 HD
ENDBRANCH  10  20
TORSDOF 2
ENDMDL
MODEL 5
REMARK VINA RESULT:      -2.2      1.707      6.255
REMARK  Name = *****
REMARK                            x       y       z     vdW  Elec       q    Type
REMARK                         _______ _______ _______ _____ _____    ______ ____
ROOT
ATOM      1  C   LIG    1       25.042 -20.787   2.900  0.00  0.00    +0.129 C 
ATOM      2  N   LIG    1       24.270 -19.824   3.667  0.00  0.00    -0.330 N 
ATOM      3  C   LIG    1       24.477 -18.457   3.675  0.00  0.00    +0.039 C 
ATOM      4  C   LIG    1       23.300 -17.811   4.220  0.00  0.00    +0.006 C 
ATOM      5  C   LIG    1       23.150 -16.490   4.342  0.00  0.00    +0.041 C 
ATOM      6  C   LIG    1       24.262 -15.602   3.927  0.00  0.00    +0.129 C 
ATOM      7  C   LIG    1       25.515 -16.279   3.356  0.00  0.00    +0.207 C 
ATOM      8  O   LIG    1       26.476 -15.619   2.981  0.00  0.00    -0.285 OA
ATOM      9  N   LIG    1       24.110 -14.313   4.077  0.00  0.00    -0.175 NA
ATOM     10  C   LIG    1       22.312 -18.878   4.613  0.00  0.00    +0.164 C 
ATOM     11  C   LIG    1       25.537 -17.755   3.266  0.00  0.00    +0.076 C 
ATOM     12  C   LIG    1       22.848 -20.141   3.903  0.00  0.00    +0.140 C 
ENDROOT
BRANCH   9  13
ATOM     13  N   LIG    1       25.139 -13.496   3.693  0.00  0.00    -0.190 N 
ATOM     14  H   LIG    1       26.003 -13.459   4.241  0.00  0.00    +0.179 HD
ATOM     15  C   LIG    1       25.050 -12.673   2.600  0.00  0.00    +0.317 C 
ATOM     16  O   LIG    1       25.934 -11.899   2.257  0.00  0.00    -0.251 OA
ATOM     17  N   LIG    1       23.884 -12.787   1.913  0.00  0.00    -0.312 N 
ATOM     18  H   LIG    1       23.687 -12.103   1.199  0.00  0.00    +0.146 HD
ATOM     19  H   LIG    1       23.135 -13.249   2.409  0.00  0.00    +0.146 HD
ENDBRANCH   9  13
BRANCH  10  20
ATOM     20  O   LIG    1       22.363 -19.036   6.031  0.00  0.00    -0.386 OA
ATOM     21  H   LIG    1       23.295 -19.227   6.248  0.00  0.00    +0.210 HD
ENDBRANCH  10  20
TORSDOF 2
ENDMDL
MODEL 6
REMARK VINA RESULT:      -2.0      1.660      6.084
REMARK  Name = *****
REMARK                            x       y       z     vdW  Elec       q    Type
REMARK                         _______ _______ _______ _____ _____    ______ ____
ROOT
ATOM      1  C   LIG    1       24.586 -20.638   3.040  0.00  0.00    +0.129 C 
ATOM      2  N   LIG    1       24.006 -19.470   3.681  0.00  0.00    -0.330 N 
ATOM      3  C   LIG    1       24.550 -18.199   3.668  0.00  0.00    +0.039 C 
ATOM      4  C   LIG    1       23.524 -17.249   4.052  0.00  0.00    +0.006 C 
ATOM      5  C   LIG    1       23.701 -15.928   4.113  0.00  0.00    +0.041 C 
ATOM      6  C   LIG    1       25.038 -15.369   3.801  0.00  0.00    +0.129 C 
ATOM      7  C   LIG    1       26.131 -16.368   3.401  0.00  0.00    +0.207 C 
ATOM      8  O   LIG    1       27.262 -15.990   3.118  0.00  0.00    -0.285 OA
ATOM      9  N   LIG    1       25.201 -14.076   3.890  0.00  0.00    -0.175 NA
ATOM     10  C   LIG    1       22.263 -18.014   4.363  0.00  0.00    +0.164 C 
ATOM     11  C   LIG    1       25.789 -17.806   3.361  0.00  0.00    +0.076 C 
ATOM     12  C   LIG    1       22.534 -19.411   3.761  0.00  0.00    +0.140 C 
ENDROOT
BRANCH   9  13
ATOM     13  N   LIG    1       26.437 -13.564   3.601  0.00  0.00    -0.190 N 
ATOM     14  H   LIG    1       26.753 -13.487   2.631  0.00  0.00    +0.179 HD
ATOM     15  C   LIG    1       27.313 -13.174   4.582  0.00  0.00    +0.317 C 
ATOM     16  O   LIG    1       28.442 -12.754   4.359  0.00  0.00    -0.251 OA
ATOM     17  N   LIG    1       26.822 -13.289   5.843  0.00  0.00    -0.312 N 
ATOM     18  H   LIG    1       27.463 -13.172   6.612  0.00  0.00    +0.146 HD
ATOM     19  H   LIG    1       26.002 -13.871   5.935  0.00  0.00    +0.146 HD
ENDBRANCH   9  13
BRANCH  10  20
ATOM     20  O   LIG    1       22.126 -18.094   5.782  0.00  0.00    -0.386 OA
ATOM     21  H   LIG    1       21.792 -17.224   6.071  0.00  0.00    +0.210 HD
ENDBRANCH  10  20
TORSDOF 2
ENDMDL
