MODEL 1
REMARK VINA RESULT:      -6.7      0.000      0.000
REMARK  Name = *****
REMARK                            x       y       z     vdW  Elec       q    Type
REMARK                         _______ _______ _______ _____ _____    ______ ____
ROOT
ATOM      1  C   LIG    1       24.380 -22.618   6.235  0.00  0.00    +0.122 C 
ATOM      2  C   LIG    1       24.825 -21.550   7.272  0.00  0.00    +0.036 C 
ATOM      3  C   LIG    1       23.848 -20.339   7.202  0.00  0.00    +0.028 C 
ATOM      4  C   LIG    1       23.298 -20.053   5.778  0.00  0.00    +0.058 C 
ATOM      5  N   LIG    1       24.249 -20.595   4.792  0.00  0.00    -0.296 NA
ATOM      6  C   LIG    1       21.988 -20.810   5.522  0.00  0.00    +0.020 C 
ATOM      7  C   LIG    1       22.405 -22.060   4.756  0.00  0.00    +0.021 C 
ATOM      8  C   LIG    1       23.940 -22.046   4.847  0.00  0.00    +0.071 C 
ENDROOT
BRANCH   2   9
ATOM      9  C   LIG    1       26.297 -21.107   7.267  0.00  0.00    -0.043 A 
ATOM     10  C   LIG    1       26.853 -20.366   6.211  0.00  0.00    +0.005 A 
ATOM     11  C   LIG    1       28.165 -19.891   6.253  0.00  0.00    +0.014 A 
ATOM     12  C   LIG    1       28.960 -20.173   7.354  0.00  0.00    +0.013 A 
ATOM     13  I   LIG    1       30.913 -19.470   7.407  0.00  0.00    -0.044 I 
ATOM     14  C   LIG    1       28.447 -20.920   8.413  0.00  0.00    +0.014 A 
ATOM     15  C   LIG    1       27.121 -21.375   8.374  0.00  0.00    +0.005 A 
ENDBRANCH   2   9
BRANCH   1  16
ATOM     16  C   LIG    1       25.314 -23.804   6.084  0.00  0.00    +0.312 C 
ATOM     17  O   LIG    1       26.107 -24.156   6.941  0.00  0.00    -0.251 OA
BRANCH  16  19
ATOM     18  C   LIG    1       25.249 -25.833   4.882  0.00  0.00    +0.280 C 
ATOM     19  O   LIG    1       25.128 -24.413   4.877  0.00  0.00    -0.468 OA
ENDBRANCH  16  19
ENDBRANCH   1  16
BRANCH   5  20
ATOM     20  C   LIG    1       24.159 -19.998   3.444  0.00  0.00    +0.087 C 
BRANCH  20  21
ATOM     21  C   LIG    1       24.378 -18.473   3.460  0.00  0.00    +0.049 C 
BRANCH  21  22
ATOM     22  C   LIG    1       25.843 -18.082   3.338  0.00  0.00    +0.214 C 
ATOM     23  F   LIG    1       25.940 -16.731   3.210  0.00  0.00    -0.249 F 
ENDBRANCH  21  22
ENDBRANCH  20  21
ENDBRANCH   5  20
TORSDOF 6
ENDMDL
MODEL 2
REMARK VINA RESULT:      -6.0      3.327      5.583
REMARK  Name = *****
REMARK                            x       y       z     vdW  Elec       q    Type
REMARK                         _______ _______ _______ _____ _____    ______ ____
ROOT
ATOM      1  C   LIG    1       24.941 -21.352   6.470  0.00  0.00    +0.122 C 
ATOM      2  C   LIG    1       24.705 -22.542   7.440  0.00  0.00    +0.036 C 
ATOM      3  C   LIG    1       25.590 -22.345   8.707  0.00  0.00    +0.028 C 
ATOM      4  C   LIG    1       26.953 -21.657   8.425  0.00  0.00    +0.058 C 
ATOM      5  N   LIG    1       27.309 -21.888   7.014  0.00  0.00    -0.296 NA
ATOM      6  C   LIG    1       26.848 -20.132   8.562  0.00  0.00    +0.020 C 
ATOM      7  C   LIG    1       26.666 -19.625   7.135  0.00  0.00    +0.021 C 
ATOM      8  C   LIG    1       26.434 -20.909   6.322  0.00  0.00    +0.071 C 
ENDROOT
BRANCH   2   9
ATOM      9  C   LIG    1       24.812 -23.968   6.876  0.00  0.00    -0.043 A 
ATOM     10  C   LIG    1       26.024 -24.678   6.857  0.00  0.00    +0.005 A 
ATOM     11  C   LIG    1       26.097 -26.003   6.426  0.00  0.00    +0.014 A 
ATOM     12  C   LIG    1       24.950 -26.641   5.978  0.00  0.00    +0.013 A 
ATOM     13  I   LIG    1       25.067 -28.610   5.329  0.00  0.00    -0.044 I 
ATOM     14  C   LIG    1       23.733 -25.962   5.966  0.00  0.00    +0.014 A 
ATOM     15  C   LIG    1       23.663 -24.638   6.422  0.00  0.00    +0.005 A 
ENDBRANCH   2   9
BRANCH   1  16
ATOM     16  C   LIG    1       24.252 -21.467   5.124  0.00  0.00    +0.312 C 
ATOM     17  O   LIG    1       24.827 -21.764   4.090  0.00  0.00    -0.251 OA
BRANCH  16  19
ATOM     18  C   LIG    1       22.553 -19.830   5.172  0.00  0.00    +0.280 C 
ATOM     19  O   LIG    1       22.918 -21.207   5.242  0.00  0.00    -0.468 OA
ENDBRANCH  16  19
ENDBRANCH   1  16
BRANCH   5  20
ATOM     20  C   LIG    1       28.747 -21.755   6.703  0.00  0.00    +0.087 C 
BRANCH  20  21
ATOM     21  C   LIG    1       29.599 -21.495   7.961  0.00  0.00    +0.049 C 
BRANCH  21  22
ATOM     22  C   LIG    1       30.470 -20.254   7.843  0.00  0.00    +0.214 C 
ATOM     23  F   LIG    1       30.309 -19.705   6.609  0.00  0.00    -0.249 F 
ENDBRANCH  21  22
ENDBRANCH  20  21
ENDBRANCH   5  20
TORSDOF 6
ENDMDL
MODEL 3
REMARK VINA RESULT:      -5.5      7.884     10.414
REMARK  Name = *****
REMARK                            x       y       z     vdW  Elec       q    Type
REMARK                         _______ _______ _______ _____ _____    ______ ____
ROOT
ATOM      1  C   LIG    1       24.351 -31.030  10.304  0.00  0.00    +0.122 C 
ATOM      2  C   LIG    1       25.601 -30.566   9.507  0.00  0.00    +0.036 C 
ATOM      3  C   LIG    1       26.778 -30.337  10.502  0.00  0.00    +0.028 C 
ATOM      4  C   LIG    1       26.335 -29.807  11.892  0.00  0.00    +0.058 C 
ATOM      5  N   LIG    1       25.041 -29.119  11.740  0.00  0.00    -0.296 NA
ATOM      6  C   LIG    1       26.059 -30.959  12.868  0.00  0.00    +0.020 C 
ATOM      7  C   LIG    1       24.547 -31.152  12.823  0.00  0.00    +0.021 C 
ATOM      8  C   LIG    1       24.104 -30.267  11.647  0.00  0.00    +0.071 C 
ENDROOT
BRANCH   2   9
ATOM      9  C   LIG    1       25.439 -29.396   8.523  0.00  0.00    -0.043 A 
ATOM     10  C   LIG    1       26.243 -28.246   8.588  0.00  0.00    +0.005 A 
ATOM     11  C   LIG    1       26.151 -27.227   7.639  0.00  0.00    +0.014 A 
ATOM     12  C   LIG    1       25.226 -27.331   6.610  0.00  0.00    +0.013 A 
ATOM     13  I   LIG    1       25.090 -25.808   5.206  0.00  0.00    -0.044 I 
ATOM     14  C   LIG    1       24.401 -28.450   6.524  0.00  0.00    +0.014 A 
ATOM     15  C   LIG    1       24.514 -29.480   7.468  0.00  0.00    +0.005 A 
ENDBRANCH   2   9
BRANCH   1  16
ATOM     16  C   LIG    1       23.077 -31.164   9.490  0.00  0.00    +0.312 C 
ATOM     17  O   LIG    1       22.946 -31.938   8.557  0.00  0.00    -0.251 OA
BRANCH  16  19
ATOM     18  C   LIG    1       20.924 -30.940  10.430  0.00  0.00    +0.280 C 
ATOM     19  O   LIG    1       22.116 -30.316   9.958  0.00  0.00    -0.468 OA
ENDBRANCH  16  19
ENDBRANCH   1  16
BRANCH   5  20
ATOM     20  C   LIG    1       24.720 -28.148  12.806  0.00  0.00    +0.087 C 
BRANCH  20  21
ATOM     21  C   LIG    1       23.208 -27.871  12.914  0.00  0.00    +0.049 C 
BRANCH  21  22
ATOM     22  C   LIG    1       22.895 -26.454  13.369  0.00  0.00    +0.214 C 
ATOM     23  F   LIG    1       21.633 -26.124  12.984  0.00  0.00    -0.249 F 
ENDBRANCH  21  22
ENDBRANCH  20  21
ENDBRANCH   5  20
TORSDOF 6
ENDMDL
MODEL 4
REMARK VINA RESULT:      -5.3      9.132     10.982
REMARK  Name = *****
REMARK                            x       y       z     vdW  Elec       q    Type
REMARK                         _______ _______ _______ _____ _____    ______ ____
ROOT
ATOM      1  C   LIG    1       26.620 -30.998   9.810  0.00  0.00    +0.122 C 
ATOM      2  C   LIG    1       25.527 -31.466  10.809  0.00  0.00    +0.036 C 
ATOM      3  C   LIG    1       24.764 -32.676  10.193  0.00  0.00    +0.028 C 
ATOM      4  C   LIG    1       24.618 -32.611   8.649  0.00  0.00    +0.058 C 
ATOM      5  N   LIG    1       24.710 -31.201   8.230  0.00  0.00    -0.296 NA
ATOM      6  C   LIG    1       25.791 -33.309   7.947  0.00  0.00    +0.020 C 
ATOM      7  C   LIG    1       26.750 -32.182   7.578  0.00  0.00    +0.021 C 
ATOM      8  C   LIG    1       26.172 -30.960   8.312  0.00  0.00    +0.071 C 
ENDROOT
BRANCH   2   9
ATOM      9  C   LIG    1       24.570 -30.408  11.382  0.00  0.00    -0.043 A 
ATOM     10  C   LIG    1       23.206 -30.373  11.048  0.00  0.00    +0.005 A 
ATOM     11  C   LIG    1       22.324 -29.467  11.639  0.00  0.00    +0.014 A 
ATOM     12  C   LIG    1       22.802 -28.553  12.566  0.00  0.00    +0.013 A 
ATOM     13  I   LIG    1       21.486 -27.202  13.435  0.00  0.00    -0.044 I 
ATOM     14  C   LIG    1       24.152 -28.548  12.909  0.00  0.00    +0.014 A 
ATOM     15  C   LIG    1       25.028 -29.475  12.328  0.00  0.00    +0.005 A 
ENDBRANCH   2   9
BRANCH   1  16
ATOM     16  C   LIG    1       27.364 -29.736  10.207  0.00  0.00    +0.312 C 
ATOM     17  O   LIG    1       27.069 -28.622   9.809  0.00  0.00    -0.251 OA
BRANCH  16  19
ATOM     18  C   LIG    1       28.435 -29.228  12.247  0.00  0.00    +0.280 C 
ATOM     19  O   LIG    1       28.382 -30.027  11.067  0.00  0.00    -0.468 OA
ENDBRANCH  16  19
ENDBRANCH   1  16
BRANCH   5  20
ATOM     20  C   LIG    1       24.110 -30.900   6.914  0.00  0.00    +0.087 C 
BRANCH  20  21
ATOM     21  C   LIG    1       24.230 -29.410   6.539  0.00  0.00    +0.049 C 
BRANCH  21  22
ATOM     22  C   LIG    1       25.080 -29.176   5.300  0.00  0.00    +0.214 C 
ATOM     23  F   LIG    1       25.758 -30.315   4.996  0.00  0.00    -0.249 F 
ENDBRANCH  21  22
ENDBRANCH  20  21
ENDBRANCH   5  20
TORSDOF 6
ENDMDL
MODEL 5
REMARK VINA RESULT:      -5.2      7.642     10.201
REMARK  Name = *****
REMARK                            x       y       z     vdW  Elec       q    Type
REMARK                         _______ _______ _______ _____ _____    ______ ____
ROOT
ATOM      1  C   LIG    1       24.443 -30.838  10.352  0.00  0.00    +0.122 C 
ATOM      2  C   LIG    1       25.653 -30.459   9.455  0.00  0.00    +0.036 C 
ATOM      3  C   LIG    1       26.910 -30.267  10.354  0.00  0.00    +0.028 C 
ATOM      4  C   LIG    1       26.598 -29.682  11.758  0.00  0.00    +0.058 C 
ATOM      5  N   LIG    1       25.332 -28.933  11.682  0.00  0.00    -0.296 NA
ATOM      6  C   LIG    1       26.338 -30.795  12.783  0.00  0.00    +0.020 C 
ATOM      7  C   LIG    1       24.819 -30.912  12.853  0.00  0.00    +0.021 C 
ATOM      8  C   LIG    1       24.335 -30.032  11.688  0.00  0.00    +0.071 C 
ENDROOT
BRANCH   2   9
ATOM      9  C   LIG    1       25.477 -29.306   8.454  0.00  0.00    -0.043 A 
ATOM     10  C   LIG    1       26.268 -28.146   8.499  0.00  0.00    +0.005 A 
ATOM     11  C   LIG    1       26.165 -27.143   7.535  0.00  0.00    +0.014 A 
ATOM     12  C   LIG    1       25.239 -27.272   6.510  0.00  0.00    +0.013 A 
ATOM     13  I   LIG    1       25.084 -25.771   5.083  0.00  0.00    -0.044 I 
ATOM     14  C   LIG    1       24.426 -28.401   6.442  0.00  0.00    +0.014 A 
ATOM     15  C   LIG    1       24.550 -29.415   7.402  0.00  0.00    +0.005 A 
ENDBRANCH   2   9
BRANCH   1  16
ATOM     16  C   LIG    1       23.108 -30.925   9.638  0.00  0.00    +0.312 C 
ATOM     17  O   LIG    1       22.158 -30.201   9.884  0.00  0.00    -0.251 OA
BRANCH  16  19
ATOM     18  C   LIG    1       22.319 -33.044   8.962  0.00  0.00    +0.280 C 
ATOM     19  O   LIG    1       23.132 -31.906   8.689  0.00  0.00    -0.468 OA
ENDBRANCH  16  19
ENDBRANCH   1  16
BRANCH   5  20
ATOM     20  C   LIG    1       25.140 -27.922  12.742  0.00  0.00    +0.087 C 
BRANCH  20  21
ATOM     21  C   LIG    1       26.312 -26.925  12.824  0.00  0.00    +0.049 C 
BRANCH  21  22
ATOM     22  C   LIG    1       25.886 -25.546  13.303  0.00  0.00    +0.214 C 
ATOM     23  F   LIG    1       24.529 -25.493  13.379  0.00  0.00    -0.249 F 
ENDBRANCH  21  22
ENDBRANCH  20  21
ENDBRANCH   5  20
TORSDOF 6
ENDMDL
MODEL 6
REMARK VINA RESULT:      -5.2      7.891     10.892
REMARK  Name = *****
REMARK                            x       y       z     vdW  Elec       q    Type
REMARK                         _______ _______ _______ _____ _____    ______ ____
ROOT
ATOM      1  C   LIG    1       25.781 -32.212   7.827  0.00  0.00    +0.122 C 
ATOM      2  C   LIG    1       24.429 -32.735   8.387  0.00  0.00    +0.036 C 
ATOM      3  C   LIG    1       23.421 -32.892   7.209  0.00  0.00    +0.028 C 
ATOM      4  C   LIG    1       23.594 -31.836   6.085  0.00  0.00    +0.058 C 
ATOM      5  N   LIG    1       24.242 -30.643   6.660  0.00  0.00    -0.296 NA
ATOM      6  C   LIG    1       24.561 -32.327   4.999  0.00  0.00    +0.020 C 
ATOM      7  C   LIG    1       25.900 -31.691   5.354  0.00  0.00    +0.021 C 
ATOM      8  C   LIG    1       25.656 -31.087   6.747  0.00  0.00    +0.071 C 
ENDROOT
BRANCH   2   9
ATOM      9  C   LIG    1       23.809 -31.999   9.585  0.00  0.00    -0.043 A 
ATOM     10  C   LIG    1       23.277 -30.703   9.475  0.00  0.00    +0.005 A 
ATOM     11  C   LIG    1       22.635 -30.075  10.543  0.00  0.00    +0.014 A 
ATOM     12  C   LIG    1       22.536 -30.730  11.762  0.00  0.00    +0.013 A 
ATOM     13  I   LIG    1       21.588 -29.786  13.351  0.00  0.00    -0.044 I 
ATOM     14  C   LIG    1       23.068 -32.009  11.913  0.00  0.00    +0.014 A 
ATOM     15  C   LIG    1       23.691 -32.643  10.829  0.00  0.00    +0.005 A 
ENDBRANCH   2   9
BRANCH   1  16
ATOM     16  C   LIG    1       26.828 -31.875   8.872  0.00  0.00    +0.312 C 
ATOM     17  O   LIG    1       27.450 -32.712   9.503  0.00  0.00    -0.251 OA
BRANCH  16  19
ATOM     18  C   LIG    1       26.907 -30.010  10.315  0.00  0.00    +0.280 C 
ATOM     19  O   LIG    1       26.976 -30.524   8.987  0.00  0.00    -0.468 OA
ENDBRANCH  16  19
ENDBRANCH   1  16
BRANCH   5  20
ATOM     20  C   LIG    1       24.036 -29.393   5.900  0.00  0.00    +0.087 C 
BRANCH  20  21
ATOM     21  C   LIG    1       24.782 -28.197   6.522  0.00  0.00    +0.049 C 
BRANCH  21  22
ATOM     22  C   LIG    1       24.604 -26.910   5.732  0.00  0.00    +0.214 C 
ATOM     23  F   LIG    1       23.954 -25.995   6.500  0.00  0.00    -0.249 F 
ENDBRANCH  21  22
ENDBRANCH  20  21
ENDBRANCH   5  20
TORSDOF 6
ENDMDL
MODEL 7
REMARK VINA RESULT:      -5.1      8.770     11.065
REMARK  Name = *****
REMARK                            x       y       z     vdW  Elec       q    Type
REMARK                         _______ _______ _______ _____ _____    ______ ____
ROOT
ATOM      1  C   LIG    1       26.672 -31.394   9.631  0.00  0.00    +0.122 C 
ATOM      2  C   LIG    1       25.591 -31.959  10.592  0.00  0.00    +0.036 C 
ATOM      3  C   LIG    1       24.797 -33.080   9.858  0.00  0.00    +0.028 C 
ATOM      4  C   LIG    1       24.623 -32.836   8.335  0.00  0.00    +0.058 C 
ATOM      5  N   LIG    1       24.729 -31.389   8.078  0.00  0.00    -0.296 NA
ATOM      6  C   LIG    1       25.772 -33.465   7.533  0.00  0.00    +0.020 C 
ATOM      7  C   LIG    1       26.741 -32.316   7.276  0.00  0.00    +0.021 C 
ATOM      8  C   LIG    1       26.196 -31.179   8.157  0.00  0.00    +0.071 C 
ENDROOT
BRANCH   2   9
ATOM      9  C   LIG    1       24.662 -30.961  11.302  0.00  0.00    -0.043 A 
ATOM     10  C   LIG    1       24.997 -30.367  12.530  0.00  0.00    +0.005 A 
ATOM     11  C   LIG    1       24.192 -29.396  13.125  0.00  0.00    +0.014 A 
ATOM     12  C   LIG    1       23.009 -29.015  12.507  0.00  0.00    +0.013 A 
ATOM     13  I   LIG    1       21.810 -27.575  13.403  0.00  0.00    -0.044 I 
ATOM     14  C   LIG    1       22.636 -29.595  11.297  0.00  0.00    +0.014 A 
ATOM     15  C   LIG    1       23.461 -30.554  10.693  0.00  0.00    +0.005 A 
ENDBRANCH   2   9
BRANCH   1  16
ATOM     16  C   LIG    1       27.443 -30.196  10.154  0.00  0.00    +0.312 C 
ATOM     17  O   LIG    1       28.287 -30.263  11.031  0.00  0.00    -0.251 OA
BRANCH  16  19
ATOM     18  C   LIG    1       26.617 -27.993  10.333  0.00  0.00    +0.280 C 
ATOM     19  O   LIG    1       27.067 -29.059   9.500  0.00  0.00    -0.468 OA
ENDBRANCH  16  19
ENDBRANCH   1  16
BRANCH   5  20
ATOM     20  C   LIG    1       24.109 -30.931   6.817  0.00  0.00    +0.087 C 
BRANCH  20  21
ATOM     21  C   LIG    1       24.249 -29.410   6.610  0.00  0.00    +0.049 C 
BRANCH  21  22
ATOM     22  C   LIG    1       24.919 -29.049   5.294  0.00  0.00    +0.214 C 
ATOM     23  F   LIG    1       25.927 -29.926   5.045  0.00  0.00    -0.249 F 
ENDBRANCH  21  22
ENDBRANCH  20  21
ENDBRANCH   5  20
TORSDOF 6
ENDMDL
MODEL 8
REMARK VINA RESULT:      -4.9      1.609      2.077
REMARK  Name = *****
REMARK                            x       y       z     vdW  Elec       q    Type
REMARK                         _______ _______ _______ _____ _____    ______ ____
ROOT
ATOM      1  C   LIG    1       24.937 -23.503   7.186  0.00  0.00    +0.122 C 
ATOM      2  C   LIG    1       25.325 -22.326   8.123  0.00  0.00    +0.036 C 
ATOM      3  C   LIG    1       24.084 -21.404   8.316  0.00  0.00    +0.028 C 
ATOM      4  C   LIG    1       23.167 -21.309   7.068  0.00  0.00    +0.058 C 
ATOM      5  N   LIG    1       23.970 -21.625   5.873  0.00  0.00    -0.296 NA
ATOM      6  C   LIG    1       22.068 -22.380   7.099  0.00  0.00    +0.020 C 
ATOM      7  C   LIG    1       22.598 -23.508   6.221  0.00  0.00    +0.021 C 
ATOM      8  C   LIG    1       24.058 -23.104   5.955  0.00  0.00    +0.071 C 
ENDROOT
BRANCH   2   9
ATOM      9  C   LIG    1       26.595 -21.526   7.791  0.00  0.00    -0.043 A 
ATOM     10  C   LIG    1       27.828 -21.787   8.411  0.00  0.00    +0.005 A 
ATOM     11  C   LIG    1       28.996 -21.119   8.043  0.00  0.00    +0.014 A 
ATOM     12  C   LIG    1       28.946 -20.148   7.053  0.00  0.00    +0.013 A 
ATOM     13  I   LIG    1       30.686 -19.151   6.515  0.00  0.00    -0.044 I 
ATOM     14  C   LIG    1       27.737 -19.851   6.428  0.00  0.00    +0.014 A 
ATOM     15  C   LIG    1       26.571 -20.542   6.787  0.00  0.00    +0.005 A 
ENDBRANCH   2   9
BRANCH   1  16
ATOM     16  C   LIG    1       26.079 -24.419   6.789  0.00  0.00    +0.312 C 
ATOM     17  O   LIG    1       27.015 -24.071   6.088  0.00  0.00    -0.251 OA
BRANCH  16  19
ATOM     18  C   LIG    1       25.879 -26.738   6.401  0.00  0.00    +0.280 C 
ATOM     19  O   LIG    1       25.914 -25.659   7.332  0.00  0.00    -0.468 OA
ENDBRANCH  16  19
ENDBRANCH   1  16
BRANCH   5  20
ATOM     20  C   LIG    1       23.423 -21.111   4.600  0.00  0.00    +0.087 C 
BRANCH  20  21
ATOM     21  C   LIG    1       22.455 -19.930   4.809  0.00  0.00    +0.049 C 
BRANCH  21  22
ATOM     22  C   LIG    1       22.906 -18.661   4.105  0.00  0.00    +0.214 C 
ATOM     23  F   LIG    1       22.099 -17.629   4.472  0.00  0.00    -0.249 F 
ENDBRANCH  21  22
ENDBRANCH  20  21
ENDBRANCH   5  20
TORSDOF 6
ENDMDL
MODEL 9
REMARK VINA RESULT:      -4.7      8.055     10.624
REMARK  Name = *****
REMARK                            x       y       z     vdW  Elec       q    Type
REMARK                         _______ _______ _______ _____ _____    ______ ____
ROOT
ATOM      1  C   LIG    1       24.804 -31.779   9.717  0.00  0.00    +0.122 C 
ATOM      2  C   LIG    1       25.967 -30.791   9.426  0.00  0.00    +0.036 C 
ATOM      3  C   LIG    1       26.550 -30.284  10.778  0.00  0.00    +0.028 C 
ATOM      4  C   LIG    1       25.494 -30.140  11.907  0.00  0.00    +0.058 C 
ATOM      5  N   LIG    1       24.170 -29.957  11.287  0.00  0.00    -0.296 NA
ATOM      6  C   LIG    1       25.372 -31.432  12.727  0.00  0.00    +0.020 C 
ATOM      7  C   LIG    1       24.165 -32.154  12.136  0.00  0.00    +0.021 C 
ATOM      8  C   LIG    1       23.842 -31.343  10.870  0.00  0.00    +0.071 C 
ENDROOT
BRANCH   2   9
ATOM      9  C   LIG    1       25.709 -29.642   8.439  0.00  0.00    -0.043 A 
ATOM     10  C   LIG    1       24.788 -29.752   7.384  0.00  0.00    +0.005 A 
ATOM     11  C   LIG    1       24.493 -28.676   6.546  0.00  0.00    +0.014 A 
ATOM     12  C   LIG    1       25.141 -27.464   6.735  0.00  0.00    +0.013 A 
ATOM     13  I   LIG    1       24.704 -25.869   5.479  0.00  0.00    -0.044 I 
ATOM     14  C   LIG    1       26.073 -27.323   7.760  0.00  0.00    +0.014 A 
ATOM     15  C   LIG    1       26.348 -28.402   8.613  0.00  0.00    +0.005 A 
ENDBRANCH   2   9
BRANCH   1  16
ATOM     16  C   LIG    1       24.039 -32.258   8.497  0.00  0.00    +0.312 C 
ATOM     17  O   LIG    1       22.855 -32.038   8.310  0.00  0.00    -0.251 OA
BRANCH  16  19
ATOM     18  C   LIG    1       24.324 -33.218   6.361  0.00  0.00    +0.280 C 
ATOM     19  O   LIG    1       24.861 -32.946   7.653  0.00  0.00    -0.468 OA
ENDBRANCH  16  19
ENDBRANCH   1  16
BRANCH   5  20
ATOM     20  C   LIG    1       23.157 -29.319  12.154  0.00  0.00    +0.087 C 
BRANCH  20  21
ATOM     21  C   LIG    1       23.702 -28.069  12.873  0.00  0.00    +0.049 C 
BRANCH  21  22
ATOM     22  C   LIG    1       22.607 -27.097  13.285  0.00  0.00    +0.214 C 
ATOM     23  F   LIG    1       21.462 -27.396  12.615  0.00  0.00    -0.249 F 
ENDBRANCH  21  22
ENDBRANCH  20  21
ENDBRANCH   5  20
TORSDOF 6
ENDMDL
