MODEL 1
REMARK VINA RESULT:      -3.1      0.000      0.000
REMARK  Name = *****
REMARK                            x       y       z     vdW  Elec       q    Type
REMARK                         _______ _______ _______ _____ _____    ______ ____
ROOT
ATOM      1  C   LIG    1       25.431 -19.394   3.669  0.00  0.00    +0.062 C 
ATOM      2  C   LIG    1       26.695 -18.729   4.231  0.00  0.00    +0.021 C 
ATOM      3  C   LIG    1       27.486 -19.340   5.162  0.00  0.00    +0.015 C 
ENDROOT
BRANCH   2   4
ATOM      4  N   LIG    1       26.949 -17.423   3.747  0.00  0.00    -0.273 N 
ATOM      5  C   LIG    1       27.889 -16.662   4.447  0.00  0.00    +0.333 C 
ATOM      6  O   LIG    1       27.968 -15.413   4.496  0.00  0.00    -0.279 OA
BRANCH   4   7
ATOM      7  C   LIG    1       25.901 -16.744   2.946  0.00  0.00    +0.153 C 
BRANCH   7   8
ATOM      8  C   LIG    1       25.405 -15.371   3.351  0.00  0.00    +0.028 A 
ATOM      9  C   LIG    1       25.983 -14.142   3.105  0.00  0.00    +0.124 A 
ATOM     10  N   LIG    1       25.539 -12.993   3.630  0.00  0.00    -0.218 NA
ATOM     11  C   LIG    1       24.444 -13.035   4.395  0.00  0.00    +0.128 A 
ATOM     12  C   LIG    1       23.967 -11.725   4.931  0.00  0.00    +0.088 C 
ATOM     13  N   LIG    1       23.733 -14.146   4.630  0.00  0.00    -0.240 NA
ATOM     14  C   LIG    1       24.244 -15.286   4.115  0.00  0.00    +0.121 A 
BRANCH   9  15
ATOM     15  N   LIG    1       27.026 -13.920   2.224  0.00  0.00    -0.343 N 
ATOM     16  H   LIG    1       26.694 -13.606   1.324  0.00  0.00    +0.144 HD
ATOM     17  H   LIG    1       27.619 -13.222   2.666  0.00  0.00    +0.144 HD
ENDBRANCH   9  15
ENDBRANCH   7   8
ENDBRANCH   4   7
ENDBRANCH   2   4
BRANCH   3  18
ATOM     18  S   LIG    1       26.988 -20.930   5.726  0.00  0.00    -0.060 S 
BRANCH  18  19
ATOM     19  S   LIG    1       25.401 -20.585   6.999  0.00  0.00    -0.086 S 
BRANCH  19  20
ATOM     20  C   LIG    1       23.978 -21.550   6.281  0.00  0.00    +0.113 C 
BRANCH  20  21
ATOM     21  C   LIG    1       22.683 -20.747   6.085  0.00  0.00    +0.129 C 
ATOM     22  O   LIG    1       22.970 -19.342   5.926  0.00  0.00    -0.376 OA
ATOM     23  C   LIG    1       22.355 -18.872   4.716  0.00  0.00    +0.160 C 
ATOM     24  C   LIG    1       21.333 -19.897   4.297  0.00  0.00    +0.030 C 
ATOM     25  C   LIG    1       21.913 -21.157   4.847  0.00  0.00    +0.035 C 
ENDBRANCH  20  21
ENDBRANCH  19  20
ENDBRANCH  18  19
ENDBRANCH   3  18
BRANCH   3  26
ATOM     26  C   LIG    1       28.820 -18.790   5.676  0.00  0.00    +0.072 C 
BRANCH  26  27
ATOM     27  C   LIG    1       29.441 -19.445   6.920  0.00  0.00    +0.161 C 
BRANCH  27  28
ATOM     28  O   LIG    1       29.475 -20.860   6.701  0.00  0.00    -0.395 OA
ATOM     29  H   LIG    1       30.233 -21.224   7.189  0.00  0.00    +0.209 HD
ENDBRANCH  27  28
ENDBRANCH  26  27
ENDBRANCH   3  26
TORSDOF 11
ENDMDL
MODEL 2
REMARK VINA RESULT:      -1.6      2.933      5.737
REMARK  Name = *****
REMARK                            x       y       z     vdW  Elec       q    Type
REMARK                         _______ _______ _______ _____ _____    ______ ____
ROOT
ATOM      1  C   LIG    1       26.397 -13.822   6.491  0.00  0.00    +0.062 C 
ATOM      2  C   LIG    1       26.330 -14.135   4.990  0.00  0.00    +0.021 C 
ATOM      3  C   LIG    1       25.144 -14.210   4.315  0.00  0.00    +0.015 C 
ENDROOT
BRANCH   2   4
ATOM      4  N   LIG    1       27.580 -14.384   4.374  0.00  0.00    -0.273 N 
ATOM      5  C   LIG    1       28.407 -13.278   4.156  0.00  0.00    +0.333 C 
ATOM      6  O   LIG    1       29.306 -13.163   3.291  0.00  0.00    -0.279 OA
BRANCH   4   7
ATOM      7  C   LIG    1       27.730 -15.594   3.529  0.00  0.00    +0.153 C 
BRANCH   7   8
ATOM      8  C   LIG    1       27.931 -16.950   4.173  0.00  0.00    +0.028 A 
ATOM      9  C   LIG    1       27.131 -18.072   4.082  0.00  0.00    +0.124 A 
ATOM     10  N   LIG    1       27.322 -19.182   4.805  0.00  0.00    -0.218 NA
ATOM     11  C   LIG    1       28.375 -19.223   5.626  0.00  0.00    +0.128 A 
ATOM     12  C   LIG    1       28.565 -20.494   6.388  0.00  0.00    +0.088 C 
ATOM     13  N   LIG    1       29.282 -18.243   5.734  0.00  0.00    -0.240 NA
ATOM     14  C   LIG    1       29.024 -17.127   5.017  0.00  0.00    +0.121 A 
BRANCH   9  15
ATOM     15  N   LIG    1       26.097 -18.235   3.177  0.00  0.00    -0.343 N 
ATOM     16  H   LIG    1       25.726 -17.347   2.870  0.00  0.00    +0.144 HD
ATOM     17  H   LIG    1       26.486 -18.764   2.402  0.00  0.00    +0.144 HD
ENDBRANCH   9  15
ENDBRANCH   7   8
ENDBRANCH   4   7
ENDBRANCH   2   4
BRANCH   3  18
ATOM     18  S   LIG    1       23.671 -13.959   5.242  0.00  0.00    -0.060 S 
BRANCH  18  19
ATOM     19  S   LIG    1       22.388 -15.461   4.646  0.00  0.00    -0.086 S 
BRANCH  19  20
ATOM     20  C   LIG    1       23.472 -16.951   4.372  0.00  0.00    +0.113 C 
BRANCH  20  21
ATOM     21  C   LIG    1       22.718 -18.276   4.185  0.00  0.00    +0.129 C 
ATOM     22  O   LIG    1       23.488 -19.197   3.384  0.00  0.00    -0.376 OA
ATOM     23  C   LIG    1       23.623 -20.438   4.095  0.00  0.00    +0.160 C 
ATOM     24  C   LIG    1       22.594 -20.446   5.195  0.00  0.00    +0.030 C 
ATOM     25  C   LIG    1       22.443 -18.991   5.492  0.00  0.00    +0.035 C 
ENDBRANCH  20  21
ENDBRANCH  19  20
ENDBRANCH  18  19
ENDBRANCH   3  18
BRANCH   3  26
ATOM     26  C   LIG    1       25.008 -14.399   2.801  0.00  0.00    +0.072 C 
BRANCH  26  27
ATOM     27  C   LIG    1       25.061 -13.149   1.908  0.00  0.00    +0.161 C 
BRANCH  27  28
ATOM     28  O   LIG    1       23.891 -12.369   2.177  0.00  0.00    -0.395 OA
ATOM     29  H   LIG    1       23.301 -12.893   2.747  0.00  0.00    +0.209 HD
ENDBRANCH  27  28
ENDBRANCH  26  27
ENDBRANCH   3  26
TORSDOF 11
ENDMDL
MODEL 3
REMARK VINA RESULT:      -1.6      3.310      7.224
REMARK  Name = *****
REMARK                            x       y       z     vdW  Elec       q    Type
REMARK                         _______ _______ _______ _____ _____    ______ ____
ROOT
ATOM      1  C   LIG    1       21.754 -16.642   5.231  0.00  0.00    +0.062 C 
ATOM      2  C   LIG    1       22.876 -17.232   4.366  0.00  0.00    +0.021 C 
ATOM      3  C   LIG    1       23.993 -16.518   4.035  0.00  0.00    +0.015 C 
ENDROOT
BRANCH   2   4
ATOM      4  N   LIG    1       22.643 -18.550   3.903  0.00  0.00    -0.273 N 
ATOM      5  C   LIG    1       21.507 -19.200   4.394  0.00  0.00    +0.333 C 
ATOM      6  O   LIG    1       21.320 -20.434   4.487  0.00  0.00    -0.279 OA
BRANCH   4   7
ATOM      7  C   LIG    1       23.795 -19.348   3.416  0.00  0.00    +0.153 C 
BRANCH   7   8
ATOM      8  C   LIG    1       24.833 -19.859   4.393  0.00  0.00    +0.028 A 
ATOM      9  C   LIG    1       24.637 -20.423   5.638  0.00  0.00    +0.124 A 
ATOM     10  N   LIG    1       25.630 -20.714   6.488  0.00  0.00    -0.218 NA
ATOM     11  C   LIG    1       26.884 -20.490   6.086  0.00  0.00    +0.128 A 
ATOM     12  C   LIG    1       27.960 -20.860   7.054  0.00  0.00    +0.088 C 
ATOM     13  N   LIG    1       27.215 -20.040   4.868  0.00  0.00    -0.240 NA
ATOM     14  C   LIG    1       26.178 -19.721   4.062  0.00  0.00    +0.121 A 
BRANCH   9  15
ATOM     15  N   LIG    1       23.415 -20.844   6.133  0.00  0.00    -0.343 N 
ATOM     16  H   LIG    1       22.685 -20.173   5.945  0.00  0.00    +0.144 HD
ATOM     17  H   LIG    1       23.226 -21.735   5.683  0.00  0.00    +0.144 HD
ENDBRANCH   9  15
ENDBRANCH   7   8
ENDBRANCH   4   7
ENDBRANCH   2   4
BRANCH   3  18
ATOM     18  S   LIG    1       24.094 -14.863   4.619  0.00  0.00    -0.060 S 
BRANCH  18  19
ATOM     19  S   LIG    1       23.856 -13.678   2.947  0.00  0.00    -0.086 S 
BRANCH  19  20
ATOM     20  C   LIG    1       25.539 -12.948   2.620  0.00  0.00    +0.113 C 
BRANCH  20  21
ATOM     21  C   LIG    1       26.678 -13.541   3.463  0.00  0.00    +0.129 C 
ATOM     22  O   LIG    1       27.964 -13.180   2.916  0.00  0.00    -0.376 OA
ATOM     23  C   LIG    1       28.757 -12.569   3.946  0.00  0.00    +0.160 C 
ATOM     24  C   LIG    1       28.117 -12.899   5.269  0.00  0.00    +0.030 C 
ATOM     25  C   LIG    1       26.680 -13.041   4.893  0.00  0.00    +0.035 C 
ENDBRANCH  20  21
ENDBRANCH  19  20
ENDBRANCH  18  19
ENDBRANCH   3  18
BRANCH   3  26
ATOM     26  C   LIG    1       25.200 -17.080   3.279  0.00  0.00    +0.072 C 
BRANCH  26  27
ATOM     27  C   LIG    1       26.508 -16.272   3.301  0.00  0.00    +0.161 C 
BRANCH  27  28
ATOM     28  O   LIG    1       27.570 -17.166   3.652  0.00  0.00    -0.395 OA
ATOM     29  H   LIG    1       28.343 -16.950   3.102  0.00  0.00    +0.209 HD
ENDBRANCH  27  28
ENDBRANCH  26  27
ENDBRANCH   3  26
TORSDOF 11
ENDMDL
MODEL 4
REMARK VINA RESULT:      -1.2      2.310      4.299
REMARK  Name = *****
REMARK                            x       y       z     vdW  Elec       q    Type
REMARK                         _______ _______ _______ _____ _____    ______ ____
ROOT
ATOM      1  C   LIG    1       21.529 -16.677   4.826  0.00  0.00    +0.062 C 
ATOM      2  C   LIG    1       22.937 -17.116   4.400  0.00  0.00    +0.021 C 
ATOM      3  C   LIG    1       23.273 -18.430   4.239  0.00  0.00    +0.015 C 
ENDROOT
BRANCH   2   4
ATOM      4  N   LIG    1       23.867 -16.061   4.233  0.00  0.00    -0.273 N 
ATOM      5  C   LIG    1       23.410 -14.768   4.504  0.00  0.00    +0.333 C 
ATOM      6  O   LIG    1       23.858 -13.693   4.043  0.00  0.00    -0.279 OA
BRANCH   4   7
ATOM      7  C   LIG    1       25.010 -16.259   3.308  0.00  0.00    +0.153 C 
BRANCH   7   8
ATOM      8  C   LIG    1       26.208 -15.334   3.372  0.00  0.00    +0.028 A 
ATOM      9  C   LIG    1       27.441 -15.563   3.948  0.00  0.00    +0.124 A 
ATOM     10  N   LIG    1       28.389 -14.626   4.076  0.00  0.00    -0.218 NA
ATOM     11  C   LIG    1       28.142 -13.413   3.573  0.00  0.00    +0.128 A 
ATOM     12  C   LIG    1       29.241 -12.410   3.710  0.00  0.00    +0.088 C 
ATOM     13  N   LIG    1       27.028 -13.089   2.903  0.00  0.00    -0.240 NA
ATOM     14  C   LIG    1       26.085 -14.054   2.837  0.00  0.00    +0.121 A 
BRANCH   9  15
ATOM     15  N   LIG    1       27.895 -16.796   4.381  0.00  0.00    -0.343 N 
ATOM     16  H   LIG    1       27.134 -17.394   4.670  0.00  0.00    +0.144 HD
ATOM     17  H   LIG    1       28.405 -17.195   3.599  0.00  0.00    +0.144 HD
ENDBRANCH   9  15
ENDBRANCH   7   8
ENDBRANCH   4   7
ENDBRANCH   2   4
BRANCH   3  18
ATOM     18  S   LIG    1       22.026 -19.626   4.568  0.00  0.00    -0.060 S 
BRANCH  18  19
ATOM     19  S   LIG    1       23.033 -21.293   5.248  0.00  0.00    -0.086 S 
BRANCH  19  20
ATOM     20  C   LIG    1       24.123 -20.678   6.629  0.00  0.00    +0.113 C 
BRANCH  20  21
ATOM     21  C   LIG    1       25.594 -21.108   6.535  0.00  0.00    +0.129 C 
ATOM     22  O   LIG    1       25.975 -21.338   5.162  0.00  0.00    -0.376 OA
ATOM     23  C   LIG    1       27.142 -20.557   4.862  0.00  0.00    +0.160 C 
ATOM     24  C   LIG    1       27.748 -20.123   6.171  0.00  0.00    +0.030 C 
ATOM     25  C   LIG    1       26.553 -20.061   7.062  0.00  0.00    +0.035 C 
ENDBRANCH  20  21
ENDBRANCH  19  20
ENDBRANCH  18  19
ENDBRANCH   3  18
BRANCH   3  26
ATOM     26  C   LIG    1       24.616 -18.933   3.704  0.00  0.00    +0.072 C 
BRANCH  26  27
ATOM     27  C   LIG    1       24.627 -19.670   2.354  0.00  0.00    +0.161 C 
BRANCH  27  28
ATOM     28  O   LIG    1       24.260 -21.032   2.596  0.00  0.00    -0.395 OA
ATOM     29  H   LIG    1       24.662 -21.583   1.902  0.00  0.00    +0.209 HD
ENDBRANCH  27  28
ENDBRANCH  26  27
ENDBRANCH   3  26
TORSDOF 11
ENDMDL
MODEL 5
REMARK VINA RESULT:      -0.5      3.279      7.063
REMARK  Name = *****
REMARK                            x       y       z     vdW  Elec       q    Type
REMARK                         _______ _______ _______ _____ _____    ______ ____
ROOT
ATOM      1  C   LIG    1       22.327 -17.100   5.063  0.00  0.00    +0.062 C 
ATOM      2  C   LIG    1       23.555 -16.985   4.149  0.00  0.00    +0.021 C 
ATOM      3  C   LIG    1       24.113 -15.780   3.826  0.00  0.00    +0.015 C 
ENDROOT
BRANCH   2   4
ATOM      4  N   LIG    1       24.033 -18.214   3.633  0.00  0.00    -0.273 N 
ATOM      5  C   LIG    1       23.262 -19.351   3.895  0.00  0.00    +0.333 C 
ATOM      6  O   LIG    1       23.655 -20.539   3.935  0.00  0.00    -0.279 OA
BRANCH   4   7
ATOM      7  C   LIG    1       25.484 -18.356   3.359  0.00  0.00    +0.153 C 
BRANCH   7   8
ATOM      8  C   LIG    1       26.395 -18.988   4.391  0.00  0.00    +0.028 A 
ATOM      9  C   LIG    1       27.672 -18.612   4.755  0.00  0.00    +0.124 A 
ATOM     10  N   LIG    1       28.451 -19.325   5.580  0.00  0.00    -0.218 NA
ATOM     11  C   LIG    1       27.942 -20.436   6.117  0.00  0.00    +0.128 A 
ATOM     12  C   LIG    1       28.835 -21.180   7.056  0.00  0.00    +0.088 C 
ATOM     13  N   LIG    1       26.685 -20.858   5.924  0.00  0.00    -0.240 NA
ATOM     14  C   LIG    1       25.952 -20.131   5.052  0.00  0.00    +0.121 A 
BRANCH   9  15
ATOM     15  N   LIG    1       28.279 -17.421   4.399  0.00  0.00    -0.343 N 
ATOM     16  H   LIG    1       28.989 -17.560   3.695  0.00  0.00    +0.144 HD
ATOM     17  H   LIG    1       27.533 -16.820   4.061  0.00  0.00    +0.144 HD
ENDBRANCH   9  15
ENDBRANCH   7   8
ENDBRANCH   4   7
ENDBRANCH   2   4
BRANCH   3  18
ATOM     18  S   LIG    1       23.349 -14.338   4.481  0.00  0.00    -0.060 S 
BRANCH  18  19
ATOM     19  S   LIG    1       24.892 -13.010   4.821  0.00  0.00    -0.086 S 
BRANCH  19  20
ATOM     20  C   LIG    1       26.109 -13.935   5.886  0.00  0.00    +0.113 C 
BRANCH  20  21
ATOM     21  C   LIG    1       27.585 -13.614   5.612  0.00  0.00    +0.129 C 
ATOM     22  O   LIG    1       28.139 -14.532   4.646  0.00  0.00    -0.376 OA
ATOM     23  C   LIG    1       28.732 -13.784   3.574  0.00  0.00    +0.160 C 
ATOM     24  C   LIG    1       28.906 -12.365   4.050  0.00  0.00    +0.030 C 
ATOM     25  C   LIG    1       27.794 -12.229   5.036  0.00  0.00    +0.035 C 
ENDBRANCH  20  21
ENDBRANCH  19  20
ENDBRANCH  18  19
ENDBRANCH   3  18
BRANCH   3  26
ATOM     26  C   LIG    1       25.403 -15.599   3.022  0.00  0.00    +0.072 C 
BRANCH  26  27
ATOM     27  C   LIG    1       25.577 -14.301   2.216  0.00  0.00    +0.161 C 
BRANCH  27  28
ATOM     28  O   LIG    1       26.948 -14.216   1.812  0.00  0.00    -0.395 OA
ATOM     29  H   LIG    1       27.500 -14.207   2.613  0.00  0.00    +0.209 HD
ENDBRANCH  27  28
ENDBRANCH  26  27
ENDBRANCH   3  26
TORSDOF 11
ENDMDL
MODEL 6
REMARK VINA RESULT:      -0.4      2.556      5.494
REMARK  Name = *****
REMARK                            x       y       z     vdW  Elec       q    Type
REMARK                         _______ _______ _______ _____ _____    ______ ____
ROOT
ATOM      1  C   LIG    1       24.706 -18.783   2.819  0.00  0.00    +0.062 C 
ATOM      2  C   LIG    1       24.467 -19.441   4.185  0.00  0.00    +0.021 C 
ATOM      3  C   LIG    1       23.264 -19.370   4.828  0.00  0.00    +0.015 C 
ENDROOT
BRANCH   2   4
ATOM      4  N   LIG    1       25.598 -20.085   4.744  0.00  0.00    -0.273 N 
ATOM      5  C   LIG    1       25.442 -20.642   6.017  0.00  0.00    +0.333 C 
ATOM      6  O   LIG    1       26.338 -20.860   6.863  0.00  0.00    -0.279 OA
BRANCH   4   7
ATOM      7  C   LIG    1       26.948 -19.688   4.275  0.00  0.00    +0.153 C 
BRANCH   7   8
ATOM      8  C   LIG    1       27.317 -18.222   4.174  0.00  0.00    +0.028 A 
ATOM      9  C   LIG    1       28.357 -17.554   4.790  0.00  0.00    +0.124 A 
ATOM     10  N   LIG    1       28.514 -16.224   4.749  0.00  0.00    -0.218 NA
ATOM     11  C   LIG    1       27.643 -15.512   4.030  0.00  0.00    +0.128 A 
ATOM     12  C   LIG    1       27.878 -14.037   3.987  0.00  0.00    +0.088 C 
ATOM     13  N   LIG    1       26.650 -16.046   3.306  0.00  0.00    -0.240 NA
ATOM     14  C   LIG    1       26.505 -17.386   3.413  0.00  0.00    +0.121 A 
BRANCH   9  15
ATOM     15  N   LIG    1       29.412 -18.163   5.445  0.00  0.00    -0.343 N 
ATOM     16  H   LIG    1       29.218 -18.294   6.427  0.00  0.00    +0.144 HD
ATOM     17  H   LIG    1       29.557 -19.051   4.973  0.00  0.00    +0.144 HD
ENDBRANCH   9  15
ENDBRANCH   7   8
ENDBRANCH   4   7
ENDBRANCH   2   4
BRANCH   3  18
ATOM     18  S   LIG    1       21.982 -18.460   4.039  0.00  0.00    -0.060 S 
BRANCH  18  19
ATOM     19  S   LIG    1       22.005 -16.598   4.927  0.00  0.00    -0.086 S 
BRANCH  19  20
ATOM     20  C   LIG    1       23.486 -15.729   4.205  0.00  0.00    +0.113 C 
BRANCH  20  21
ATOM     21  C   LIG    1       23.293 -14.229   3.939  0.00  0.00    +0.129 C 
ATOM     22  O   LIG    1       23.739 -13.446   5.066  0.00  0.00    -0.376 OA
ATOM     23  C   LIG    1       24.684 -12.465   4.612  0.00  0.00    +0.160 C 
ATOM     24  C   LIG    1       24.546 -12.360   3.115  0.00  0.00    +0.030 C 
ATOM     25  C   LIG    1       24.084 -13.731   2.748  0.00  0.00    +0.035 C 
ENDBRANCH  20  21
ENDBRANCH  19  20
ENDBRANCH  18  19
ENDBRANCH   3  18
BRANCH   3  26
ATOM     26  C   LIG    1       22.920 -20.099   6.129  0.00  0.00    +0.072 C 
BRANCH  26  27
ATOM     27  C   LIG    1       22.375 -21.534   6.033  0.00  0.00    +0.161 C 
BRANCH  27  28
ATOM     28  O   LIG    1       21.427 -21.572   4.961  0.00  0.00    -0.395 OA
ATOM     29  H   LIG    1       21.556 -22.402   4.471  0.00  0.00    +0.209 HD
ENDBRANCH  27  28
ENDBRANCH  26  27
ENDBRANCH   3  26
TORSDOF 11
ENDMDL
MODEL 7
REMARK VINA RESULT:      -0.2      3.312      5.905
REMARK  Name = *****
REMARK                            x       y       z     vdW  Elec       q    Type
REMARK                         _______ _______ _______ _____ _____    ______ ____
ROOT
ATOM      1  C   LIG    1       25.725 -17.237   2.685  0.00  0.00    +0.062 C 
ATOM      2  C   LIG    1       26.828 -16.695   3.606  0.00  0.00    +0.021 C 
ATOM      3  C   LIG    1       27.229 -15.389   3.570  0.00  0.00    +0.015 C 
ENDROOT
BRANCH   2   4
ATOM      4  N   LIG    1       27.424 -17.657   4.456  0.00  0.00    -0.273 N 
ATOM      5  C   LIG    1       28.562 -17.258   5.162  0.00  0.00    +0.333 C 
ATOM      6  O   LIG    1       29.475 -17.991   5.605  0.00  0.00    -0.279 OA
BRANCH   4   7
ATOM      7  C   LIG    1       27.203 -19.096   4.168  0.00  0.00    +0.153 C 
BRANCH   7   8
ATOM      8  C   LIG    1       26.069 -19.841   4.841  0.00  0.00    +0.028 A 
ATOM      9  C   LIG    1       24.894 -20.303   4.282  0.00  0.00    +0.124 A 
ATOM     10  N   LIG    1       23.887 -20.826   4.994  0.00  0.00    -0.218 NA
ATOM     11  C   LIG    1       24.052 -20.952   6.313  0.00  0.00    +0.128 A 
ATOM     12  C   LIG    1       22.916 -21.571   7.061  0.00  0.00    +0.088 C 
ATOM     13  N   LIG    1       25.179 -20.634   6.965  0.00  0.00    -0.240 NA
ATOM     14  C   LIG    1       26.149 -20.071   6.211  0.00  0.00    +0.121 A 
BRANCH   9  15
ATOM     15  N   LIG    1       24.637 -20.374   2.925  0.00  0.00    -0.343 N 
ATOM     16  H   LIG    1       23.714 -20.033   2.701  0.00  0.00    +0.144 HD
ATOM     17  H   LIG    1       25.359 -19.818   2.476  0.00  0.00    +0.144 HD
ENDBRANCH   9  15
ENDBRANCH   7   8
ENDBRANCH   4   7
ENDBRANCH   2   4
BRANCH   3  18
ATOM     18  S   LIG    1       26.448 -14.338   2.396  0.00  0.00    -0.060 S 
BRANCH  18  19
ATOM     19  S   LIG    1       25.214 -13.108   3.502  0.00  0.00    -0.086 S 
BRANCH  19  20
ATOM     20  C   LIG    1       23.562 -13.969   3.531  0.00  0.00    +0.113 C 
BRANCH  20  21
ATOM     21  C   LIG    1       23.464 -15.150   4.507  0.00  0.00    +0.129 C 
ATOM     22  O   LIG    1       22.948 -14.720   5.784  0.00  0.00    -0.376 OA
ATOM     23  C   LIG    1       21.815 -15.532   6.131  0.00  0.00    +0.160 C 
ATOM     24  C   LIG    1       21.845 -16.754   5.250  0.00  0.00    +0.030 C 
ATOM     25  C   LIG    1       22.527 -16.240   4.026  0.00  0.00    +0.035 C 
ENDBRANCH  20  21
ENDBRANCH  19  20
ENDBRANCH  18  19
ENDBRANCH   3  18
BRANCH   3  26
ATOM     26  C   LIG    1       28.233 -14.754   4.535  0.00  0.00    +0.072 C 
BRANCH  26  27
ATOM     27  C   LIG    1       28.627 -13.285   4.307  0.00  0.00    +0.161 C 
BRANCH  27  28
ATOM     28  O   LIG    1       28.075 -12.513   5.379  0.00  0.00    -0.395 OA
ATOM     29  H   LIG    1       28.361 -11.590   5.266  0.00  0.00    +0.209 HD
ENDBRANCH  27  28
ENDBRANCH  26  27
ENDBRANCH   3  26
TORSDOF 11
ENDMDL
