MODEL 1
REMARK VINA RESULT:      -5.7      0.000      0.000
REMARK  Name = *****
REMARK                            x       y       z     vdW  Elec       q    Type
REMARK                         _______ _______ _______ _____ _____    ______ ____
ROOT
ATOM      1  CA  LEU A  1       30.550 -20.649   8.362  0.00  0.00    +0.161 C 
ENDROOT
BRANCH   1   2
ATOM      2  N   LEU A  1       31.507 -20.080   7.395  0.00  0.00    -0.318 NA
ATOM      3  H1  LEU A  1       32.453 -20.000   7.761  0.00  0.00    +0.119 HD
ATOM      4  H2  LEU A  1       31.449 -20.494   6.470  0.00  0.00    +0.119 HD
ENDBRANCH   1   2
BRANCH   1   5
ATOM      5  C   LEU A  1       31.167 -21.809   9.176  0.00  0.00    +0.322 C 
ATOM      6  O   LEU A  1       30.782 -22.151  10.281  0.00  0.00    -0.249 OA
BRANCH   5   7
ATOM      7  OXT LEU A  1       32.190 -22.440   8.549  0.00  0.00    -0.479 OA
ATOM      8  HXT LEU A  1       32.561 -23.139   9.117  0.00  0.00    +0.295 HD
ENDBRANCH   5   7
ENDBRANCH   1   5
BRANCH   1   9
ATOM      9  CB  LEU A  1       29.286 -21.155   7.645  0.00  0.00    +0.033 C 
BRANCH   9  11
ATOM     10  CD1 LEU A  1       28.016 -19.921   5.861  0.00  0.00    +0.007 C 
ATOM     11  CG  LEU A  1       28.186 -20.104   7.373  0.00  0.00    -0.015 C 
ATOM     12  CD2 LEU A  1       26.838 -20.477   7.993  0.00  0.00    +0.007 C 
ENDBRANCH   9  11
ENDBRANCH   1   9
TORSDOF 5
ENDMDL
MODEL 2
REMARK VINA RESULT:      -5.5      3.303      3.689
REMARK  Name = *****
REMARK                            x       y       z     vdW  Elec       q    Type
REMARK                         _______ _______ _______ _____ _____    ______ ____
ROOT
ATOM      1  CA  LEU A  1       31.778 -18.580   8.479  0.00  0.00    +0.161 C 
ENDROOT
BRANCH   1   2
ATOM      2  N   LEU A  1       31.924 -19.905   9.111  0.00  0.00    -0.318 NA
ATOM      3  H1  LEU A  1       32.685 -20.457   8.724  0.00  0.00    +0.119 HD
ATOM      4  H2  LEU A  1       31.900 -19.878  10.126  0.00  0.00    +0.119 HD
ENDBRANCH   1   2
BRANCH   1   5
ATOM      5  C   LEU A  1       32.253 -17.438   9.406  0.00  0.00    +0.322 C 
ATOM      6  O   LEU A  1       32.407 -17.552  10.610  0.00  0.00    -0.249 OA
BRANCH   5   7
ATOM      7  OXT LEU A  1       32.499 -16.271   8.762  0.00  0.00    -0.479 OA
ATOM      8  HXT LEU A  1       32.927 -16.438   7.903  0.00  0.00    +0.295 HD
ENDBRANCH   5   7
ENDBRANCH   1   5
BRANCH   1   9
ATOM      9  CB  LEU A  1       30.316 -18.325   8.076  0.00  0.00    +0.033 C 
BRANCH   9  11
ATOM     10  CD1 LEU A  1       28.498 -19.973   7.528  0.00  0.00    +0.007 C 
ATOM     11  CG  LEU A  1       29.735 -19.250   6.982  0.00  0.00    -0.015 C 
ATOM     12  CD2 LEU A  1       29.361 -18.500   5.703  0.00  0.00    +0.007 C 
ENDBRANCH   9  11
ENDBRANCH   1   9
TORSDOF 5
ENDMDL
MODEL 3
REMARK VINA RESULT:      -5.4      2.534      3.531
REMARK  Name = *****
REMARK                            x       y       z     vdW  Elec       q    Type
REMARK                         _______ _______ _______ _____ _____    ______ ____
ROOT
ATOM      1  CA  LEU A  1       31.341 -19.550   8.310  0.00  0.00    +0.161 C 
ENDROOT
BRANCH   1   2
ATOM      2  N   LEU A  1       31.499 -19.626   6.846  0.00  0.00    -0.318 NA
ATOM      3  H1  LEU A  1       31.353 -18.735   6.377  0.00  0.00    +0.119 HD
ATOM      4  H2  LEU A  1       32.333 -20.123   6.550  0.00  0.00    +0.119 HD
ENDBRANCH   1   2
BRANCH   1   5
ATOM      5  C   LEU A  1       31.087 -20.938   8.940  0.00  0.00    +0.322 C 
ATOM      6  O   LEU A  1       30.009 -21.508   8.932  0.00  0.00    -0.249 OA
BRANCH   5   7
ATOM      7  OXT LEU A  1       32.184 -21.494   9.511  0.00  0.00    -0.479 OA
ATOM      8  HXT LEU A  1       32.996 -21.153   9.095  0.00  0.00    +0.295 HD
ENDBRANCH   5   7
ENDBRANCH   1   5
BRANCH   1   9
ATOM      9  CB  LEU A  1       30.184 -18.608   8.687  0.00  0.00    +0.033 C 
BRANCH   9  11
ATOM     10  CD1 LEU A  1       30.372 -17.546  10.958  0.00  0.00    +0.007 C 
ATOM     11  CG  LEU A  1       30.568 -17.323   9.454  0.00  0.00    -0.015 C 
ATOM     12  CD2 LEU A  1       32.007 -16.879   9.190  0.00  0.00    +0.007 C 
ENDBRANCH   9  11
ENDBRANCH   1   9
TORSDOF 5
ENDMDL
MODEL 4
REMARK VINA RESULT:      -5.4      3.190      3.427
REMARK  Name = *****
REMARK                            x       y       z     vdW  Elec       q    Type
REMARK                         _______ _______ _______ _____ _____    ______ ____
ROOT
ATOM      1  CA  LEU A  1       31.568 -18.783   8.608  0.00  0.00    +0.161 C 
ENDROOT
BRANCH   1   2
ATOM      2  N   LEU A  1       32.028 -20.080   9.139  0.00  0.00    -0.318 NA
ATOM      3  H1  LEU A  1       31.273 -20.665   9.487  0.00  0.00    +0.119 HD
ATOM      4  H2  LEU A  1       32.684 -20.561   8.532  0.00  0.00    +0.119 HD
ENDBRANCH   1   2
BRANCH   1   5
ATOM      5  C   LEU A  1       32.174 -17.590   9.382  0.00  0.00    +0.322 C 
ATOM      6  O   LEU A  1       32.396 -17.593  10.581  0.00  0.00    -0.249 OA
BRANCH   5   7
ATOM      7  OXT LEU A  1       32.454 -16.514   8.606  0.00  0.00    -0.479 OA
ATOM      8  HXT LEU A  1       33.172 -16.721   7.981  0.00  0.00    +0.295 HD
ENDBRANCH   5   7
ENDBRANCH   1   5
BRANCH   1   9
ATOM      9  CB  LEU A  1       30.034 -18.686   8.656  0.00  0.00    +0.033 C 
BRANCH   9  11
ATOM     10  CD1 LEU A  1       30.064 -18.836   6.147  0.00  0.00    +0.007 C 
ATOM     11  CG  LEU A  1       29.275 -19.197   7.410  0.00  0.00    -0.015 C 
ATOM     12  CD2 LEU A  1       29.028 -20.706   7.440  0.00  0.00    +0.007 C 
ENDBRANCH   9  11
ENDBRANCH   1   9
TORSDOF 5
ENDMDL
MODEL 5
REMARK VINA RESULT:      -5.2      3.894      5.071
REMARK  Name = *****
REMARK                            x       y       z     vdW  Elec       q    Type
REMARK                         _______ _______ _______ _____ _____    ______ ____
ROOT
ATOM      1  CA  LEU A  1       25.792 -20.716   6.994  0.00  0.00    +0.161 C 
ENDROOT
BRANCH   1   2
ATOM      2  N   LEU A  1       26.635 -20.750   5.784  0.00  0.00    -0.318 NA
ATOM      3  H1  LEU A  1       27.282 -21.534   5.764  0.00  0.00    +0.119 HD
ATOM      4  H2  LEU A  1       26.117 -20.612   4.921  0.00  0.00    +0.119 HD
ENDBRANCH   1   2
BRANCH   1   5
ATOM      5  C   LEU A  1       26.618 -20.440   8.271  0.00  0.00    +0.322 C 
ATOM      6  O   LEU A  1       27.798 -20.133   8.271  0.00  0.00    -0.249 OA
BRANCH   5   7
ATOM      7  OXT LEU A  1       25.911 -20.560   9.422  0.00  0.00    -0.479 OA
ATOM      8  HXT LEU A  1       26.312 -21.232  10.001  0.00  0.00    +0.295 HD
ENDBRANCH   5   7
ENDBRANCH   1   5
BRANCH   1   9
ATOM      9  CB  LEU A  1       25.029 -22.041   7.166  0.00  0.00    +0.033 C 
BRANCH   9  11
ATOM     10  CD1 LEU A  1       23.022 -20.802   6.296  0.00  0.00    +0.007 C 
ATOM     11  CG  LEU A  1       23.488 -21.945   7.205  0.00  0.00    -0.015 C 
ATOM     12  CD2 LEU A  1       22.798 -23.243   6.783  0.00  0.00    +0.007 C 
ENDBRANCH   9  11
ENDBRANCH   1   9
TORSDOF 5
ENDMDL
MODEL 6
REMARK VINA RESULT:      -5.1      3.222      3.689
REMARK  Name = *****
REMARK                            x       y       z     vdW  Elec       q    Type
REMARK                         _______ _______ _______ _____ _____    ______ ____
ROOT
ATOM      1  CA  LEU A  1       30.897 -17.543   8.979  0.00  0.00    +0.161 C 
ENDROOT
BRANCH   1   2
ATOM      2  N   LEU A  1       32.231 -16.978   8.702  0.00  0.00    -0.318 NA
ATOM      3  H1  LEU A  1       32.871 -17.641   8.273  0.00  0.00    +0.119 HD
ATOM      4  H2  LEU A  1       32.204 -16.069   8.249  0.00  0.00    +0.119 HD
ENDBRANCH   1   2
BRANCH   1   5
ATOM      5  C   LEU A  1       30.585 -17.583  10.491  0.00  0.00    +0.322 C 
ATOM      6  O   LEU A  1       30.647 -18.588  11.178  0.00  0.00    -0.249 OA
BRANCH   5   7
ATOM      7  OXT LEU A  1       30.233 -16.382  11.014  0.00  0.00    -0.479 OA
ATOM      8  HXT LEU A  1       30.968 -16.005  11.529  0.00  0.00    +0.295 HD
ENDBRANCH   5   7
ENDBRANCH   1   5
BRANCH   1   9
ATOM      9  CB  LEU A  1       30.777 -18.965   8.403  0.00  0.00    +0.033 C 
BRANCH   9  11
ATOM     10  CD1 LEU A  1       29.630 -18.659   6.187  0.00  0.00    +0.007 C 
ATOM     11  CG  LEU A  1       29.501 -19.269   7.587  0.00  0.00    -0.015 C 
ATOM     12  CD2 LEU A  1       29.215 -20.767   7.463  0.00  0.00    +0.007 C 
ENDBRANCH   9  11
ENDBRANCH   1   9
TORSDOF 5
ENDMDL
MODEL 7
REMARK VINA RESULT:      -5.1      4.109      5.269
REMARK  Name = *****
REMARK                            x       y       z     vdW  Elec       q    Type
REMARK                         _______ _______ _______ _____ _____    ______ ____
ROOT
ATOM      1  CA  LEU A  1       25.671 -20.550   7.011  0.00  0.00    +0.161 C 
ENDROOT
BRANCH   1   2
ATOM      2  N   LEU A  1       26.301 -21.523   6.098  0.00  0.00    -0.318 NA
ATOM      3  H1  LEU A  1       25.677 -21.854   5.367  0.00  0.00    +0.119 HD
ATOM      4  H2  LEU A  1       27.219 -21.240   5.770  0.00  0.00    +0.119 HD
ENDBRANCH   1   2
BRANCH   1   5
ATOM      5  C   LEU A  1       26.387 -20.488   8.379  0.00  0.00    +0.322 C 
ATOM      6  O   LEU A  1       25.839 -20.693   9.449  0.00  0.00    -0.249 OA
BRANCH   5   7
ATOM      7  OXT LEU A  1       27.707 -20.190   8.298  0.00  0.00    -0.479 OA
ATOM      8  HXT LEU A  1       27.976 -20.078   7.369  0.00  0.00    +0.295 HD
ENDBRANCH   5   7
ENDBRANCH   1   5
BRANCH   1   9
ATOM      9  CB  LEU A  1       24.188 -20.891   7.235  0.00  0.00    +0.033 C 
BRANCH   9  11
ATOM     10  CD1 LEU A  1       22.853 -22.976   6.798  0.00  0.00    +0.007 C 
ATOM     11  CG  LEU A  1       23.511 -21.755   6.146  0.00  0.00    -0.015 C 
ATOM     12  CD2 LEU A  1       22.465 -20.986   5.339  0.00  0.00    +0.007 C 
ENDBRANCH   9  11
ENDBRANCH   1   9
TORSDOF 5
ENDMDL
MODEL 8
REMARK VINA RESULT:      -5.0      6.517      6.974
REMARK  Name = *****
REMARK                            x       y       z     vdW  Elec       q    Type
REMARK                         _______ _______ _______ _____ _____    ______ ____
ROOT
ATOM      1  CA  LEU A  1       24.566 -23.182   6.547  0.00  0.00    +0.161 C 
ENDROOT
BRANCH   1   2
ATOM      2  N   LEU A  1       25.926 -23.731   6.391  0.00  0.00    -0.318 NA
ATOM      3  H1  LEU A  1       26.557 -23.468   7.144  0.00  0.00    +0.119 HD
ATOM      4  H2  LEU A  1       25.943 -24.719   6.156  0.00  0.00    +0.119 HD
ENDBRANCH   1   2
BRANCH   1   5
ATOM      5  C   LEU A  1       23.486 -24.287   6.530  0.00  0.00    +0.322 C 
ATOM      6  O   LEU A  1       23.725 -25.476   6.403  0.00  0.00    -0.249 OA
BRANCH   5   7
ATOM      7  OXT LEU A  1       22.220 -23.825   6.681  0.00  0.00    -0.479 OA
ATOM      8  HXT LEU A  1       22.117 -23.385   7.543  0.00  0.00    +0.295 HD
ENDBRANCH   5   7
ENDBRANCH   1   5
BRANCH   1   9
ATOM      9  CB  LEU A  1       24.258 -22.163   5.435  0.00  0.00    +0.033 C 
BRANCH   9  11
ATOM     10  CD1 LEU A  1       22.551 -20.336   5.177  0.00  0.00    +0.007 C 
ATOM     11  CG  LEU A  1       23.839 -20.750   5.897  0.00  0.00    -0.015 C 
ATOM     12  CD2 LEU A  1       23.626 -20.655   7.409  0.00  0.00    +0.007 C 
ENDBRANCH   9  11
ENDBRANCH   1   9
TORSDOF 5
ENDMDL
MODEL 9
REMARK VINA RESULT:      -5.0      6.379      6.981
REMARK  Name = *****
REMARK                            x       y       z     vdW  Elec       q    Type
REMARK                         _______ _______ _______ _____ _____    ______ ____
ROOT
ATOM      1  CA  LEU A  1       24.655 -22.161   6.015  0.00  0.00    +0.161 C 
ENDROOT
BRANCH   1   2
ATOM      2  N   LEU A  1       24.642 -22.937   4.760  0.00  0.00    -0.318 NA
ATOM      3  H1  LEU A  1       24.304 -22.407   3.961  0.00  0.00    +0.119 HD
ATOM      4  H2  LEU A  1       25.500 -23.452   4.589  0.00  0.00    +0.119 HD
ENDBRANCH   1   2
BRANCH   1   5
ATOM      5  C   LEU A  1       23.432 -22.474   6.906  0.00  0.00    +0.322 C 
ATOM      6  O   LEU A  1       23.100 -21.809   7.872  0.00  0.00    -0.249 OA
BRANCH   5   7
ATOM      7  OXT LEU A  1       22.733 -23.569   6.517  0.00  0.00    -0.479 OA
ATOM      8  HXT LEU A  1       23.317 -24.208   6.073  0.00  0.00    +0.295 HD
ENDBRANCH   5   7
ENDBRANCH   1   5
BRANCH   1   9
ATOM      9  CB  LEU A  1       24.691 -20.651   5.722  0.00  0.00    +0.033 C 
BRANCH   9  11
ATOM     10  CD1 LEU A  1       22.569 -19.460   5.088  0.00  0.00    +0.007 C 
ATOM     11  CG  LEU A  1       23.820 -20.160   4.544  0.00  0.00    -0.015 C 
ATOM     12  CD2 LEU A  1       24.565 -19.210   3.606  0.00  0.00    +0.007 C 
ENDBRANCH   9  11
ENDBRANCH   1   9
TORSDOF 5
ENDMDL
