MODEL 1
REMARK VINA RESULT:     -10.9      0.000      0.000
REMARK  Name = *****
REMARK                            x       y       z     vdW  Elec       q    Type
REMARK                         _______ _______ _______ _____ _____    ______ ____
ROOT
ATOM      1  C   LIG    1       25.994 -22.992   6.733  0.00  0.00    +0.163 C 
ENDROOT
BRANCH   1   3
ATOM      2  C   LIG    1       24.571 -21.387   5.408  0.00  0.00    +0.233 C 
ATOM      3  N   LIG    1       24.716 -22.300   6.436  0.00  0.00    -0.302 N 
ATOM      4  H   LIG    1       23.918 -22.447   7.045  0.00  0.00    +0.149 HD
ATOM      5  O   LIG    1       25.485 -21.165   4.615  0.00  0.00    -0.274 OA
BRANCH   2   7
ATOM      6  C   LIG    1       23.230 -19.477   4.340  0.00  0.00    +0.037 C 
ATOM      7  C   LIG    1       23.199 -20.626   5.362  0.00  0.00    +0.088 C 
ATOM      8  C   LIG    1       22.869 -20.053   6.746  0.00  0.00    +0.037 C 
BRANCH   7   9
ATOM      9  N   LIG    1       22.127 -21.575   4.983  0.00  0.00    -0.318 NA
ATOM     10  H   LIG    1       22.143 -22.355   5.644  0.00  0.00    +0.119 HD
ATOM     11  H   LIG    1       22.368 -21.998   4.083  0.00  0.00    +0.119 HD
ENDBRANCH   7   9
ENDBRANCH   2   7
ENDBRANCH   1   3
BRANCH   1  12
ATOM     12  C   LIG    1       26.817 -22.134   7.730  0.00  0.00    +0.235 C 
ATOM     13  N   LIG    1       28.084 -21.788   7.299  0.00  0.00    -0.295 N 
ATOM     14  H   LIG    1       28.521 -22.438   6.651  0.00  0.00    +0.150 HD
ATOM     15  O   LIG    1       26.416 -21.802   8.844  0.00  0.00    -0.274 OA
BRANCH  13  16
ATOM     16  C   LIG    1       28.943 -21.008   8.163  0.00  0.00    +0.164 C 
BRANCH  16  17
ATOM     17  N   LIG    1       30.265 -21.550   8.039  0.00  0.00    -0.299 N 
ATOM     18  H   LIG    1       30.743 -21.579   7.142  0.00  0.00    +0.150 HD
ATOM     19  C   LIG    1       30.976 -21.914   9.130  0.00  0.00    +0.327 C 
ATOM     20  O   LIG    1       32.119 -22.386   9.054  0.00  0.00    -0.280 OA
ENDBRANCH  16  17
BRANCH  16  21
ATOM     21  C   LIG    1       28.885 -19.483   7.851  0.00  0.00    +0.079 C 
BRANCH  21  22
ATOM     22  C   LIG    1       30.185 -18.735   8.063  0.00  0.00    -0.019 C 
ATOM     23  C   LIG    1       30.576 -17.884   9.159  0.00  0.00    +0.003 C 
ATOM     24  C   LIG    1       31.939 -17.614   9.010  0.00  0.00    +0.047 C 
ATOM     25  C   LIG    1       32.702 -16.956   9.986  0.00  0.00    +0.026 C 
ATOM     26  C   LIG    1       32.064 -16.597  11.173  0.00  0.00    +0.002 C 
ATOM     27  C   LIG    1       30.692 -16.778  11.320  0.00  0.00    +0.001 C 
ATOM     28  N   LIG    1       32.312 -18.099   7.781  0.00  0.00    -0.360 NA
ATOM     29  H   LIG    1       33.236 -18.001   7.383  0.00  0.00    +0.165 HD
ATOM     30  C   LIG    1       29.927 -17.362  10.298  0.00  0.00    +0.010 C 
ATOM     31  C   LIG    1       31.276 -18.790   7.213  0.00  0.00    +0.087 C 
ENDBRANCH  21  22
ENDBRANCH  16  21
ENDBRANCH  13  16
ENDBRANCH   1  12
BRANCH   1  32
ATOM     32  C   LIG    1       25.755 -24.407   7.303  0.00  0.00    +0.069 C 
BRANCH  32  33
ATOM     33  C   LIG    1       25.481 -25.484   6.280  0.00  0.00    -0.020 C 
ATOM     34  C   LIG    1       25.397 -26.898   6.509  0.00  0.00    +0.003 C 
ATOM     35  C   LIG    1       25.157 -27.518   5.281  0.00  0.00    +0.047 C 
ATOM     36  C   LIG    1       25.023 -28.905   5.142  0.00  0.00    +0.026 C 
ATOM     37  C   LIG    1       25.126 -29.684   6.297  0.00  0.00    +0.002 C 
ATOM     38  C   LIG    1       25.353 -29.097   7.539  0.00  0.00    +0.001 C 
ATOM     39  N   LIG    1       25.084 -26.523   4.337  0.00  0.00    -0.360 NA
ATOM     40  H   LIG    1       24.901 -26.680   3.355  0.00  0.00    +0.165 HD
ATOM     41  C   LIG    1       25.495 -27.710   7.656  0.00  0.00    +0.010 C 
ATOM     42  C   LIG    1       25.276 -25.300   4.923  0.00  0.00    +0.087 C 
ENDBRANCH  32  33
ENDBRANCH   1  32
TORSDOF 10
ENDMDL
MODEL 2
REMARK VINA RESULT:     -10.7      1.330      5.313
REMARK  Name = *****
REMARK                            x       y       z     vdW  Elec       q    Type
REMARK                         _______ _______ _______ _____ _____    ______ ____
ROOT
ATOM      1  C   LIG    1       25.462 -23.206   6.899  0.00  0.00    +0.163 C 
ENDROOT
BRANCH   1   3
ATOM      2  C   LIG    1       25.250 -25.657   6.350  0.00  0.00    +0.233 C 
ATOM      3  N   LIG    1       26.012 -24.574   6.750  0.00  0.00    -0.302 N 
ATOM      4  H   LIG    1       26.977 -24.753   7.008  0.00  0.00    +0.149 HD
ATOM      5  O   LIG    1       24.077 -25.523   6.003  0.00  0.00    -0.274 OA
BRANCH   2   7
ATOM      6  C   LIG    1       25.067 -28.169   5.855  0.00  0.00    +0.037 C 
ATOM      7  C   LIG    1       25.961 -27.055   6.424  0.00  0.00    +0.088 C 
ATOM      8  C   LIG    1       26.310 -27.390   7.880  0.00  0.00    +0.037 C 
BRANCH   7   9
ATOM      9  N   LIG    1       27.220 -27.004   5.644  0.00  0.00    -0.318 NA
ATOM     10  H   LIG    1       27.084 -27.540   4.783  0.00  0.00    +0.119 HD
ATOM     11  H   LIG    1       27.941 -27.520   6.154  0.00  0.00    +0.119 HD
ENDBRANCH   7   9
ENDBRANCH   2   7
ENDBRANCH   1   3
BRANCH   1  12
ATOM     12  C   LIG    1       26.398 -22.378   7.818  0.00  0.00    +0.235 C 
ATOM     13  N   LIG    1       27.515 -21.852   7.197  0.00  0.00    -0.295 N 
ATOM     14  H   LIG    1       27.862 -22.376   6.398  0.00  0.00    +0.150 HD
ATOM     15  O   LIG    1       26.210 -22.217   9.022  0.00  0.00    -0.274 OA
BRANCH  13  16
ATOM     16  C   LIG    1       28.466 -21.083   7.971  0.00  0.00    +0.164 C 
BRANCH  16  17
ATOM     17  N   LIG    1       29.701 -21.813   7.960  0.00  0.00    -0.299 N 
ATOM     18  H   LIG    1       30.114 -22.140   7.091  0.00  0.00    +0.150 HD
ATOM     19  C   LIG    1       30.429 -21.970   9.089  0.00  0.00    +0.327 C 
ATOM     20  O   LIG    1       31.499 -22.596   9.110  0.00  0.00    -0.280 OA
ENDBRANCH  16  17
BRANCH  16  21
ATOM     21  C   LIG    1       28.623 -19.624   7.451  0.00  0.00    +0.079 C 
BRANCH  21  22
ATOM     22  C   LIG    1       29.965 -18.982   7.738  0.00  0.00    -0.019 C 
ATOM     23  C   LIG    1       30.368 -18.181   8.866  0.00  0.00    +0.003 C 
ATOM     24  C   LIG    1       31.753 -18.015   8.785  0.00  0.00    +0.047 C 
ATOM     25  C   LIG    1       32.518 -17.433   9.807  0.00  0.00    +0.026 C 
ATOM     26  C   LIG    1       31.853 -17.043  10.970  0.00  0.00    +0.002 C 
ATOM     27  C   LIG    1       30.465 -17.119  11.050  0.00  0.00    +0.001 C 
ATOM     28  N   LIG    1       32.146 -18.510   7.566  0.00  0.00    -0.360 NA
ATOM     29  H   LIG    1       33.092 -18.477   7.212  0.00  0.00    +0.165 HD
ATOM     30  C   LIG    1       29.707 -17.627   9.983  0.00  0.00    +0.010 C 
ATOM     31  C   LIG    1       31.088 -19.109   6.938  0.00  0.00    +0.087 C 
ENDBRANCH  21  22
ENDBRANCH  16  21
ENDBRANCH  13  16
ENDBRANCH   1  12
BRANCH   1  32
ATOM     32  C   LIG    1       25.289 -22.510   5.532  0.00  0.00    +0.069 C 
BRANCH  32  33
ATOM     33  C   LIG    1       24.087 -21.603   5.409  0.00  0.00    -0.020 C 
ATOM     34  C   LIG    1       24.029 -20.318   4.774  0.00  0.00    +0.003 C 
ATOM     35  C   LIG    1       22.732 -19.824   4.921  0.00  0.00    +0.047 C 
ATOM     36  C   LIG    1       22.329 -18.581   4.418  0.00  0.00    +0.026 C 
ATOM     37  C   LIG    1       23.279 -17.821   3.731  0.00  0.00    +0.002 C 
ATOM     38  C   LIG    1       24.578 -18.290   3.556  0.00  0.00    +0.001 C 
ATOM     39  N   LIG    1       22.016 -20.774   5.609  0.00  0.00    -0.360 NA
ATOM     40  H   LIG    1       21.036 -20.691   5.845  0.00  0.00    +0.165 HD
ATOM     41  C   LIG    1       24.966 -19.530   4.076  0.00  0.00    +0.010 C 
ATOM     42  C   LIG    1       22.817 -21.844   5.906  0.00  0.00    +0.087 C 
ENDBRANCH  32  33
ENDBRANCH   1  32
TORSDOF 10
ENDMDL
MODEL 3
REMARK VINA RESULT:     -10.3      1.810      9.001
REMARK  Name = *****
REMARK                            x       y       z     vdW  Elec       q    Type
REMARK                         _______ _______ _______ _____ _____    ______ ____
ROOT
ATOM      1  C   LIG    1       26.970 -20.819   6.973  0.00  0.00    +0.163 C 
ENDROOT
BRANCH   1   3
ATOM      2  C   LIG    1       24.709 -20.420   5.932  0.00  0.00    +0.233 C 
ATOM      3  N   LIG    1       26.088 -20.456   5.838  0.00  0.00    -0.302 N 
ATOM      4  H   LIG    1       26.497 -20.282   4.926  0.00  0.00    +0.149 HD
ATOM      5  O   LIG    1       24.134 -20.601   7.005  0.00  0.00    -0.274 OA
BRANCH   2   7
ATOM      6  C   LIG    1       24.706 -19.232   3.657  0.00  0.00    +0.037 C 
ATOM      7  C   LIG    1       23.940 -20.191   4.583  0.00  0.00    +0.088 C 
ATOM      8  C   LIG    1       22.548 -19.609   4.862  0.00  0.00    +0.037 C 
BRANCH   7   9
ATOM      9  N   LIG    1       23.770 -21.491   3.891  0.00  0.00    -0.318 NA
ATOM     10  H   LIG    1       22.983 -21.408   3.244  0.00  0.00    +0.119 HD
ATOM     11  H   LIG    1       23.465 -22.187   4.575  0.00  0.00    +0.119 HD
ENDBRANCH   7   9
ENDBRANCH   2   7
ENDBRANCH   1   3
BRANCH   1  12
ATOM     12  C   LIG    1       26.547 -22.207   7.522  0.00  0.00    +0.235 C 
ATOM     13  N   LIG    1       26.274 -23.160   6.559  0.00  0.00    -0.295 N 
ATOM     14  H   LIG    1       25.940 -22.802   5.668  0.00  0.00    +0.150 HD
ATOM     15  O   LIG    1       26.416 -22.462   8.717  0.00  0.00    -0.274 OA
BRANCH  13  16
ATOM     16  C   LIG    1       25.848 -24.483   6.964  0.00  0.00    +0.164 C 
BRANCH  16  17
ATOM     17  N   LIG    1       24.460 -24.386   7.314  0.00  0.00    -0.299 N 
ATOM     18  H   LIG    1       24.141 -24.562   8.262  0.00  0.00    +0.150 HD
ATOM     19  C   LIG    1       23.549 -23.924   6.429  0.00  0.00    +0.327 C 
ATOM     20  O   LIG    1       22.343 -23.831   6.702  0.00  0.00    -0.280 OA
ENDBRANCH  16  17
BRANCH  16  21
ATOM     21  C   LIG    1       26.123 -25.562   5.875  0.00  0.00    +0.079 C 
BRANCH  21  22
ATOM     22  C   LIG    1       25.429 -26.890   6.100  0.00  0.00    -0.019 C 
ATOM     23  C   LIG    1       25.593 -27.830   7.181  0.00  0.00    +0.003 C 
ATOM     24  C   LIG    1       24.578 -28.783   7.060  0.00  0.00    +0.047 C 
ATOM     25  C   LIG    1       24.319 -29.757   8.036  0.00  0.00    +0.026 C 
ATOM     26  C   LIG    1       25.096 -29.734   9.195  0.00  0.00    +0.002 C 
ATOM     27  C   LIG    1       26.166 -28.851   9.311  0.00  0.00    +0.001 C 
ATOM     28  N   LIG    1       23.957 -28.558   5.856  0.00  0.00    -0.360 NA
ATOM     29  H   LIG    1       23.213 -29.129   5.479  0.00  0.00    +0.165 HD
ATOM     30  C   LIG    1       26.463 -27.938   8.286  0.00  0.00    +0.010 C 
ATOM     31  C   LIG    1       24.445 -27.415   5.282  0.00  0.00    +0.087 C 
ENDBRANCH  21  22
ENDBRANCH  16  21
ENDBRANCH  13  16
ENDBRANCH   1  12
BRANCH   1  32
ATOM     32  C   LIG    1       28.456 -20.829   6.558  0.00  0.00    +0.069 C 
BRANCH  32  33
ATOM     33  C   LIG    1       29.448 -20.636   7.682  0.00  0.00    -0.020 C 
ATOM     34  C   LIG    1       29.938 -19.393   8.204  0.00  0.00    +0.003 C 
ATOM     35  C   LIG    1       30.858 -19.684   9.213  0.00  0.00    +0.047 C 
ATOM     36  C   LIG    1       31.534 -18.692   9.936  0.00  0.00    +0.026 C 
ATOM     37  C   LIG    1       31.253 -17.360   9.626  0.00  0.00    +0.002 C 
ATOM     38  C   LIG    1       30.332 -17.035   8.634  0.00  0.00    +0.001 C 
ATOM     39  N   LIG    1       30.922 -21.052   9.315  0.00  0.00    -0.360 NA
ATOM     40  H   LIG    1       31.499 -21.548   9.981  0.00  0.00    +0.165 HD
ATOM     41  C   LIG    1       29.675 -18.039   7.914  0.00  0.00    +0.010 C 
ATOM     42  C   LIG    1       30.082 -21.634   8.404  0.00  0.00    +0.087 C 
ENDBRANCH  32  33
ENDBRANCH   1  32
TORSDOF 10
ENDMDL
MODEL 4
REMARK VINA RESULT:      -9.4      2.847      9.536
REMARK  Name = *****
REMARK                            x       y       z     vdW  Elec       q    Type
REMARK                         _______ _______ _______ _____ _____    ______ ____
ROOT
ATOM      1  C   LIG    1       25.242 -23.008   7.168  0.00  0.00    +0.163 C 
ENDROOT
BRANCH   1   3
ATOM      2  C   LIG    1       23.217 -21.951   6.101  0.00  0.00    +0.233 C 
ATOM      3  N   LIG    1       24.585 -22.000   6.301  0.00  0.00    -0.302 N 
ATOM      4  H   LIG    1       25.157 -21.347   5.776  0.00  0.00    +0.149 HD
ATOM      5  O   LIG    1       22.452 -22.696   6.712  0.00  0.00    -0.274 OA
BRANCH   2   7
ATOM      6  C   LIG    1       23.681 -20.895   3.807  0.00  0.00    +0.037 C 
ATOM      7  C   LIG    1       22.725 -20.933   5.012  0.00  0.00    +0.088 C 
ATOM      8  C   LIG    1       22.628 -19.525   5.615  0.00  0.00    +0.037 C 
BRANCH   7   9
ATOM      9  N   LIG    1       21.378 -21.333   4.543  0.00  0.00    -0.318 NA
ATOM     10  H   LIG    1       20.885 -21.773   5.324  0.00  0.00    +0.119 HD
ATOM     11  H   LIG    1       21.481 -22.080   3.853  0.00  0.00    +0.119 HD
ENDBRANCH   7   9
ENDBRANCH   2   7
ENDBRANCH   1   3
BRANCH   1  12
ATOM     12  C   LIG    1       25.379 -24.340   6.384  0.00  0.00    +0.235 C 
ATOM     13  N   LIG    1       25.620 -25.457   7.163  0.00  0.00    -0.295 N 
ATOM     14  H   LIG    1       26.112 -25.286   8.036  0.00  0.00    +0.150 HD
ATOM     15  O   LIG    1       25.321 -24.425   5.160  0.00  0.00    -0.274 OA
BRANCH  13  16
ATOM     16  C   LIG    1       25.788 -26.746   6.528  0.00  0.00    +0.164 C 
BRANCH  16  17
ATOM     17  N   LIG    1       27.084 -26.745   5.914  0.00  0.00    -0.299 N 
ATOM     18  H   LIG    1       27.894 -26.356   6.389  0.00  0.00    +0.150 HD
ATOM     19  C   LIG    1       27.301 -27.386   4.743  0.00  0.00    +0.327 C 
ATOM     20  O   LIG    1       28.410 -27.401   4.188  0.00  0.00    -0.280 OA
ENDBRANCH  16  17
BRANCH  16  21
ATOM     21  C   LIG    1       25.590 -27.933   7.518  0.00  0.00    +0.079 C 
BRANCH  21  22
ATOM     22  C   LIG    1       24.909 -29.151   6.929  0.00  0.00    -0.019 C 
ATOM     23  C   LIG    1       25.003 -30.531   7.336  0.00  0.00    +0.003 C 
ATOM     24  C   LIG    1       24.023 -31.239   6.636  0.00  0.00    +0.047 C 
ATOM     25  C   LIG    1       23.705 -32.578   6.903  0.00  0.00    +0.026 C 
ATOM     26  C   LIG    1       24.383 -33.209   7.947  0.00  0.00    +0.002 C 
ATOM     27  C   LIG    1       25.421 -32.559   8.609  0.00  0.00    +0.001 C 
ATOM     28  N   LIG    1       23.498 -30.380   5.701  0.00  0.00    -0.360 NA
ATOM     29  H   LIG    1       22.800 -30.636   5.017  0.00  0.00    +0.165 HD
ATOM     30  C   LIG    1       25.782 -31.245   8.272  0.00  0.00    +0.010 C 
ATOM     31  C   LIG    1       24.007 -29.122   5.880  0.00  0.00    +0.087 C 
ENDBRANCH  21  22
ENDBRANCH  16  21
ENDBRANCH  13  16
ENDBRANCH   1  12
BRANCH   1  32
ATOM     32  C   LIG    1       26.623 -22.523   7.659  0.00  0.00    +0.069 C 
BRANCH  32  33
ATOM     33  C   LIG    1       27.244 -21.404   6.855  0.00  0.00    -0.020 C 
ATOM     34  C   LIG    1       28.524 -20.792   7.065  0.00  0.00    +0.003 C 
ATOM     35  C   LIG    1       28.679 -19.783   6.112  0.00  0.00    +0.047 C 
ATOM     36  C   LIG    1       29.822 -18.978   6.034  0.00  0.00    +0.026 C 
ATOM     37  C   LIG    1       30.847 -19.217   6.953  0.00  0.00    +0.002 C 
ATOM     38  C   LIG    1       30.730 -20.223   7.909  0.00  0.00    +0.001 C 
ATOM     39  N   LIG    1       27.544 -19.784   5.338  0.00  0.00    -0.360 NA
ATOM     40  H   LIG    1       27.386 -19.166   4.554  0.00  0.00    +0.165 HD
ATOM     41  C   LIG    1       29.575 -21.010   7.979  0.00  0.00    +0.010 C 
ATOM     42  C   LIG    1       26.677 -20.751   5.774  0.00  0.00    +0.087 C 
ENDBRANCH  32  33
ENDBRANCH   1  32
TORSDOF 10
ENDMDL
MODEL 5
REMARK VINA RESULT:      -9.3      2.119      8.899
REMARK  Name = *****
REMARK                            x       y       z     vdW  Elec       q    Type
REMARK                         _______ _______ _______ _____ _____    ______ ____
ROOT
ATOM      1  C   LIG    1       26.390 -20.703   6.334  0.00  0.00    +0.163 C 
ENDROOT
BRANCH   1   3
ATOM      2  C   LIG    1       23.968 -20.292   5.769  0.00  0.00    +0.233 C 
ATOM      3  N   LIG    1       25.291 -20.410   5.383  0.00  0.00    -0.302 N 
ATOM      4  H   LIG    1       25.493 -20.351   4.391  0.00  0.00    +0.149 HD
ATOM      5  O   LIG    1       23.640 -20.334   6.954  0.00  0.00    -0.274 OA
BRANCH   2   7
ATOM      6  C   LIG    1       23.598 -20.343   3.229  0.00  0.00    +0.037 C 
ATOM      7  C   LIG    1       22.927 -20.160   4.601  0.00  0.00    +0.088 C 
ATOM      8  C   LIG    1       22.256 -18.781   4.648  0.00  0.00    +0.037 C 
BRANCH   7   9
ATOM      9  N   LIG    1       21.878 -21.194   4.763  0.00  0.00    -0.318 NA
ATOM     10  H   LIG    1       22.085 -21.728   5.611  0.00  0.00    +0.119 HD
ATOM     11  H   LIG    1       21.970 -21.873   4.004  0.00  0.00    +0.119 HD
ENDBRANCH   7   9
ENDBRANCH   2   7
ENDBRANCH   1   3
BRANCH   1  12
ATOM     12  C   LIG    1       26.081 -22.030   7.075  0.00  0.00    +0.235 C 
ATOM     13  N   LIG    1       25.644 -23.064   6.269  0.00  0.00    -0.295 N 
ATOM     14  H   LIG    1       25.152 -22.786   5.424  0.00  0.00    +0.150 HD
ATOM     15  O   LIG    1       26.171 -22.173   8.293  0.00  0.00    -0.274 OA
BRANCH  13  16
ATOM     16  C   LIG    1       25.306 -24.339   6.865  0.00  0.00    +0.164 C 
BRANCH  16  17
ATOM     17  N   LIG    1       23.904 -24.547   6.641  0.00  0.00    -0.299 N 
ATOM     18  H   LIG    1       23.538 -25.463   6.396  0.00  0.00    +0.150 HD
ATOM     19  C   LIG    1       23.006 -23.566   6.882  0.00  0.00    +0.327 C 
ATOM     20  O   LIG    1       21.790 -23.716   6.696  0.00  0.00    -0.280 OA
ENDBRANCH  16  17
BRANCH  16  21
ATOM     21  C   LIG    1       26.183 -25.507   6.324  0.00  0.00    +0.079 C 
BRANCH  21  22
ATOM     22  C   LIG    1       25.961 -26.843   7.003  0.00  0.00    -0.019 C 
ATOM     23  C   LIG    1       25.160 -27.960   6.572  0.00  0.00    +0.003 C 
ATOM     24  C   LIG    1       25.454 -29.034   7.416  0.00  0.00    +0.047 C 
ATOM     25  C   LIG    1       24.990 -30.338   7.190  0.00  0.00    +0.026 C 
ATOM     26  C   LIG    1       24.230 -30.565   6.042  0.00  0.00    +0.002 C 
ATOM     27  C   LIG    1       23.850 -29.503   5.225  0.00  0.00    +0.001 C 
ATOM     28  N   LIG    1       26.235 -28.542   8.433  0.00  0.00    -0.360 NA
ATOM     29  H   LIG    1       26.560 -29.087   9.220  0.00  0.00    +0.165 HD
ATOM     30  C   LIG    1       24.255 -28.190   5.513  0.00  0.00    +0.010 C 
ATOM     31  C   LIG    1       26.561 -27.236   8.186  0.00  0.00    +0.087 C 
ENDBRANCH  21  22
ENDBRANCH  16  21
ENDBRANCH  13  16
ENDBRANCH   1  12
BRANCH   1  32
ATOM     32  C   LIG    1       27.755 -20.787   5.616  0.00  0.00    +0.069 C 
BRANCH  32  33
ATOM     33  C   LIG    1       28.848 -19.916   6.191  0.00  0.00    -0.020 C 
ATOM     34  C   LIG    1       29.709 -20.222   7.297  0.00  0.00    +0.003 C 
ATOM     35  C   LIG    1       30.548 -19.124   7.504  0.00  0.00    +0.047 C 
ATOM     36  C   LIG    1       31.516 -19.086   8.515  0.00  0.00    +0.026 C 
ATOM     37  C   LIG    1       31.641 -20.210   9.335  0.00  0.00    +0.002 C 
ATOM     38  C   LIG    1       30.829 -21.325   9.148  0.00  0.00    +0.001 C 
ATOM     39  N   LIG    1       30.223 -18.186   6.554  0.00  0.00    -0.360 NA
ATOM     40  H   LIG    1       30.683 -17.292   6.454  0.00  0.00    +0.165 HD
ATOM     41  C   LIG    1       29.859 -21.341   8.140  0.00  0.00    +0.010 C 
ATOM     42  C   LIG    1       29.206 -18.650   5.762  0.00  0.00    +0.087 C 
ENDBRANCH  32  33
ENDBRANCH   1  32
TORSDOF 10
ENDMDL
MODEL 6
REMARK VINA RESULT:      -9.2      2.879      8.742
REMARK  Name = *****
REMARK                            x       y       z     vdW  Elec       q    Type
REMARK                         _______ _______ _______ _____ _____    ______ ____
ROOT
ATOM      1  C   LIG    1       24.894 -23.532   6.219  0.00  0.00    +0.163 C 
ENDROOT
BRANCH   1   3
ATOM      2  C   LIG    1       24.047 -21.337   5.314  0.00  0.00    +0.233 C 
ATOM      3  N   LIG    1       24.940 -22.392   5.272  0.00  0.00    -0.302 N 
ATOM      4  H   LIG    1       25.615 -22.402   4.514  0.00  0.00    +0.149 HD
ATOM      5  O   LIG    1       23.210 -21.241   6.210  0.00  0.00    -0.274 OA
BRANCH   2   7
ATOM      6  C   LIG    1       25.505 -19.610   4.096  0.00  0.00    +0.037 C 
ATOM      7  C   LIG    1       24.140 -20.319   4.122  0.00  0.00    +0.088 C 
ATOM      8  C   LIG    1       23.033 -19.264   4.245  0.00  0.00    +0.037 C 
BRANCH   7   9
ATOM      9  N   LIG    1       23.952 -21.044   2.844  0.00  0.00    -0.318 NA
ATOM     10  H   LIG    1       23.194 -20.591   2.328  0.00  0.00    +0.119 HD
ATOM     11  H   LIG    1       23.597 -21.981   3.050  0.00  0.00    +0.119 HD
ENDBRANCH   7   9
ENDBRANCH   2   7
ENDBRANCH   1   3
BRANCH   1  12
ATOM     12  C   LIG    1       24.820 -24.858   5.416  0.00  0.00    +0.235 C 
ATOM     13  N   LIG    1       24.792 -26.007   6.183  0.00  0.00    -0.295 N 
ATOM     14  H   LIG    1       25.252 -25.944   7.088  0.00  0.00    +0.150 HD
ATOM     15  O   LIG    1       24.824 -24.917   4.189  0.00  0.00    -0.274 OA
BRANCH  13  16
ATOM     16  C   LIG    1       24.747 -27.299   5.531  0.00  0.00    +0.164 C 
BRANCH  16  17
ATOM     17  N   LIG    1       26.100 -27.659   5.223  0.00  0.00    -0.299 N 
ATOM     18  H   LIG    1       26.319 -28.525   4.737  0.00  0.00    +0.150 HD
ATOM     19  C   LIG    1       27.119 -26.799   5.444  0.00  0.00    +0.327 C 
ATOM     20  O   LIG    1       28.299 -27.084   5.188  0.00  0.00    -0.280 OA
ENDBRANCH  16  17
BRANCH  16  21
ATOM     21  C   LIG    1       24.014 -28.376   6.384  0.00  0.00    +0.079 C 
BRANCH  21  22
ATOM     22  C   LIG    1       24.913 -29.439   6.984  0.00  0.00    -0.019 C 
ATOM     23  C   LIG    1       25.797 -29.347   8.118  0.00  0.00    +0.003 C 
ATOM     24  C   LIG    1       26.232 -30.642   8.412  0.00  0.00    +0.047 C 
ATOM     25  C   LIG    1       26.970 -30.962   9.561  0.00  0.00    +0.026 C 
ATOM     26  C   LIG    1       27.242 -29.933  10.463  0.00  0.00    +0.002 C 
ATOM     27  C   LIG    1       26.895 -28.619  10.162  0.00  0.00    +0.001 C 
ATOM     28  N   LIG    1       25.804 -31.451   7.388  0.00  0.00    -0.360 NA
ATOM     29  H   LIG    1       26.017 -32.436   7.309  0.00  0.00    +0.165 HD
ATOM     30  C   LIG    1       26.229 -28.304   8.966  0.00  0.00    +0.010 C 
ATOM     31  C   LIG    1       24.997 -30.746   6.537  0.00  0.00    +0.087 C 
ENDBRANCH  21  22
ENDBRANCH  16  21
ENDBRANCH  13  16
ENDBRANCH   1  12
BRANCH   1  32
ATOM     32  C   LIG    1       26.116 -23.537   7.163  0.00  0.00    +0.069 C 
BRANCH  32  33
ATOM     33  C   LIG    1       26.444 -22.212   7.811  0.00  0.00    -0.020 C 
ATOM     34  C   LIG    1       27.580 -21.376   7.551  0.00  0.00    +0.003 C 
ATOM     35  C   LIG    1       27.499 -20.266   8.394  0.00  0.00    +0.047 C 
ATOM     36  C   LIG    1       28.457 -19.244   8.402  0.00  0.00    +0.026 C 
ATOM     37  C   LIG    1       29.528 -19.354   7.512  0.00  0.00    +0.002 C 
ATOM     38  C   LIG    1       29.633 -20.441   6.650  0.00  0.00    +0.001 C 
ATOM     39  N   LIG    1       26.351 -20.408   9.135  0.00  0.00    -0.360 NA
ATOM     40  H   LIG    1       26.027 -19.739   9.820  0.00  0.00    +0.165 HD
ATOM     41  C   LIG    1       28.672 -21.458   6.664  0.00  0.00    +0.010 C 
ATOM     42  C   LIG    1       25.710 -21.570   8.795  0.00  0.00    +0.087 C 
ENDBRANCH  32  33
ENDBRANCH   1  32
TORSDOF 10
ENDMDL
MODEL 7
REMARK VINA RESULT:      -9.1      5.408      9.725
REMARK  Name = *****
REMARK                            x       y       z     vdW  Elec       q    Type
REMARK                         _______ _______ _______ _____ _____    ______ ____
ROOT
ATOM      1  C   LIG    1       25.700 -28.216   8.123  0.00  0.00    +0.163 C 
ENDROOT
BRANCH   1   3
ATOM      2  C   LIG    1       24.521 -30.292   7.312  0.00  0.00    +0.233 C 
ATOM      3  N   LIG    1       25.569 -29.393   7.230  0.00  0.00    -0.302 N 
ATOM      4  H   LIG    1       26.306 -29.596   6.563  0.00  0.00    +0.149 HD
ATOM      5  O   LIG    1       23.579 -30.110   8.082  0.00  0.00    -0.274 OA
BRANCH   2   7
ATOM      6  C   LIG    1       24.913 -32.828   7.252  0.00  0.00    +0.037 C 
ATOM      7  C   LIG    1       24.647 -31.569   6.409  0.00  0.00    +0.088 C 
ATOM      8  C   LIG    1       25.793 -31.391   5.404  0.00  0.00    +0.037 C 
BRANCH   7   9
ATOM      9  N   LIG    1       23.389 -31.757   5.650  0.00  0.00    -0.318 NA
ATOM     10  H   LIG    1       23.619 -32.183   4.749  0.00  0.00    +0.119 HD
ATOM     11  H   LIG    1       23.012 -30.837   5.409  0.00  0.00    +0.119 HD
ENDBRANCH   7   9
ENDBRANCH   2   7
ENDBRANCH   1   3
BRANCH   1  12
ATOM     12  C   LIG    1       26.569 -28.602   9.349  0.00  0.00    +0.235 C 
ATOM     13  N   LIG    1       26.317 -27.878  10.498  0.00  0.00    -0.295 N 
ATOM     14  H   LIG    1       25.966 -26.934  10.356  0.00  0.00    +0.150 HD
ATOM     15  O   LIG    1       27.452 -29.457   9.322  0.00  0.00    -0.274 OA
BRANCH  13  16
ATOM     16  C   LIG    1       27.089 -28.143  11.693  0.00  0.00    +0.164 C 
BRANCH  16  17
ATOM     17  N   LIG    1       27.264 -26.888  12.365  0.00  0.00    -0.299 N 
ATOM     18  H   LIG    1       27.145 -26.005  11.876  0.00  0.00    +0.150 HD
ATOM     19  C   LIG    1       27.457 -26.834  13.702  0.00  0.00    +0.327 C 
ATOM     20  O   LIG    1       27.612 -25.765  14.310  0.00  0.00    -0.280 OA
ENDBRANCH  16  17
BRANCH  16  21
ATOM     21  C   LIG    1       26.438 -29.228  12.600  0.00  0.00    +0.079 C 
BRANCH  21  22
ATOM     22  C   LIG    1       24.928 -29.309  12.519  0.00  0.00    -0.019 C 
ATOM     23  C   LIG    1       23.940 -28.368  12.985  0.00  0.00    +0.003 C 
ATOM     24  C   LIG    1       22.703 -28.779  12.482  0.00  0.00    +0.047 C 
ATOM     25  C   LIG    1       21.536 -28.008  12.588  0.00  0.00    +0.026 C 
ATOM     26  C   LIG    1       21.641 -26.756  13.194  0.00  0.00    +0.002 C 
ATOM     27  C   LIG    1       22.838 -26.351  13.778  0.00  0.00    +0.001 C 
ATOM     28  N   LIG    1       22.892 -30.015  11.915  0.00  0.00    -0.360 NA
ATOM     29  H   LIG    1       22.156 -30.579  11.512  0.00  0.00    +0.165 HD
ATOM     30  C   LIG    1       23.976 -27.173  13.735  0.00  0.00    +0.010 C 
ATOM     31  C   LIG    1       24.223 -30.334  11.914  0.00  0.00    +0.087 C 
ENDBRANCH  21  22
ENDBRANCH  16  21
ENDBRANCH  13  16
ENDBRANCH   1  12
BRANCH   1  32
ATOM     32  C   LIG    1       26.311 -27.007   7.383  0.00  0.00    +0.069 C 
BRANCH  32  33
ATOM     33  C   LIG    1       25.317 -26.036   6.789  0.00  0.00    -0.020 C 
ATOM     34  C   LIG    1       25.281 -24.613   6.966  0.00  0.00    +0.003 C 
ATOM     35  C   LIG    1       24.180 -24.121   6.263  0.00  0.00    +0.047 C 
ATOM     36  C   LIG    1       23.846 -22.761   6.226  0.00  0.00    +0.026 C 
ATOM     37  C   LIG    1       24.670 -21.873   6.922  0.00  0.00    +0.002 C 
ATOM     38  C   LIG    1       25.782 -22.329   7.623  0.00  0.00    +0.001 C 
ATOM     39  N   LIG    1       23.570 -25.197   5.666  0.00  0.00    -0.360 NA
ATOM     40  H   LIG    1       22.752 -25.135   5.075  0.00  0.00    +0.165 HD
ATOM     41  C   LIG    1       26.093 -23.693   7.658  0.00  0.00    +0.010 C 
ATOM     42  C   LIG    1       24.243 -26.350   5.974  0.00  0.00    +0.087 C 
ENDBRANCH  32  33
ENDBRANCH   1  32
TORSDOF 10
ENDMDL
MODEL 8
REMARK VINA RESULT:      -9.1      4.719      8.241
REMARK  Name = *****
REMARK                            x       y       z     vdW  Elec       q    Type
REMARK                         _______ _______ _______ _____ _____    ______ ____
ROOT
ATOM      1  C   LIG    1       24.810 -29.951   8.561  0.00  0.00    +0.163 C 
ENDROOT
BRANCH   1   3
ATOM      2  C   LIG    1       23.162 -30.243  10.445  0.00  0.00    +0.233 C 
ATOM      3  N   LIG    1       24.447 -29.997   9.997  0.00  0.00    -0.302 N 
ATOM      4  H   LIG    1       25.150 -29.779  10.696  0.00  0.00    +0.149 HD
ATOM      5  O   LIG    1       22.255 -30.532   9.665  0.00  0.00    -0.274 OA
BRANCH   2   7
ATOM      6  C   LIG    1       21.458 -29.785  12.310  0.00  0.00    +0.037 C 
ATOM      7  C   LIG    1       22.934 -30.073  11.989  0.00  0.00    +0.088 C 
ATOM      8  C   LIG    1       23.795 -28.921  12.523  0.00  0.00    +0.037 C 
BRANCH   7   9
ATOM      9  N   LIG    1       23.341 -31.318  12.682  0.00  0.00    -0.318 NA
ATOM     10  H   LIG    1       22.985 -32.113  12.146  0.00  0.00    +0.119 HD
ATOM     11  H   LIG    1       22.845 -31.371  13.576  0.00  0.00    +0.119 HD
ENDBRANCH   7   9
ENDBRANCH   2   7
ENDBRANCH   1   3
BRANCH   1  12
ATOM     12  C   LIG    1       25.456 -28.576   8.243  0.00  0.00    +0.235 C 
ATOM     13  N   LIG    1       24.849 -27.864   7.226  0.00  0.00    -0.295 N 
ATOM     14  H   LIG    1       24.382 -28.422   6.516  0.00  0.00    +0.150 HD
ATOM     15  O   LIG    1       26.457 -28.142   8.809  0.00  0.00    -0.274 OA
BRANCH  13  16
ATOM     16  C   LIG    1       25.389 -26.579   6.835  0.00  0.00    +0.164 C 
BRANCH  16  17
ATOM     17  N   LIG    1       26.624 -26.834   6.152  0.00  0.00    -0.299 N 
ATOM     18  H   LIG    1       27.509 -26.862   6.652  0.00  0.00    +0.150 HD
ATOM     19  C   LIG    1       26.640 -27.182   4.846  0.00  0.00    +0.327 C 
ATOM     20  O   LIG    1       27.692 -27.407   4.229  0.00  0.00    -0.280 OA
ENDBRANCH  16  17
BRANCH  16  21
ATOM     21  C   LIG    1       24.389 -25.743   5.982  0.00  0.00    +0.079 C 
BRANCH  21  22
ATOM     22  C   LIG    1       24.056 -24.376   6.543  0.00  0.00    -0.019 C 
ATOM     23  C   LIG    1       24.947 -23.321   6.956  0.00  0.00    +0.003 C 
ATOM     24  C   LIG    1       24.168 -22.184   7.185  0.00  0.00    +0.047 C 
ATOM     25  C   LIG    1       24.713 -20.916   7.435  0.00  0.00    +0.026 C 
ATOM     26  C   LIG    1       26.103 -20.794   7.412  0.00  0.00    +0.002 C 
ATOM     27  C   LIG    1       26.909 -21.920   7.269  0.00  0.00    +0.001 C 
ATOM     28  N   LIG    1       22.854 -22.578   7.117  0.00  0.00    -0.360 NA
ATOM     29  H   LIG    1       22.064 -21.972   7.292  0.00  0.00    +0.165 HD
ATOM     30  C   LIG    1       26.345 -23.195   7.103  0.00  0.00    +0.010 C 
ATOM     31  C   LIG    1       22.774 -23.883   6.715  0.00  0.00    +0.087 C 
ENDBRANCH  21  22
ENDBRANCH  16  21
ENDBRANCH  13  16
ENDBRANCH   1  12
BRANCH   1  32
ATOM     32  C   LIG    1       25.766 -31.101   8.179  0.00  0.00    +0.069 C 
BRANCH  32  33
ATOM     33  C   LIG    1       25.695 -31.558   6.741  0.00  0.00    -0.020 C 
ATOM     34  C   LIG    1       26.658 -32.352   6.033  0.00  0.00    +0.003 C 
ATOM     35  C   LIG    1       26.204 -32.510   4.722  0.00  0.00    +0.047 C 
ATOM     36  C   LIG    1       26.911 -33.233   3.753  0.00  0.00    +0.026 C 
ATOM     37  C   LIG    1       28.117 -33.824   4.139  0.00  0.00    +0.002 C 
ATOM     38  C   LIG    1       28.592 -33.697   5.441  0.00  0.00    +0.001 C 
ATOM     39  N   LIG    1       25.003 -31.850   4.631  0.00  0.00    -0.360 NA
ATOM     40  H   LIG    1       24.434 -31.811   3.796  0.00  0.00    +0.165 HD
ATOM     41  C   LIG    1       27.877 -32.960   6.392  0.00  0.00    +0.010 C 
ATOM     42  C   LIG    1       24.687 -31.276   5.834  0.00  0.00    +0.087 C 
ENDBRANCH  32  33
ENDBRANCH   1  32
TORSDOF 10
ENDMDL
MODEL 9
REMARK VINA RESULT:      -8.9      1.895      5.308
REMARK  Name = *****
REMARK                            x       y       z     vdW  Elec       q    Type
REMARK                         _______ _______ _______ _____ _____    ______ ____
ROOT
ATOM      1  C   LIG    1       25.020 -22.812   7.731  0.00  0.00    +0.163 C 
ENDROOT
BRANCH   1   3
ATOM      2  C   LIG    1       24.837 -25.111   6.711  0.00  0.00    +0.233 C 
ATOM      3  N   LIG    1       25.603 -24.067   7.198  0.00  0.00    -0.302 N 
ATOM      4  H   LIG    1       26.607 -24.207   7.241  0.00  0.00    +0.149 HD
ATOM      5  O   LIG    1       23.615 -25.015   6.608  0.00  0.00    -0.274 OA
BRANCH   2   7
ATOM      6  C   LIG    1       24.726 -27.428   5.613  0.00  0.00    +0.037 C 
ATOM      7  C   LIG    1       25.621 -26.424   6.359  0.00  0.00    +0.088 C 
ATOM      8  C   LIG    1       26.147 -27.082   7.642  0.00  0.00    +0.037 C 
BRANCH   7   9
ATOM      9  N   LIG    1       26.780 -26.086   5.501  0.00  0.00    -0.318 NA
ATOM     10  H   LIG    1       27.265 -25.288   5.919  0.00  0.00    +0.119 HD
ATOM     11  H   LIG    1       26.432 -25.733   4.606  0.00  0.00    +0.119 HD
ENDBRANCH   7   9
ENDBRANCH   2   7
ENDBRANCH   1   3
BRANCH   1  12
ATOM     12  C   LIG    1       26.079 -21.681   7.641  0.00  0.00    +0.235 C 
ATOM     13  N   LIG    1       27.234 -22.011   6.957  0.00  0.00    -0.295 N 
ATOM     14  H   LIG    1       27.489 -22.995   6.975  0.00  0.00    +0.150 HD
ATOM     15  O   LIG    1       25.947 -20.576   8.162  0.00  0.00    -0.274 OA
BRANCH  13  16
ATOM     16  C   LIG    1       28.295 -21.035   6.837  0.00  0.00    +0.164 C 
BRANCH  16  17
ATOM     17  N   LIG    1       27.751 -19.912   6.129  0.00  0.00    -0.299 N 
ATOM     18  H   LIG    1       26.804 -19.585   6.303  0.00  0.00    +0.150 HD
ATOM     19  C   LIG    1       28.524 -19.163   5.310  0.00  0.00    +0.327 C 
ATOM     20  O   LIG    1       28.081 -18.188   4.685  0.00  0.00    -0.280 OA
ENDBRANCH  16  17
BRANCH  16  21
ATOM     21  C   LIG    1       28.909 -20.642   8.213  0.00  0.00    +0.079 C 
BRANCH  21  22
ATOM     22  C   LIG    1       30.071 -19.672   8.143  0.00  0.00    -0.019 C 
ATOM     23  C   LIG    1       30.371 -18.550   8.996  0.00  0.00    +0.003 C 
ATOM     24  C   LIG    1       31.656 -18.110   8.667  0.00  0.00    +0.047 C 
ATOM     25  C   LIG    1       32.350 -17.143   9.409  0.00  0.00    +0.026 C 
ATOM     26  C   LIG    1       31.728 -16.633  10.549  0.00  0.00    +0.002 C 
ATOM     27  C   LIG    1       30.417 -16.988  10.857  0.00  0.00    +0.001 C 
ATOM     28  N   LIG    1       32.037 -18.792   7.538  0.00  0.00    -0.360 NA
ATOM     29  H   LIG    1       32.906 -18.642   7.043  0.00  0.00    +0.165 HD
ATOM     30  C   LIG    1       29.707 -17.896  10.055  0.00  0.00    +0.010 C 
ATOM     31  C   LIG    1       31.104 -19.744   7.226  0.00  0.00    +0.087 C 
ENDBRANCH  21  22
ENDBRANCH  16  21
ENDBRANCH  13  16
ENDBRANCH   1  12
BRANCH   1  32
ATOM     32  C   LIG    1       23.736 -22.415   6.972  0.00  0.00    +0.069 C 
BRANCH  32  33
ATOM     33  C   LIG    1       23.949 -21.730   5.642  0.00  0.00    -0.020 C 
ATOM     34  C   LIG    1       23.403 -20.475   5.215  0.00  0.00    +0.003 C 
ATOM     35  C   LIG    1       23.834 -20.241   3.908  0.00  0.00    +0.047 C 
ATOM     36  C   LIG    1       23.479 -19.098   3.181  0.00  0.00    +0.026 C 
ATOM     37  C   LIG    1       22.665 -18.155   3.814  0.00  0.00    +0.002 C 
ATOM     38  C   LIG    1       22.227 -18.351   5.121  0.00  0.00    +0.001 C 
ATOM     39  N   LIG    1       24.625 -21.306   3.550  0.00  0.00    -0.360 NA
ATOM     40  H   LIG    1       25.091 -21.397   2.657  0.00  0.00    +0.165 HD
ATOM     41  C   LIG    1       22.582 -19.506   5.827  0.00  0.00    +0.010 C 
ATOM     42  C   LIG    1       24.702 -22.204   4.581  0.00  0.00    +0.087 C 
ENDBRANCH  32  33
ENDBRANCH   1  32
TORSDOF 10
ENDMDL
