MODEL 1
REMARK VINA RESULT:      -7.7      0.000      0.000
REMARK  Name = *****
REMARK                            x       y       z     vdW  Elec       q    Type
REMARK                         _______ _______ _______ _____ _____    ______ ____
ROOT
ATOM      1  N   LIG    1       25.181 -20.540   4.963  0.00  0.00    -0.337 NA
ATOM      2  C   LIG    1       25.651 -19.331   4.466  0.00  0.00    +0.050 C 
ATOM      3  C   LIG    1       26.954 -19.161   4.948  0.00  0.00    +0.008 C 
ATOM      4  C   LIG    1       27.681 -18.030   4.493  0.00  0.00    +0.010 C 
ATOM      5  C   LIG    1       27.117 -17.125   3.588  0.00  0.00    +0.001 C 
ATOM      6  C   LIG    1       25.806 -17.285   3.177  0.00  0.00    +0.002 C 
ATOM      7  C   LIG    1       27.225 -20.234   5.877  0.00  0.00    +0.015 C 
ATOM      8  C   LIG    1       25.052 -18.372   3.623  0.00  0.00    +0.026 C 
ATOM      9  C   LIG    1       26.117 -21.083   5.842  0.00  0.00    +0.051 C 
ENDROOT
BRANCH   7  10
ATOM     10  C   LIG    1       28.418 -20.443   6.722  0.00  0.00    -0.015 C 
ATOM     11  C   LIG    1       28.460 -21.438   7.716  0.00  0.00    +0.011 C 
ATOM     12  C   LIG    1       29.601 -21.631   8.504  0.00  0.00    +0.039 C 
ATOM     13  C   LIG    1       30.698 -20.799   8.339  0.00  0.00    +0.123 C 
ATOM     14  F   LIG    1       31.790 -20.979   9.095  0.00  0.00    -0.205 F 
ATOM     15  C   LIG    1       30.678 -19.785   7.395  0.00  0.00    +0.039 C 
ATOM     16  C   LIG    1       29.552 -19.625   6.578  0.00  0.00    +0.011 C 
ENDBRANCH   7  10
BRANCH   1  18
ATOM     17  C   LIG    1       22.714 -20.459   5.241  0.00  0.00    +0.030 C 
ATOM     18  C   LIG    1       23.902 -21.168   4.593  0.00  0.00    +0.082 C 
ATOM     19  C   LIG    1       23.705 -21.364   3.085  0.00  0.00    +0.030 C 
ENDBRANCH   1  18
BRANCH   9  20
ATOM     20  C   LIG    1       25.802 -22.295   6.525  0.00  0.00    +0.025 C 
ATOM     21  C   LIG    1       25.311 -23.356   5.860  0.00  0.00    +0.006 C 
BRANCH  21  22
ATOM     22  C   LIG    1       24.955 -24.666   6.512  0.00  0.00    +0.140 C 
BRANCH  22  23
ATOM     23  O   LIG    1       25.943 -24.963   7.497  0.00  0.00    -0.388 OA
ATOM     24  H   LIG    1       26.812 -24.917   7.056  0.00  0.00    +0.210 HD
ENDBRANCH  22  23
BRANCH  22  25
ATOM     25  C   LIG    1       24.862 -25.828   5.509  0.00  0.00    +0.067 C 
BRANCH  25  26
ATOM     26  C   LIG    1       25.775 -27.021   5.864  0.00  0.00    +0.128 C 
BRANCH  26  27
ATOM     27  O   LIG    1       27.103 -26.822   5.374  0.00  0.00    -0.391 OA
ATOM     28  H   LIG    1       27.337 -25.878   5.526  0.00  0.00    +0.210 HD
ENDBRANCH  26  27
BRANCH  26  29
ATOM     29  C   LIG    1       25.299 -28.343   5.260  0.00  0.00    +0.151 C 
BRANCH  29  30
ATOM     30  C   LIG    1       24.220 -28.997   6.091  0.00  0.00    +0.307 C 
ATOM     31  O   LIG    1       24.294 -29.178   7.277  0.00  0.00    -0.251 OA
BRANCH  30  32
ATOM     32  O   LIG    1       23.162 -29.402   5.360  0.00  0.00    -0.481 OA
ATOM     33  H   LIG    1       23.295 -29.356   4.376  0.00  0.00    +0.295 HD
ENDBRANCH  30  32
ENDBRANCH  29  30
ENDBRANCH  26  29
ENDBRANCH  25  26
ENDBRANCH  22  25
ENDBRANCH  21  22
ENDBRANCH   9  20
TORSDOF 11
ENDMDL
MODEL 2
REMARK VINA RESULT:      -7.5      9.211     11.484
REMARK  Name = *****
REMARK                            x       y       z     vdW  Elec       q    Type
REMARK                         _______ _______ _______ _____ _____    ______ ____
ROOT
ATOM      1  N   LIG    1       25.145 -28.360  12.617  0.00  0.00    -0.337 NA
ATOM      2  C   LIG    1       25.586 -27.110  13.031  0.00  0.00    +0.050 C 
ATOM      3  C   LIG    1       24.502 -26.465  13.637  0.00  0.00    +0.008 C 
ATOM      4  C   LIG    1       24.738 -25.196  14.228  0.00  0.00    +0.010 C 
ATOM      5  C   LIG    1       26.011 -24.618  14.213  0.00  0.00    +0.001 C 
ATOM      6  C   LIG    1       27.049 -25.250  13.552  0.00  0.00    +0.002 C 
ATOM      7  C   LIG    1       23.336 -27.299  13.457  0.00  0.00    +0.015 C 
ATOM      8  C   LIG    1       26.848 -26.487  12.939  0.00  0.00    +0.026 C 
ATOM      9  C   LIG    1       23.775 -28.476  12.846  0.00  0.00    +0.051 C 
ENDROOT
BRANCH   7  10
ATOM     10  C   LIG    1       21.934 -27.016  13.827  0.00  0.00    -0.015 C 
ATOM     11  C   LIG    1       21.494 -27.060  15.162  0.00  0.00    +0.011 C 
ATOM     12  C   LIG    1       20.163 -26.782  15.499  0.00  0.00    +0.039 C 
ATOM     13  C   LIG    1       19.246 -26.501  14.498  0.00  0.00    +0.123 C 
ATOM     14  F   LIG    1       17.972 -26.237  14.818  0.00  0.00    -0.205 F 
ATOM     15  C   LIG    1       19.637 -26.484  13.169  0.00  0.00    +0.039 C 
ATOM     16  C   LIG    1       20.977 -26.719  12.841  0.00  0.00    +0.011 C 
ENDBRANCH   7  10
BRANCH   1  18
ATOM     17  C   LIG    1       26.544 -29.030  10.676  0.00  0.00    +0.030 C 
ATOM     18  C   LIG    1       26.002 -29.416  12.051  0.00  0.00    +0.082 C 
ATOM     19  C   LIG    1       27.108 -29.906  12.992  0.00  0.00    +0.030 C 
ENDBRANCH   1  18
BRANCH   9  20
ATOM     20  C   LIG    1       23.100 -29.660  12.426  0.00  0.00    +0.025 C 
ATOM     21  C   LIG    1       22.423 -29.694  11.265  0.00  0.00    +0.006 C 
BRANCH  21  22
ATOM     22  C   LIG    1       21.686 -30.906  10.757  0.00  0.00    +0.140 C 
BRANCH  22  23
ATOM     23  O   LIG    1       22.245 -31.280   9.500  0.00  0.00    -0.388 OA
ATOM     24  H   LIG    1       21.802 -30.743   8.817  0.00  0.00    +0.210 HD
ENDBRANCH  22  23
BRANCH  22  25
ATOM     25  C   LIG    1       20.175 -30.664  10.598  0.00  0.00    +0.067 C 
BRANCH  25  26
ATOM     26  C   LIG    1       19.340 -31.195  11.783  0.00  0.00    +0.128 C 
BRANCH  26  27
ATOM     27  O   LIG    1       17.945 -31.211  11.470  0.00  0.00    -0.391 OA
ATOM     28  H   LIG    1       17.472 -31.601  12.241  0.00  0.00    +0.210 HD
ENDBRANCH  26  27
BRANCH  26  29
ATOM     29  C   LIG    1       19.476 -30.341  13.044  0.00  0.00    +0.151 C 
BRANCH  29  30
ATOM     30  C   LIG    1       18.216 -30.343  13.877  0.00  0.00    +0.307 C 
ATOM     31  O   LIG    1       17.912 -31.217  14.644  0.00  0.00    -0.251 OA
BRANCH  30  32
ATOM     32  O   LIG    1       17.427 -29.274  13.647  0.00  0.00    -0.481 OA
ATOM     33  H   LIG    1       17.575 -28.509  14.264  0.00  0.00    +0.295 HD
ENDBRANCH  30  32
ENDBRANCH  29  30
ENDBRANCH  26  29
ENDBRANCH  25  26
ENDBRANCH  22  25
ENDBRANCH  21  22
ENDBRANCH   9  20
TORSDOF 11
ENDMDL
MODEL 3
REMARK VINA RESULT:      -7.4      6.055     10.192
REMARK  Name = *****
REMARK                            x       y       z     vdW  Elec       q    Type
REMARK                         _______ _______ _______ _____ _____    ______ ____
ROOT
ATOM      1  N   LIG    1       25.569 -31.120   8.423  0.00  0.00    -0.337 NA
ATOM      2  C   LIG    1       25.418 -31.620   7.137  0.00  0.00    +0.050 C 
ATOM      3  C   LIG    1       25.417 -30.526   6.263  0.00  0.00    +0.008 C 
ATOM      4  C   LIG    1       25.368 -30.798   4.870  0.00  0.00    +0.010 C 
ATOM      5  C   LIG    1       25.332 -32.111   4.391  0.00  0.00    +0.001 C 
ATOM      6  C   LIG    1       25.271 -33.169   5.280  0.00  0.00    +0.002 C 
ATOM      7  C   LIG    1       25.428 -29.323   7.062  0.00  0.00    +0.015 C 
ATOM      8  C   LIG    1       25.293 -32.940   6.656  0.00  0.00    +0.026 C 
ATOM      9  C   LIG    1       25.549 -29.727   8.393  0.00  0.00    +0.051 C 
ENDROOT
BRANCH   7  10
ATOM     10  C   LIG    1       25.333 -27.918   6.614  0.00  0.00    -0.015 C 
ATOM     11  C   LIG    1       26.362 -26.989   6.856  0.00  0.00    +0.011 C 
ATOM     12  C   LIG    1       26.262 -25.663   6.420  0.00  0.00    +0.039 C 
ATOM     13  C   LIG    1       25.111 -25.237   5.775  0.00  0.00    +0.123 C 
ATOM     14  F   LIG    1       25.011 -23.967   5.359  0.00  0.00    -0.205 F 
ATOM     15  C   LIG    1       24.063 -26.116   5.552  0.00  0.00    +0.039 C 
ATOM     16  C   LIG    1       24.185 -27.452   5.951  0.00  0.00    +0.011 C 
ENDBRANCH   7  10
BRANCH   1  18
ATOM     17  C   LIG    1       24.427 -32.475  10.165  0.00  0.00    +0.030 C 
ATOM     18  C   LIG    1       25.755 -31.939   9.633  0.00  0.00    +0.082 C 
ATOM     19  C   LIG    1       26.811 -33.042   9.496  0.00  0.00    +0.030 C 
ENDBRANCH   1  18
BRANCH   9  20
ATOM     20  C   LIG    1       25.618 -29.006   9.622  0.00  0.00    +0.025 C 
ATOM     21  C   LIG    1       26.798 -28.584  10.110  0.00  0.00    +0.006 C 
BRANCH  21  22
ATOM     22  C   LIG    1       26.950 -27.821  11.399  0.00  0.00    +0.140 C 
BRANCH  22  23
ATOM     23  O   LIG    1       28.116 -28.293  12.069  0.00  0.00    -0.388 OA
ATOM     24  H   LIG    1       28.212 -29.238  11.850  0.00  0.00    +0.210 HD
ENDBRANCH  22  23
BRANCH  22  25
ATOM     25  C   LIG    1       25.730 -27.964  12.327  0.00  0.00    +0.067 C 
BRANCH  25  26
ATOM     26  C   LIG    1       25.598 -26.815  13.350  0.00  0.00    +0.128 C 
BRANCH  26  27
ATOM     27  O   LIG    1       24.234 -26.428  13.523  0.00  0.00    -0.391 OA
ATOM     28  H   LIG    1       24.199 -25.443  13.501  0.00  0.00    +0.210 HD
ENDBRANCH  26  27
BRANCH  26  29
ATOM     29  C   LIG    1       26.344 -25.548  12.930  0.00  0.00    +0.151 C 
BRANCH  29  30
ATOM     30  C   LIG    1       27.415 -25.158  13.921  0.00  0.00    +0.307 C 
ATOM     31  O   LIG    1       27.568 -24.046  14.351  0.00  0.00    -0.251 OA
BRANCH  30  32
ATOM     32  O   LIG    1       28.225 -26.183  14.255  0.00  0.00    -0.481 OA
ATOM     33  H   LIG    1       28.387 -26.283  15.231  0.00  0.00    +0.295 HD
ENDBRANCH  30  32
ENDBRANCH  29  30
ENDBRANCH  26  29
ENDBRANCH  25  26
ENDBRANCH  22  25
ENDBRANCH  21  22
ENDBRANCH   9  20
TORSDOF 11
ENDMDL
MODEL 4
REMARK VINA RESULT:      -7.3      8.078     10.101
REMARK  Name = *****
REMARK                            x       y       z     vdW  Elec       q    Type
REMARK                         _______ _______ _______ _____ _____    ______ ____
ROOT
ATOM      1  N   LIG    1       22.431 -29.524  12.494  0.00  0.00    -0.337 NA
ATOM      2  C   LIG    1       21.574 -28.733  13.247  0.00  0.00    +0.050 C 
ATOM      3  C   LIG    1       22.296 -27.603  13.649  0.00  0.00    +0.008 C 
ATOM      4  C   LIG    1       21.596 -26.593  14.360  0.00  0.00    +0.010 C 
ATOM      5  C   LIG    1       20.232 -26.720  14.638  0.00  0.00    +0.001 C 
ATOM      6  C   LIG    1       19.559 -27.876  14.283  0.00  0.00    +0.002 C 
ATOM      7  C   LIG    1       23.670 -27.790  13.241  0.00  0.00    +0.015 C 
ATOM      8  C   LIG    1       20.220 -28.900  13.605  0.00  0.00    +0.026 C 
ATOM      9  C   LIG    1       23.712 -28.976  12.506  0.00  0.00    +0.051 C 
ENDROOT
BRANCH   7  10
ATOM     10  C   LIG    1       24.839 -26.930  13.518  0.00  0.00    -0.015 C 
ATOM     11  C   LIG    1       24.736 -25.527  13.561  0.00  0.00    +0.011 C 
ATOM     12  C   LIG    1       25.851 -24.724  13.833  0.00  0.00    +0.039 C 
ATOM     13  C   LIG    1       27.092 -25.313  14.019  0.00  0.00    +0.123 C 
ATOM     14  F   LIG    1       28.161 -24.547  14.276  0.00  0.00    -0.205 F 
ATOM     15  C   LIG    1       27.236 -26.689  13.948  0.00  0.00    +0.039 C 
ATOM     16  C   LIG    1       26.112 -27.490  13.720  0.00  0.00    +0.011 C 
ENDBRANCH   7  10
BRANCH   1  18
ATOM     17  C   LIG    1       21.702 -31.889  12.717  0.00  0.00    +0.030 C 
ATOM     18  C   LIG    1       22.038 -30.742  11.765  0.00  0.00    +0.082 C 
ATOM     19  C   LIG    1       20.944 -30.526  10.713  0.00  0.00    +0.030 C 
ENDBRANCH   1  18
BRANCH   9  20
ATOM     20  C   LIG    1       24.770 -29.672  11.849  0.00  0.00    +0.025 C 
ATOM     21  C   LIG    1       25.226 -29.265  10.652  0.00  0.00    +0.006 C 
BRANCH  21  22
ATOM     22  C   LIG    1       26.336 -29.949   9.898  0.00  0.00    +0.140 C 
BRANCH  22  23
ATOM     23  O   LIG    1       27.290 -28.964   9.508  0.00  0.00    -0.388 OA
ATOM     24  H   LIG    1       27.380 -29.017   8.538  0.00  0.00    +0.210 HD
ENDBRANCH  22  23
BRANCH  22  25
ATOM     25  C   LIG    1       25.838 -30.705   8.654  0.00  0.00    +0.067 C 
BRANCH  25  26
ATOM     26  C   LIG    1       24.456 -30.230   8.159  0.00  0.00    +0.128 C 
BRANCH  26  27
ATOM     27  O   LIG    1       23.771 -31.269   7.456  0.00  0.00    -0.391 OA
ATOM     28  H   LIG    1       22.982 -30.866   7.024  0.00  0.00    +0.210 HD
ENDBRANCH  26  27
BRANCH  26  29
ATOM     29  C   LIG    1       24.537 -29.051   7.189  0.00  0.00    +0.151 C 
BRANCH  29  30
ATOM     30  C   LIG    1       24.400 -29.484   5.748  0.00  0.00    +0.307 C 
ATOM     31  O   LIG    1       25.311 -29.872   5.067  0.00  0.00    -0.251 OA
BRANCH  30  32
ATOM     32  O   LIG    1       23.144 -29.355   5.274  0.00  0.00    -0.481 OA
ATOM     33  H   LIG    1       22.430 -29.614   5.914  0.00  0.00    +0.295 HD
ENDBRANCH  30  32
ENDBRANCH  29  30
ENDBRANCH  26  29
ENDBRANCH  25  26
ENDBRANCH  22  25
ENDBRANCH  21  22
ENDBRANCH   9  20
TORSDOF 11
ENDMDL
MODEL 5
REMARK VINA RESULT:      -7.3      8.927     10.554
REMARK  Name = *****
REMARK                            x       y       z     vdW  Elec       q    Type
REMARK                         _______ _______ _______ _____ _____    ______ ____
ROOT
ATOM      1  N   LIG    1       25.967 -27.682  13.365  0.00  0.00    -0.337 NA
ATOM      2  C   LIG    1       26.188 -26.404  13.860  0.00  0.00    +0.050 C 
ATOM      3  C   LIG    1       24.954 -25.907  14.295  0.00  0.00    +0.008 C 
ATOM      4  C   LIG    1       24.943 -24.639  14.934  0.00  0.00    +0.010 C 
ATOM      5  C   LIG    1       26.126 -23.919  15.128  0.00  0.00    +0.001 C 
ATOM      6  C   LIG    1       27.321 -24.406  14.631  0.00  0.00    +0.002 C 
ATOM      7  C   LIG    1       23.937 -26.863  13.922  0.00  0.00    +0.015 C 
ATOM      8  C   LIG    1       27.366 -25.638  13.977  0.00  0.00    +0.026 C 
ATOM      9  C   LIG    1       24.601 -27.961  13.372  0.00  0.00    +0.051 C 
ENDROOT
BRANCH   7  10
ATOM     10  C   LIG    1       22.471 -26.755  14.069  0.00  0.00    -0.015 C 
ATOM     11  C   LIG    1       21.616 -26.665  12.954  0.00  0.00    +0.011 C 
ATOM     12  C   LIG    1       20.228 -26.571  13.107  0.00  0.00    +0.039 C 
ATOM     13  C   LIG    1       19.680 -26.519  14.380  0.00  0.00    +0.123 C 
ATOM     14  F   LIG    1       18.351 -26.425  14.530  0.00  0.00    -0.205 F 
ATOM     15  C   LIG    1       20.494 -26.568  15.500  0.00  0.00    +0.039 C 
ATOM     16  C   LIG    1       21.878 -26.707  15.342  0.00  0.00    +0.011 C 
ENDBRANCH   7  10
BRANCH   1  18
ATOM     17  C   LIG    1       27.503 -28.301  11.512  0.00  0.00    +0.030 C 
ATOM     18  C   LIG    1       27.020 -28.614  12.927  0.00  0.00    +0.082 C 
ATOM     19  C   LIG    1       28.182 -28.766  13.915  0.00  0.00    +0.030 C 
ENDBRANCH   1  18
BRANCH   9  20
ATOM     20  C   LIG    1       24.145 -29.201  12.835  0.00  0.00    +0.025 C 
ATOM     21  C   LIG    1       23.863 -29.325  11.526  0.00  0.00    +0.006 C 
BRANCH  21  22
ATOM     22  C   LIG    1       23.376 -30.599  10.887  0.00  0.00    +0.140 C 
BRANCH  22  23
ATOM     23  O   LIG    1       24.316 -31.633  11.170  0.00  0.00    -0.388 OA
ATOM     24  H   LIG    1       24.955 -31.651  10.433  0.00  0.00    +0.210 HD
ENDBRANCH  22  23
BRANCH  22  25
ATOM     25  C   LIG    1       23.190 -30.473   9.366  0.00  0.00    +0.067 C 
BRANCH  25  26
ATOM     26  C   LIG    1       24.482 -30.743   8.564  0.00  0.00    +0.128 C 
BRANCH  26  27
ATOM     27  O   LIG    1       25.169 -29.527   8.262  0.00  0.00    -0.391 OA
ATOM     28  H   LIG    1       24.759 -28.812   8.802  0.00  0.00    +0.210 HD
ENDBRANCH  26  27
BRANCH  26  29
ATOM     29  C   LIG    1       24.224 -31.424   7.220  0.00  0.00    +0.151 C 
BRANCH  29  30
ATOM     30  C   LIG    1       24.383 -30.474   6.056  0.00  0.00    +0.307 C 
ATOM     31  O   LIG    1       25.407 -30.312   5.449  0.00  0.00    -0.251 OA
BRANCH  30  32
ATOM     32  O   LIG    1       23.260 -29.781   5.781  0.00  0.00    -0.481 OA
ATOM     33  H   LIG    1       22.675 -30.195   5.092  0.00  0.00    +0.295 HD
ENDBRANCH  30  32
ENDBRANCH  29  30
ENDBRANCH  26  29
ENDBRANCH  25  26
ENDBRANCH  22  25
ENDBRANCH  21  22
ENDBRANCH   9  20
TORSDOF 11
ENDMDL
MODEL 6
REMARK VINA RESULT:      -7.2      8.351     10.531
REMARK  Name = *****
REMARK                            x       y       z     vdW  Elec       q    Type
REMARK                         _______ _______ _______ _____ _____    ______ ____
ROOT
ATOM      1  N   LIG    1       21.757 -30.445  11.768  0.00  0.00    -0.337 NA
ATOM      2  C   LIG    1       21.645 -29.238  12.447  0.00  0.00    +0.050 C 
ATOM      3  C   LIG    1       22.920 -28.663  12.488  0.00  0.00    +0.008 C 
ATOM      4  C   LIG    1       23.039 -27.367  13.055  0.00  0.00    +0.010 C 
ATOM      5  C   LIG    1       21.920 -26.688  13.546  0.00  0.00    +0.001 C 
ATOM      6  C   LIG    1       20.683 -27.307  13.550  0.00  0.00    +0.002 C 
ATOM      7  C   LIG    1       23.853 -29.619  11.938  0.00  0.00    +0.015 C 
ATOM      8  C   LIG    1       20.532 -28.590  13.023  0.00  0.00    +0.026 C 
ATOM      9  C   LIG    1       23.096 -30.699  11.478  0.00  0.00    +0.051 C 
ENDROOT
BRANCH   7  10
ATOM     10  C   LIG    1       25.325 -29.526  11.851  0.00  0.00    -0.015 C 
ATOM     11  C   LIG    1       26.154 -29.811  12.952  0.00  0.00    +0.011 C 
ATOM     12  C   LIG    1       27.548 -29.727  12.854  0.00  0.00    +0.039 C 
ATOM     13  C   LIG    1       28.129 -29.312  11.666  0.00  0.00    +0.123 C 
ATOM     14  F   LIG    1       29.463 -29.228  11.570  0.00  0.00    -0.205 F 
ATOM     15  C   LIG    1       27.341 -28.989  10.572  0.00  0.00    +0.039 C 
ATOM     16  C   LIG    1       25.951 -29.117  10.661  0.00  0.00    +0.011 C 
ENDBRANCH   7  10
BRANCH   1  18
ATOM     17  C   LIG    1       19.908 -31.877  12.607  0.00  0.00    +0.030 C 
ATOM     18  C   LIG    1       20.628 -31.309  11.385  0.00  0.00    +0.082 C 
ATOM     19  C   LIG    1       19.656 -30.674  10.384  0.00  0.00    +0.030 C 
ENDBRANCH   1  18
BRANCH   9  20
ATOM     20  C   LIG    1       23.446 -31.927  10.844  0.00  0.00    +0.025 C 
ATOM     21  C   LIG    1       23.879 -31.949   9.571  0.00  0.00    +0.006 C 
BRANCH  21  22
ATOM     22  C   LIG    1       24.265 -33.205   8.835  0.00  0.00    +0.140 C 
BRANCH  22  23
ATOM     23  O   LIG    1       25.383 -33.791   9.498  0.00  0.00    -0.388 OA
ATOM     24  H   LIG    1       25.640 -34.581   8.987  0.00  0.00    +0.210 HD
ENDBRANCH  22  23
BRANCH  22  25
ATOM     25  C   LIG    1       24.617 -32.950   7.359  0.00  0.00    +0.067 C 
BRANCH  25  26
ATOM     26  C   LIG    1       23.930 -31.699   6.771  0.00  0.00    +0.128 C 
BRANCH  26  27
ATOM     27  O   LIG    1       23.128 -32.033   5.635  0.00  0.00    -0.391 OA
ATOM     28  H   LIG    1       22.983 -31.205   5.121  0.00  0.00    +0.210 HD
ENDBRANCH  26  27
BRANCH  26  29
ATOM     29  C   LIG    1       24.921 -30.640   6.288  0.00  0.00    +0.151 C 
BRANCH  29  30
ATOM     30  C   LIG    1       24.271 -29.288   6.105  0.00  0.00    +0.307 C 
ATOM     31  O   LIG    1       24.665 -28.273   6.612  0.00  0.00    -0.251 OA
BRANCH  30  32
ATOM     32  O   LIG    1       23.163 -29.333   5.337  0.00  0.00    -0.481 OA
ATOM     33  H   LIG    1       22.826 -28.446   5.042  0.00  0.00    +0.295 HD
ENDBRANCH  30  32
ENDBRANCH  29  30
ENDBRANCH  26  29
ENDBRANCH  25  26
ENDBRANCH  22  25
ENDBRANCH  21  22
ENDBRANCH   9  20
TORSDOF 11
ENDMDL
MODEL 7
REMARK VINA RESULT:      -7.2      4.063      7.676
REMARK  Name = *****
REMARK                            x       y       z     vdW  Elec       q    Type
REMARK                         _______ _______ _______ _____ _____    ______ ____
ROOT
ATOM      1  N   LIG    1       25.692 -21.724   6.251  0.00  0.00    -0.337 NA
ATOM      2  C   LIG    1       24.366 -21.559   5.876  0.00  0.00    +0.050 C 
ATOM      3  C   LIG    1       24.302 -20.423   5.060  0.00  0.00    +0.008 C 
ATOM      4  C   LIG    1       23.050 -20.104   4.472  0.00  0.00    +0.010 C 
ATOM      5  C   LIG    1       21.924 -20.903   4.694  0.00  0.00    +0.001 C 
ATOM      6  C   LIG    1       22.002 -21.984   5.554  0.00  0.00    +0.002 C 
ATOM      7  C   LIG    1       25.609 -19.807   5.060  0.00  0.00    +0.015 C 
ATOM      8  C   LIG    1       23.211 -22.313   6.169  0.00  0.00    +0.026 C 
ATOM      9  C   LIG    1       26.451 -20.653   5.785  0.00  0.00    +0.051 C 
ENDROOT
BRANCH   7  10
ATOM     10  C   LIG    1       26.030 -18.537   4.434  0.00  0.00    -0.015 C 
ATOM     11  C   LIG    1       27.341 -18.043   4.563  0.00  0.00    +0.011 C 
ATOM     12  C   LIG    1       27.728 -16.841   3.957  0.00  0.00    +0.039 C 
ATOM     13  C   LIG    1       26.795 -16.095   3.254  0.00  0.00    +0.123 C 
ATOM     14  F   LIG    1       27.162 -14.943   2.676  0.00  0.00    -0.205 F 
ATOM     15  C   LIG    1       25.486 -16.534   3.137  0.00  0.00    +0.039 C 
ATOM     16  C   LIG    1       25.115 -17.757   3.706  0.00  0.00    +0.011 C 
ENDBRANCH   7  10
BRANCH   1  18
ATOM     17  C   LIG    1       25.958 -22.745   8.501  0.00  0.00    +0.030 C 
ATOM     18  C   LIG    1       26.222 -22.875   7.002  0.00  0.00    +0.082 C 
ATOM     19  C   LIG    1       25.791 -24.241   6.456  0.00  0.00    +0.030 C 
ENDBRANCH   1  18
BRANCH   9  20
ATOM     20  C   LIG    1       27.835 -20.586   6.122  0.00  0.00    +0.025 C 
ATOM     21  C   LIG    1       28.232 -20.146   7.329  0.00  0.00    +0.006 C 
BRANCH  21  22
ATOM     22  C   LIG    1       29.673 -20.046   7.756  0.00  0.00    +0.140 C 
BRANCH  22  23
ATOM     23  O   LIG    1       29.917 -21.032   8.756  0.00  0.00    -0.388 OA
ATOM     24  H   LIG    1       29.517 -20.708   9.584  0.00  0.00    +0.210 HD
ENDBRANCH  22  23
BRANCH  22  25
ATOM     25  C   LIG    1       30.041 -18.656   8.303  0.00  0.00    +0.067 C 
BRANCH  25  26
ATOM     26  C   LIG    1       31.547 -18.490   8.598  0.00  0.00    +0.128 C 
BRANCH  26  27
ATOM     27  O   LIG    1       32.100 -19.683   9.158  0.00  0.00    -0.391 OA
ATOM     28  H   LIG    1       32.014 -19.619  10.137  0.00  0.00    +0.210 HD
ENDBRANCH  26  27
BRANCH  26  29
ATOM     29  C   LIG    1       31.843 -17.378   9.605  0.00  0.00    +0.151 C 
BRANCH  29  30
ATOM     30  C   LIG    1       30.971 -17.472  10.836  0.00  0.00    +0.307 C 
ATOM     31  O   LIG    1       30.848 -18.462  11.506  0.00  0.00    -0.251 OA
BRANCH  30  32
ATOM     32  O   LIG    1       30.298 -16.333  11.095  0.00  0.00    -0.481 OA
ATOM     33  H   LIG    1       29.484 -16.195  10.541  0.00  0.00    +0.295 HD
ENDBRANCH  30  32
ENDBRANCH  29  30
ENDBRANCH  26  29
ENDBRANCH  25  26
ENDBRANCH  22  25
ENDBRANCH  21  22
ENDBRANCH   9  20
TORSDOF 11
ENDMDL
MODEL 8
REMARK VINA RESULT:      -7.0      3.778      7.184
REMARK  Name = *****
REMARK                            x       y       z     vdW  Elec       q    Type
REMARK                         _______ _______ _______ _____ _____    ______ ____
ROOT
ATOM      1  N   LIG    1       25.144 -18.821   4.009  0.00  0.00    -0.337 NA
ATOM      2  C   LIG    1       23.776 -19.056   3.991  0.00  0.00    +0.050 C 
ATOM      3  C   LIG    1       23.545 -20.229   4.719  0.00  0.00    +0.008 C 
ATOM      4  C   LIG    1       22.196 -20.624   4.920  0.00  0.00    +0.010 C 
ATOM      5  C   LIG    1       21.138 -19.861   4.417  0.00  0.00    +0.001 C 
ATOM      6  C   LIG    1       21.398 -18.740   3.648  0.00  0.00    +0.002 C 
ATOM      7  C   LIG    1       24.829 -20.792   5.068  0.00  0.00    +0.015 C 
ATOM      8  C   LIG    1       22.712 -18.336   3.409  0.00  0.00    +0.026 C 
ATOM      9  C   LIG    1       25.796 -19.881   4.636  0.00  0.00    +0.051 C 
ENDROOT
BRANCH   7  10
ATOM     10  C   LIG    1       25.122 -22.071   5.746  0.00  0.00    -0.015 C 
ATOM     11  C   LIG    1       25.645 -22.118   7.051  0.00  0.00    +0.011 C 
ATOM     12  C   LIG    1       25.910 -23.338   7.685  0.00  0.00    +0.039 C 
ATOM     13  C   LIG    1       25.698 -24.527   7.003  0.00  0.00    +0.123 C 
ATOM     14  F   LIG    1       25.954 -25.696   7.606  0.00  0.00    -0.205 F 
ATOM     15  C   LIG    1       25.217 -24.517   5.703  0.00  0.00    +0.039 C 
ATOM     16  C   LIG    1       24.912 -23.296   5.089  0.00  0.00    +0.011 C 
ENDBRANCH   7  10
BRANCH   1  18
ATOM     17  C   LIG    1       24.957 -16.364   3.690  0.00  0.00    +0.030 C 
ATOM     18  C   LIG    1       25.804 -17.618   3.475  0.00  0.00    +0.082 C 
ATOM     19  C   LIG    1       27.250 -17.426   3.945  0.00  0.00    +0.030 C 
ENDBRANCH   1  18
BRANCH   9  20
ATOM     20  C   LIG    1       27.221 -19.878   4.700  0.00  0.00    +0.025 C 
ATOM     21  C   LIG    1       27.859 -19.896   5.883  0.00  0.00    +0.006 C 
BRANCH  21  22
ATOM     22  C   LIG    1       29.358 -19.892   6.029  0.00  0.00    +0.140 C 
BRANCH  22  23
ATOM     23  O   LIG    1       29.738 -21.023   6.811  0.00  0.00    -0.388 OA
ATOM     24  H   LIG    1       30.574 -21.362   6.440  0.00  0.00    +0.210 HD
ENDBRANCH  22  23
BRANCH  22  25
ATOM     25  C   LIG    1       29.892 -18.608   6.687  0.00  0.00    +0.067 C 
BRANCH  25  26
ATOM     26  C   LIG    1       30.124 -18.747   8.207  0.00  0.00    +0.128 C 
BRANCH  26  27
ATOM     27  O   LIG    1       28.930 -19.151   8.880  0.00  0.00    -0.391 OA
ATOM     28  H   LIG    1       28.409 -18.338   9.074  0.00  0.00    +0.210 HD
ENDBRANCH  26  27
BRANCH  26  29
ATOM     29  C   LIG    1       30.557 -17.440   8.871  0.00  0.00    +0.151 C 
BRANCH  29  30
ATOM     30  C   LIG    1       30.430 -17.491  10.375  0.00  0.00    +0.307 C 
ATOM     31  O   LIG    1       30.165 -16.544  11.066  0.00  0.00    -0.251 OA
BRANCH  30  32
ATOM     32  O   LIG    1       30.686 -18.712  10.887  0.00  0.00    -0.481 OA
ATOM     33  H   LIG    1       31.255 -18.710  11.701  0.00  0.00    +0.295 HD
ENDBRANCH  30  32
ENDBRANCH  29  30
ENDBRANCH  26  29
ENDBRANCH  25  26
ENDBRANCH  22  25
ENDBRANCH  21  22
ENDBRANCH   9  20
TORSDOF 11
ENDMDL
MODEL 9
REMARK VINA RESULT:      -7.0      8.506     11.491
REMARK  Name = *****
REMARK                            x       y       z     vdW  Elec       q    Type
REMARK                         _______ _______ _______ _____ _____    ______ ____
ROOT
ATOM      1  N   LIG    1       22.255 -31.801  11.142  0.00  0.00    -0.337 NA
ATOM      2  C   LIG    1       21.819 -32.083  12.430  0.00  0.00    +0.050 C 
ATOM      3  C   LIG    1       22.012 -30.928  13.197  0.00  0.00    +0.008 C 
ATOM      4  C   LIG    1       21.550 -30.944  14.539  0.00  0.00    +0.010 C 
ATOM      5  C   LIG    1       20.916 -32.071  15.071  0.00  0.00    +0.001 C 
ATOM      6  C   LIG    1       20.796 -33.220  14.309  0.00  0.00    +0.002 C 
ATOM      7  C   LIG    1       22.714 -29.966  12.378  0.00  0.00    +0.015 C 
ATOM      8  C   LIG    1       21.260 -33.249  12.993  0.00  0.00    +0.026 C 
ATOM      9  C   LIG    1       22.824 -30.530  11.105  0.00  0.00    +0.051 C 
ENDROOT
BRANCH   7  10
ATOM     10  C   LIG    1       23.235 -28.637  12.758  0.00  0.00    -0.015 C 
ATOM     11  C   LIG    1       24.614 -28.384  12.873  0.00  0.00    +0.011 C 
ATOM     12  C   LIG    1       25.095 -27.117  13.225  0.00  0.00    +0.039 C 
ATOM     13  C   LIG    1       24.199 -26.099  13.512  0.00  0.00    +0.123 C 
ATOM     14  F   LIG    1       24.656 -24.886  13.853  0.00  0.00    -0.205 F 
ATOM     15  C   LIG    1       22.833 -26.323  13.444  0.00  0.00    +0.039 C 
ATOM     16  C   LIG    1       22.358 -27.578  13.048  0.00  0.00    +0.011 C 
ENDBRANCH   7  10
BRANCH   1  18
ATOM     17  C   LIG    1       23.138 -33.825  10.004  0.00  0.00    +0.030 C 
ATOM     18  C   LIG    1       22.107 -32.698   9.984  0.00  0.00    +0.082 C 
ATOM     19  C   LIG    1       20.683 -33.221   9.764  0.00  0.00    +0.030 C 
ENDBRANCH   1  18
BRANCH   9  20
ATOM     20  C   LIG    1       23.403 -30.066   9.887  0.00  0.00    +0.025 C 
ATOM     21  C   LIG    1       24.711 -30.246   9.631  0.00  0.00    +0.006 C 
BRANCH  21  22
ATOM     22  C   LIG    1       25.393 -29.783   8.370  0.00  0.00    +0.140 C 
BRANCH  22  23
ATOM     23  O   LIG    1       26.503 -28.964   8.732  0.00  0.00    -0.388 OA
ATOM     24  H   LIG    1       27.172 -29.548   9.135  0.00  0.00    +0.210 HD
ENDBRANCH  22  23
BRANCH  22  25
ATOM     25  C   LIG    1       24.456 -28.997   7.437  0.00  0.00    +0.067 C 
BRANCH  25  26
ATOM     26  C   LIG    1       24.543 -29.443   5.962  0.00  0.00    +0.128 C 
BRANCH  26  27
ATOM     27  O   LIG    1       23.249 -29.488   5.356  0.00  0.00    -0.391 OA
ATOM     28  H   LIG    1       23.376 -29.435   4.380  0.00  0.00    +0.210 HD
ENDBRANCH  26  27
BRANCH  26  29
ATOM     29  C   LIG    1       25.134 -30.843   5.791  0.00  0.00    +0.151 C 
BRANCH  29  30
ATOM     30  C   LIG    1       24.073 -31.918   5.794  0.00  0.00    +0.307 C 
ATOM     31  O   LIG    1       23.265 -32.070   6.670  0.00  0.00    -0.251 OA
BRANCH  30  32
ATOM     32  O   LIG    1       24.141 -32.732   4.721  0.00  0.00    -0.481 OA
ATOM     33  H   LIG    1       25.020 -33.177   4.593  0.00  0.00    +0.295 HD
ENDBRANCH  30  32
ENDBRANCH  29  30
ENDBRANCH  26  29
ENDBRANCH  25  26
ENDBRANCH  22  25
ENDBRANCH  21  22
ENDBRANCH   9  20
TORSDOF 11
ENDMDL
