MODEL 1
REMARK VINA RESULT:      -3.0      0.000      0.000
REMARK  Name = *****
REMARK                            x       y       z     vdW  Elec       q    Type
REMARK                         _______ _______ _______ _____ _____    ______ ____
ROOT
ATOM      1  O   LIG    1       27.570 -16.889   4.850  0.00  0.00    -0.458 OA
ENDROOT
BRANCH   1   2
ATOM      2  C   LIG    1       27.407 -16.186   3.601  0.00  0.00    +0.180 C 
ATOM      3  C   LIG    1       25.841 -16.272   3.226  0.00  0.00    +0.063 C 
ATOM      4  C   LIG    1       24.941 -15.085   3.755  0.00  0.00    +0.061 C 
ATOM      5  N   LIG    1       25.874 -14.285   4.535  0.00  0.00    -0.289 NA
ATOM      6  C   LIG    1       26.814 -13.837   3.471  0.00  0.00    +0.061 C 
ATOM      7  C   LIG    1       26.437 -12.463   2.982  0.00  0.00    +0.030 C 
ATOM      8  C   LIG    1       24.861 -12.583   2.915  0.00  0.00    +0.060 C 
ATOM      9  C   LIG    1       24.462 -12.309   4.341  0.00  0.00    +0.150 C 
ATOM     10  O   LIG    1       23.656 -11.447   4.673  0.00  0.00    -0.296 OA
ATOM     11  C   LIG    1       25.200 -13.216   5.310  0.00  0.00    +0.159 C 
ATOM     12  C   LIG    1       24.337 -14.077   2.678  0.00  0.00    +0.030 C 
ATOM     13  C   LIG    1       28.009 -14.710   3.700  0.00  0.00    +0.063 C 
ENDBRANCH   1   2
BRANCH   1  15
ATOM     14  O   LIG    1       29.461 -18.112   4.439  0.00  0.00    -0.245 OA
ATOM     15  C   LIG    1       28.300 -18.043   4.809  0.00  0.00    +0.342 C 
BRANCH  15  16
ATOM     16  C   LIG    1       27.527 -19.182   5.287  0.00  0.00    +0.084 C 
ATOM     17  C   LIG    1       26.268 -19.652   4.791  0.00  0.00    +0.014 C 
ATOM     18  C   LIG    1       25.942 -20.809   5.501  0.00  0.00    +0.047 C 
ATOM     19  C   LIG    1       24.801 -21.572   5.227  0.00  0.00    +0.026 C 
ATOM     20  C   LIG    1       23.966 -21.139   4.193  0.00  0.00    +0.002 C 
ATOM     21  C   LIG    1       24.251 -19.980   3.477  0.00  0.00    +0.001 C 
ATOM     22  N   LIG    1       26.930 -21.003   6.437  0.00  0.00    -0.360 NA
ATOM     23  H   LIG    1       26.947 -21.763   7.103  0.00  0.00    +0.165 HD
ATOM     24  C   LIG    1       25.394 -19.226   3.768  0.00  0.00    +0.011 C 
ATOM     25  C   LIG    1       27.897 -20.044   6.307  0.00  0.00    +0.098 C 
ENDBRANCH  15  16
ENDBRANCH   1  15
TORSDOF 3
ENDMDL
MODEL 2
REMARK VINA RESULT:      -2.2      2.043      3.193
REMARK  Name = *****
REMARK                            x       y       z     vdW  Elec       q    Type
REMARK                         _______ _______ _______ _____ _____    ______ ____
ROOT
ATOM      1  O   LIG    1       24.247 -17.484   4.433  0.00  0.00    -0.458 OA
ENDROOT
BRANCH   1   2
ATOM      2  C   LIG    1       24.517 -16.615   3.314  0.00  0.00    +0.180 C 
ATOM      3  C   LIG    1       23.925 -15.167   3.702  0.00  0.00    +0.063 C 
ATOM      4  C   LIG    1       24.931 -14.183   4.421  0.00  0.00    +0.061 C 
ATOM      5  N   LIG    1       26.128 -14.995   4.583  0.00  0.00    -0.289 NA
ATOM      6  C   LIG    1       26.501 -15.229   3.161  0.00  0.00    +0.061 C 
ATOM      7  C   LIG    1       27.542 -14.232   2.722  0.00  0.00    +0.030 C 
ATOM      8  C   LIG    1       26.999 -12.906   3.391  0.00  0.00    +0.060 C 
ATOM      9  C   LIG    1       27.535 -13.017   4.794  0.00  0.00    +0.150 C 
ATOM     10  O   LIG    1       28.212 -12.153   5.339  0.00  0.00    -0.296 OA
ATOM     11  C   LIG    1       27.151 -14.340   5.433  0.00  0.00    +0.159 C 
ATOM     12  C   LIG    1       25.413 -12.896   3.613  0.00  0.00    +0.030 C 
ATOM     13  C   LIG    1       26.069 -16.644   2.936  0.00  0.00    +0.063 C 
ENDBRANCH   1   2
BRANCH   1  15
ATOM     14  O   LIG    1       23.034 -18.971   3.185  0.00  0.00    -0.245 OA
ATOM     15  C   LIG    1       23.754 -18.723   4.138  0.00  0.00    +0.342 C 
BRANCH  15  16
ATOM     16  C   LIG    1       24.218 -19.724   5.091  0.00  0.00    +0.084 C 
ATOM     17  C   LIG    1       25.573 -20.040   5.434  0.00  0.00    +0.014 C 
ATOM     18  C   LIG    1       25.536 -21.007   6.440  0.00  0.00    +0.047 C 
ATOM     19  C   LIG    1       26.689 -21.500   7.062  0.00  0.00    +0.026 C 
ATOM     20  C   LIG    1       27.920 -20.987   6.643  0.00  0.00    +0.002 C 
ATOM     21  C   LIG    1       27.994 -20.035   5.630  0.00  0.00    +0.001 C 
ATOM     22  N   LIG    1       24.215 -21.317   6.658  0.00  0.00    -0.360 NA
ATOM     23  H   LIG    1       23.889 -22.001   7.327  0.00  0.00    +0.165 HD
ATOM     24  C   LIG    1       26.831 -19.557   5.016  0.00  0.00    +0.011 C 
ATOM     25  C   LIG    1       23.412 -20.541   5.868  0.00  0.00    +0.098 C 
ENDBRANCH  15  16
ENDBRANCH   1  15
TORSDOF 3
ENDMDL
MODEL 3
REMARK VINA RESULT:      -1.7      1.456      1.780
REMARK  Name = *****
REMARK                            x       y       z     vdW  Elec       q    Type
REMARK                         _______ _______ _______ _____ _____    ______ ____
ROOT
ATOM      1  O   LIG    1       26.231 -17.120   3.354  0.00  0.00    -0.458 OA
ENDROOT
BRANCH   1   2
ATOM      2  C   LIG    1       26.935 -15.867   3.232  0.00  0.00    +0.180 C 
ATOM      3  C   LIG    1       26.120 -14.985   2.156  0.00  0.00    +0.063 C 
ATOM      4  C   LIG    1       25.000 -14.041   2.748  0.00  0.00    +0.061 C 
ATOM      5  N   LIG    1       25.015 -14.360   4.168  0.00  0.00    -0.289 NA
ATOM      6  C   LIG    1       26.381 -13.903   4.542  0.00  0.00    +0.061 C 
ATOM      7  C   LIG    1       26.329 -12.510   5.114  0.00  0.00    +0.030 C 
ATOM      8  C   LIG    1       25.292 -11.817   4.141  0.00  0.00    +0.060 C 
ATOM      9  C   LIG    1       23.973 -12.233   4.737  0.00  0.00    +0.150 C 
ATOM     10  O   LIG    1       23.090 -11.447   5.062  0.00  0.00    -0.296 OA
ATOM     11  C   LIG    1       23.888 -13.740   4.904  0.00  0.00    +0.159 C 
ATOM     12  C   LIG    1       25.245 -12.467   2.678  0.00  0.00    +0.030 C 
ATOM     13  C   LIG    1       27.137 -15.189   4.664  0.00  0.00    +0.063 C 
ENDBRANCH   1   2
BRANCH   1  15
ATOM     14  O   LIG    1       28.058 -18.104   4.320  0.00  0.00    -0.245 OA
ATOM     15  C   LIG    1       26.872 -18.116   4.034  0.00  0.00    +0.342 C 
BRANCH  15  16
ATOM     16  C   LIG    1       25.955 -19.188   4.401  0.00  0.00    +0.084 C 
ATOM     17  C   LIG    1       24.523 -19.146   4.412  0.00  0.00    +0.014 C 
ATOM     18  C   LIG    1       24.069 -20.420   4.759  0.00  0.00    +0.047 C 
ATOM     19  C   LIG    1       22.710 -20.756   4.801  0.00  0.00    +0.026 C 
ATOM     20  C   LIG    1       21.786 -19.759   4.476  0.00  0.00    +0.002 C 
ATOM     21  C   LIG    1       22.205 -18.473   4.142  0.00  0.00    +0.001 C 
ATOM     22  N   LIG    1       25.177 -21.192   5.014  0.00  0.00    -0.360 NA
ATOM     23  H   LIG    1       25.148 -22.160   5.301  0.00  0.00    +0.165 HD
ATOM     24  C   LIG    1       23.567 -18.153   4.111  0.00  0.00    +0.011 C 
ATOM     25  C   LIG    1       26.316 -20.470   4.785  0.00  0.00    +0.098 C 
ENDBRANCH  15  16
ENDBRANCH   1  15
TORSDOF 3
ENDMDL
MODEL 4
REMARK VINA RESULT:      -1.1      2.360      7.209
REMARK  Name = *****
REMARK                            x       y       z     vdW  Elec       q    Type
REMARK                         _______ _______ _______ _____ _____    ______ ____
ROOT
ATOM      1  O   LIG    1       22.889 -16.735   3.666  0.00  0.00    -0.458 OA
ENDROOT
BRANCH   1   2
ATOM      2  C   LIG    1       22.291 -18.006   3.995  0.00  0.00    +0.180 C 
ATOM      3  C   LIG    1       23.014 -19.108   3.066  0.00  0.00    +0.063 C 
ATOM      4  C   LIG    1       24.291 -19.800   3.688  0.00  0.00    +0.061 C 
ATOM      5  N   LIG    1       24.458 -19.107   4.957  0.00  0.00    -0.289 NA
ATOM      6  C   LIG    1       23.210 -19.510   5.661  0.00  0.00    +0.061 C 
ATOM      7  C   LIG    1       23.474 -20.691   6.559  0.00  0.00    +0.030 C 
ATOM      8  C   LIG    1       24.413 -21.572   5.641  0.00  0.00    +0.060 C 
ATOM      9  C   LIG    1       25.763 -20.947   5.879  0.00  0.00    +0.150 C 
ATOM     10  O   LIG    1       26.752 -21.571   6.244  0.00  0.00    -0.296 OA
ATOM     11  C   LIG    1       25.734 -19.449   5.630  0.00  0.00    +0.159 C 
ATOM     12  C   LIG    1       24.183 -21.343   4.073  0.00  0.00    +0.030 C 
ATOM     13  C   LIG    1       22.367 -18.277   5.567  0.00  0.00    +0.063 C 
ENDBRANCH   1   2
BRANCH   1  15
ATOM     14  O   LIG    1       22.003 -15.791   5.554  0.00  0.00    -0.245 OA
ATOM     15  C   LIG    1       22.748 -15.738   4.590  0.00  0.00    +0.342 C 
BRANCH  15  16
ATOM     16  C   LIG    1       23.622 -14.609   4.294  0.00  0.00    +0.084 C 
ATOM     17  C   LIG    1       25.007 -14.650   3.929  0.00  0.00    +0.014 C 
ATOM     18  C   LIG    1       25.411 -13.338   3.671  0.00  0.00    +0.047 C 
ATOM     19  C   LIG    1       26.697 -13.015   3.222  0.00  0.00    +0.026 C 
ATOM     20  C   LIG    1       27.598 -14.066   3.028  0.00  0.00    +0.002 C 
ATOM     21  C   LIG    1       27.233 -15.383   3.292  0.00  0.00    +0.001 C 
ATOM     22  N   LIG    1       24.335 -12.523   3.931  0.00  0.00    -0.360 NA
ATOM     23  H   LIG    1       24.344 -11.516   3.841  0.00  0.00    +0.165 HD
ATOM     24  C   LIG    1       25.945 -15.687   3.747  0.00  0.00    +0.011 C 
ATOM     25  C   LIG    1       23.250 -13.274   4.288  0.00  0.00    +0.098 C 
ENDBRANCH  15  16
ENDBRANCH   1  15
TORSDOF 3
ENDMDL
MODEL 5
REMARK VINA RESULT:      -0.4      2.466      3.739
REMARK  Name = *****
REMARK                            x       y       z     vdW  Elec       q    Type
REMARK                         _______ _______ _______ _____ _____    ______ ____
ROOT
ATOM      1  O   LIG    1       24.177 -16.352   4.474  0.00  0.00    -0.458 OA
ENDROOT
BRANCH   1   2
ATOM      2  C   LIG    1       24.786 -15.729   3.324  0.00  0.00    +0.180 C 
ATOM      3  C   LIG    1       24.455 -14.154   3.426  0.00  0.00    +0.063 C 
ATOM      4  C   LIG    1       25.525 -13.276   4.189  0.00  0.00    +0.061 C 
ATOM      5  N   LIG    1       26.490 -14.261   4.655  0.00  0.00    -0.289 NA
ATOM      6  C   LIG    1       27.014 -14.773   3.359  0.00  0.00    +0.061 C 
ATOM      7  C   LIG    1       28.293 -14.065   2.994  0.00  0.00    +0.030 C 
ATOM      8  C   LIG    1       27.943 -12.575   3.394  0.00  0.00    +0.060 C 
ATOM      9  C   LIG    1       28.230 -12.569   4.873  0.00  0.00    +0.150 C 
ATOM     10  O   LIG    1       28.982 -11.772   5.421  0.00  0.00    -0.296 OA
ATOM     11  C   LIG    1       27.488 -13.685   5.588  0.00  0.00    +0.159 C 
ATOM     12  C   LIG    1       26.379 -12.239   3.331  0.00  0.00    +0.030 C 
ATOM     13  C   LIG    1       26.336 -16.101   3.232  0.00  0.00    +0.063 C 
ENDBRANCH   1   2
BRANCH   1  15
ATOM     14  O   LIG    1       21.962 -15.813   4.264  0.00  0.00    -0.245 OA
ATOM     15  C   LIG    1       22.846 -16.646   4.375  0.00  0.00    +0.342 C 
BRANCH  15  16
ATOM     16  C   LIG    1       22.614 -18.085   4.395  0.00  0.00    +0.084 C 
ATOM     17  C   LIG    1       23.594 -19.126   4.482  0.00  0.00    +0.014 C 
ATOM     18  C   LIG    1       22.911 -20.342   4.541  0.00  0.00    +0.047 C 
ATOM     19  C   LIG    1       23.561 -21.571   4.698  0.00  0.00    +0.026 C 
ATOM     20  C   LIG    1       24.955 -21.558   4.800  0.00  0.00    +0.002 C 
ATOM     21  C   LIG    1       25.669 -20.365   4.727  0.00  0.00    +0.001 C 
ATOM     22  N   LIG    1       21.570 -20.060   4.430  0.00  0.00    -0.360 NA
ATOM     23  H   LIG    1       20.837 -20.756   4.429  0.00  0.00    +0.165 HD
ATOM     24  C   LIG    1       25.003 -19.145   4.564  0.00  0.00    +0.011 C 
ATOM     25  C   LIG    1       21.377 -18.708   4.360  0.00  0.00    +0.098 C 
ENDBRANCH  15  16
ENDBRANCH   1  15
TORSDOF 3
ENDMDL
