MODEL 1
REMARK VINA RESULT:      -6.5      0.000      0.000
REMARK  Name = *****
REMARK                            x       y       z     vdW  Elec       q    Type
REMARK                         _______ _______ _______ _____ _____    ______ ____
ROOT
ATOM      1  C   LIG    1       30.515 -19.643   7.605  0.00  0.00    +0.173 C 
ENDROOT
BRANCH   1   2
ATOM      2  O   LIG    1       31.845 -19.931   7.135  0.00  0.00    -0.387 OA
ATOM      3  H   LIG    1       32.260 -19.099   6.835  0.00  0.00    +0.210 HD
ENDBRANCH   1   2
BRANCH   1   4
ATOM      4  CA  LIG    1       30.041 -20.862   8.453  0.00  0.00    +0.167 C 
BRANCH   4   7
ATOM      5  C   LIG    1       26.715 -22.239   7.204  0.00  0.00    +0.109 C 
ATOM      6  C   LIG    1       27.645 -21.306   7.944  0.00  0.00    +0.210 C 
ATOM      7  N   LIG    1       28.974 -21.649   7.836  0.00  0.00    -0.304 N 
ATOM      8  H   LIG    1       29.229 -22.579   7.517  0.00  0.00    +0.149 HD
ATOM      9  O   LIG    1       27.237 -20.332   8.544  0.00  0.00    -0.276 OA
ENDBRANCH   4   7
BRANCH   4  10
ATOM     10  C   LIG    1       31.181 -21.810   8.793  0.00  0.00    +0.248 C 
ATOM     11  O   LIG    1       32.148 -21.504   9.488  0.00  0.00    -0.299 OA
ENDBRANCH   4  10
ENDBRANCH   1   4
BRANCH   1  12
ATOM     12  C   LIG    1       30.442 -18.251   8.312  0.00  0.00    +0.176 C 
BRANCH  12  13
ATOM     13  O   LIG    1       29.482 -18.284   9.376  0.00  0.00    -0.387 OA
ATOM     14  H   LIG    1       29.826 -17.700  10.080  0.00  0.00    +0.210 HD
ENDBRANCH  12  13
BRANCH  12  15
ATOM     15  C   LIG    1       31.801 -17.744   8.873  0.00  0.00    +0.171 C 
BRANCH  15  16
ATOM     16  O   LIG    1       32.229 -18.577   9.965  0.00  0.00    -0.387 OA
ATOM     17  H   LIG    1       31.427 -19.099  10.197  0.00  0.00    +0.210 HD
ENDBRANCH  15  16
BRANCH  15  18
ATOM     18  C   LIG    1       31.734 -16.289   9.387  0.00  0.00    +0.190 C 
BRANCH  18  19
ATOM     19  O   LIG    1       32.904 -15.587   8.947  0.00  0.00    -0.392 OA
ATOM     20  H   LIG    1       32.669 -15.152   8.105  0.00  0.00    +0.209 HD
ENDBRANCH  18  19
ENDBRANCH  15  18
ENDBRANCH  12  15
ENDBRANCH   1  12
TORSDOF 10
ENDMDL
MODEL 2
REMARK VINA RESULT:      -6.1      1.583      1.779
REMARK  Name = *****
REMARK                            x       y       z     vdW  Elec       q    Type
REMARK                         _______ _______ _______ _____ _____    ______ ____
ROOT
ATOM      1  C   LIG    1       30.983 -19.034   8.839  0.00  0.00    +0.173 C 
ENDROOT
BRANCH   1   2
ATOM      2  O   LIG    1       32.291 -19.531   9.177  0.00  0.00    -0.387 OA
ATOM      3  H   LIG    1       32.886 -18.773   9.336  0.00  0.00    +0.210 HD
ENDBRANCH   1   2
BRANCH   1   4
ATOM      4  CA  LIG    1       30.028 -20.261   8.722  0.00  0.00    +0.167 C 
BRANCH   4   7
ATOM      5  C   LIG    1       27.288 -20.312   6.074  0.00  0.00    +0.109 C 
ATOM      6  C   LIG    1       27.880 -20.286   7.464  0.00  0.00    +0.210 C 
ATOM      7  N   LIG    1       29.256 -20.308   7.480  0.00  0.00    -0.304 N 
ATOM      8  H   LIG    1       29.764 -20.587   6.646  0.00  0.00    +0.149 HD
ATOM      9  O   LIG    1       27.185 -20.218   8.459  0.00  0.00    -0.276 OA
ENDBRANCH   4   7
BRANCH   4  10
ATOM     10  C   LIG    1       30.764 -21.584   8.862  0.00  0.00    +0.248 C 
ATOM     11  O   LIG    1       31.011 -22.125   9.938  0.00  0.00    -0.299 OA
ENDBRANCH   4  10
ENDBRANCH   1   4
BRANCH   1  12
ATOM     12  C   LIG    1       30.524 -17.905   9.818  0.00  0.00    +0.176 C 
BRANCH  12  13
ATOM     13  O   LIG    1       30.508 -18.393  11.166  0.00  0.00    -0.387 OA
ATOM     14  H   LIG    1       31.275 -17.990  11.618  0.00  0.00    +0.210 HD
ENDBRANCH  12  13
BRANCH  12  15
ATOM     15  C   LIG    1       31.389 -16.614   9.758  0.00  0.00    +0.171 C 
BRANCH  15  16
ATOM     16  O   LIG    1       32.373 -16.724   8.714  0.00  0.00    -0.387 OA
ATOM     17  H   LIG    1       32.382 -15.832   8.297  0.00  0.00    +0.210 HD
ENDBRANCH  15  16
BRANCH  15  18
ATOM     18  C   LIG    1       32.133 -16.327  11.080  0.00  0.00    +0.190 C 
BRANCH  18  19
ATOM     19  O   LIG    1       31.186 -15.871  12.056  0.00  0.00    -0.392 OA
ATOM     20  H   LIG    1       31.280 -14.900  12.105  0.00  0.00    +0.209 HD
ENDBRANCH  18  19
ENDBRANCH  15  18
ENDBRANCH  12  15
ENDBRANCH   1  12
TORSDOF 10
ENDMDL
MODEL 3
REMARK VINA RESULT:      -6.0      1.799      2.559
REMARK  Name = *****
REMARK                            x       y       z     vdW  Elec       q    Type
REMARK                         _______ _______ _______ _____ _____    ______ ____
ROOT
ATOM      1  C   LIG    1       31.337 -18.875   8.561  0.00  0.00    +0.173 C 
ENDROOT
BRANCH   1   2
ATOM      2  O   LIG    1       32.117 -19.860   9.264  0.00  0.00    -0.387 OA
ATOM      3  H   LIG    1       32.750 -20.265   8.640  0.00  0.00    +0.210 HD
ENDBRANCH   1   2
BRANCH   1   4
ATOM      4  CA  LIG    1       30.370 -19.634   7.603  0.00  0.00    +0.167 C 
BRANCH   4   7
ATOM      5  C   LIG    1       26.711 -20.452   8.282  0.00  0.00    +0.109 C 
ATOM      6  C   LIG    1       28.100 -20.648   7.719  0.00  0.00    +0.210 C 
ATOM      7  N   LIG    1       28.970 -19.626   8.026  0.00  0.00    -0.304 N 
ATOM      8  H   LIG    1       28.606 -18.738   8.358  0.00  0.00    +0.149 HD
ATOM      9  O   LIG    1       28.404 -21.640   7.087  0.00  0.00    -0.276 OA
ENDBRANCH   4   7
BRANCH   4  10
ATOM     10  C   LIG    1       30.427 -19.100   6.179  0.00  0.00    +0.248 C 
ATOM     11  O   LIG    1       29.814 -18.108   5.790  0.00  0.00    -0.299 OA
ENDBRANCH   4  10
ENDBRANCH   1   4
BRANCH   1  12
ATOM     12  C   LIG    1       30.665 -17.862   9.544  0.00  0.00    +0.176 C 
BRANCH  12  13
ATOM     13  O   LIG    1       30.451 -18.477  10.821  0.00  0.00    -0.387 OA
ATOM     14  H   LIG    1       30.763 -17.839  11.493  0.00  0.00    +0.210 HD
ENDBRANCH  12  13
BRANCH  12  15
ATOM     15  C   LIG    1       31.460 -16.541   9.745  0.00  0.00    +0.171 C 
BRANCH  15  16
ATOM     16  O   LIG    1       32.488 -16.423   8.745  0.00  0.00    -0.387 OA
ATOM     17  H   LIG    1       31.998 -16.186   7.925  0.00  0.00    +0.210 HD
ENDBRANCH  15  16
BRANCH  15  18
ATOM     18  C   LIG    1       32.137 -16.451  11.130  0.00  0.00    +0.190 C 
BRANCH  18  19
ATOM     19  O   LIG    1       31.201 -15.904  12.069  0.00  0.00    -0.392 OA
ATOM     20  H   LIG    1       30.360 -15.784  11.588  0.00  0.00    +0.209 HD
ENDBRANCH  18  19
ENDBRANCH  15  18
ENDBRANCH  12  15
ENDBRANCH   1  12
TORSDOF 10
ENDMDL
MODEL 4
REMARK VINA RESULT:      -5.8      5.799      7.649
REMARK  Name = *****
REMARK                            x       y       z     vdW  Elec       q    Type
REMARK                         _______ _______ _______ _____ _____    ______ ____
ROOT
ATOM      1  C   LIG    1       25.480 -21.399   6.016  0.00  0.00    +0.173 C 
ENDROOT
BRANCH   1   2
ATOM      2  O   LIG    1       25.984 -20.236   6.700  0.00  0.00    -0.387 OA
ATOM      3  H   LIG    1       26.631 -20.523   7.373  0.00  0.00    +0.210 HD
ENDBRANCH   1   2
BRANCH   1   4
ATOM      4  CA  LIG    1       25.025 -22.423   7.100  0.00  0.00    +0.167 C 
BRANCH   4   7
ATOM      5  C   LIG    1       24.167 -25.978   6.030  0.00  0.00    +0.109 C 
ATOM      6  C   LIG    1       23.911 -24.574   6.525  0.00  0.00    +0.210 C 
ATOM      7  N   LIG    1       25.054 -23.819   6.662  0.00  0.00    -0.304 N 
ATOM      8  H   LIG    1       25.960 -24.277   6.680  0.00  0.00    +0.149 HD
ATOM      9  O   LIG    1       22.789 -24.162   6.743  0.00  0.00    -0.276 OA
ENDBRANCH   4   7
BRANCH   4  10
ATOM     10  C   LIG    1       25.848 -22.321   8.375  0.00  0.00    +0.248 C 
ATOM     11  O   LIG    1       25.630 -21.508   9.272  0.00  0.00    -0.299 OA
ENDBRANCH   4  10
ENDBRANCH   1   4
BRANCH   1  12
ATOM     12  C   LIG    1       24.405 -21.018   4.946  0.00  0.00    +0.176 C 
BRANCH  12  13
ATOM     13  O   LIG    1       24.220 -22.099   4.022  0.00  0.00    -0.387 OA
ATOM     14  H   LIG    1       23.295 -22.043   3.711  0.00  0.00    +0.210 HD
ENDBRANCH  12  13
BRANCH  12  15
ATOM     15  C   LIG    1       23.025 -20.617   5.538  0.00  0.00    +0.171 C 
BRANCH  15  16
ATOM     16  O   LIG    1       22.063 -21.663   5.309  0.00  0.00    -0.387 OA
ATOM     17  H   LIG    1       21.938 -21.663   4.333  0.00  0.00    +0.210 HD
ENDBRANCH  15  16
BRANCH  15  18
ATOM     18  C   LIG    1       22.462 -19.316   4.924  0.00  0.00    +0.190 C 
BRANCH  18  19
ATOM     19  O   LIG    1       23.255 -18.963   3.782  0.00  0.00    -0.392 OA
ATOM     20  H   LIG    1       22.887 -18.128   3.434  0.00  0.00    +0.209 HD
ENDBRANCH  18  19
ENDBRANCH  15  18
ENDBRANCH  12  15
ENDBRANCH   1  12
TORSDOF 10
ENDMDL
MODEL 5
REMARK VINA RESULT:      -5.7      2.077      3.240
REMARK  Name = *****
REMARK                            x       y       z     vdW  Elec       q    Type
REMARK                         _______ _______ _______ _____ _____    ______ ____
ROOT
ATOM      1  C   LIG    1       29.090 -20.264   7.048  0.00  0.00    +0.173 C 
ENDROOT
BRANCH   1   2
ATOM      2  O   LIG    1       29.690 -21.427   7.648  0.00  0.00    -0.387 OA
ATOM      3  H   LIG    1       29.565 -21.382   8.616  0.00  0.00    +0.210 HD
ENDBRANCH   1   2
BRANCH   1   4
ATOM      4  CA  LIG    1       27.546 -20.483   7.038  0.00  0.00    +0.167 C 
BRANCH   4   7
ATOM      5  C   LIG    1       25.171 -20.387   4.060  0.00  0.00    +0.109 C 
ATOM      6  C   LIG    1       25.578 -20.438   5.514  0.00  0.00    +0.210 C 
ATOM      7  N   LIG    1       26.942 -20.462   5.706  0.00  0.00    -0.304 N 
ATOM      8  H   LIG    1       27.555 -20.694   4.931  0.00  0.00    +0.149 HD
ATOM      9  O   LIG    1       24.761 -20.425   6.413  0.00  0.00    -0.276 OA
ENDBRANCH   4   7
BRANCH   4  10
ATOM     10  C   LIG    1       27.140 -21.785   7.711  0.00  0.00    +0.248 C 
ATOM     11  O   LIG    1       26.755 -21.868   8.876  0.00  0.00    -0.299 OA
ENDBRANCH   4  10
ENDBRANCH   1   4
BRANCH   1  12
ATOM     12  C   LIG    1       29.586 -18.945   7.723  0.00  0.00    +0.176 C 
BRANCH  12  13
ATOM     13  O   LIG    1       29.196 -18.915   9.103  0.00  0.00    -0.387 OA
ATOM     14  H   LIG    1       30.011 -19.045   9.626  0.00  0.00    +0.210 HD
ENDBRANCH  12  13
BRANCH  12  15
ATOM     15  C   LIG    1       31.121 -18.713   7.627  0.00  0.00    +0.171 C 
BRANCH  15  16
ATOM     16  O   LIG    1       31.722 -19.715   6.787  0.00  0.00    -0.387 OA
ATOM     17  H   LIG    1       31.236 -19.635   5.934  0.00  0.00    +0.210 HD
ENDBRANCH  15  16
BRANCH  15  18
ATOM     18  C   LIG    1       31.824 -18.766   9.001  0.00  0.00    +0.190 C 
BRANCH  18  19
ATOM     19  O   LIG    1       31.977 -20.138   9.390  0.00  0.00    -0.392 OA
ATOM     20  H   LIG    1       32.150 -20.643   8.573  0.00  0.00    +0.209 HD
ENDBRANCH  18  19
ENDBRANCH  15  18
ENDBRANCH  12  15
ENDBRANCH   1  12
TORSDOF 10
ENDMDL
MODEL 6
REMARK VINA RESULT:      -5.7      2.239      3.803
REMARK  Name = *****
REMARK                            x       y       z     vdW  Elec       q    Type
REMARK                         _______ _______ _______ _____ _____    ______ ____
ROOT
ATOM      1  C   LIG    1       27.927 -20.054   6.744  0.00  0.00    +0.173 C 
ENDROOT
BRANCH   1   2
ATOM      2  O   LIG    1       28.298 -20.391   5.394  0.00  0.00    -0.387 OA
ATOM      3  H   LIG    1       28.611 -19.583   4.943  0.00  0.00    +0.210 HD
ENDBRANCH   1   2
BRANCH   1   4
ATOM      4  CA  LIG    1       26.587 -20.785   7.061  0.00  0.00    +0.167 C 
BRANCH   4   7
ATOM      5  C   LIG    1       25.908 -24.488   6.469  0.00  0.00    +0.109 C 
ATOM      6  C   LIG    1       25.609 -23.007   6.510  0.00  0.00    +0.210 C 
ATOM      7  N   LIG    1       26.659 -22.244   6.970  0.00  0.00    -0.304 N 
ATOM      8  H   LIG    1       27.424 -22.688   7.468  0.00  0.00    +0.149 HD
ATOM      9  O   LIG    1       24.545 -22.554   6.137  0.00  0.00    -0.276 OA
ENDBRANCH   4   7
BRANCH   4  10
ATOM     10  C   LIG    1       26.046 -20.433   8.438  0.00  0.00    +0.248 C 
ATOM     11  O   LIG    1       25.908 -21.243   9.353  0.00  0.00    -0.299 OA
ENDBRANCH   4  10
ENDBRANCH   1   4
BRANCH   1  12
ATOM     12  C   LIG    1       29.098 -20.314   7.746  0.00  0.00    +0.176 C 
BRANCH  12  13
ATOM     13  O   LIG    1       29.618 -21.638   7.571  0.00  0.00    -0.387 OA
ATOM     14  H   LIG    1       28.904 -22.166   7.164  0.00  0.00    +0.210 HD
ENDBRANCH  12  13
BRANCH  12  15
ATOM     15  C   LIG    1       30.267 -19.293   7.645  0.00  0.00    +0.171 C 
BRANCH  15  16
ATOM     16  O   LIG    1       31.188 -19.695   6.615  0.00  0.00    -0.387 OA
ATOM     17  H   LIG    1       31.060 -19.026   5.904  0.00  0.00    +0.210 HD
ENDBRANCH  15  16
BRANCH  15  18
ATOM     18  C   LIG    1       31.062 -19.157   8.962  0.00  0.00    +0.190 C 
BRANCH  18  19
ATOM     19  O   LIG    1       31.960 -20.270   9.078  0.00  0.00    -0.392 OA
ATOM     20  H   LIG    1       32.059 -20.644   8.182  0.00  0.00    +0.209 HD
ENDBRANCH  18  19
ENDBRANCH  15  18
ENDBRANCH  12  15
ENDBRANCH   1  12
TORSDOF 10
ENDMDL
MODEL 7
REMARK VINA RESULT:      -5.6      4.371      8.242
REMARK  Name = *****
REMARK                            x       y       z     vdW  Elec       q    Type
REMARK                         _______ _______ _______ _____ _____    ______ ____
ROOT
ATOM      1  C   LIG    1       24.754 -21.858   4.923  0.00  0.00    +0.173 C 
ENDROOT
BRANCH   1   2
ATOM      2  O   LIG    1       23.318 -21.761   4.959  0.00  0.00    -0.387 OA
ATOM      3  H   LIG    1       23.058 -21.232   5.738  0.00  0.00    +0.210 HD
ENDBRANCH   1   2
BRANCH   1   4
ATOM      4  CA  LIG    1       25.328 -20.410   4.989  0.00  0.00    +0.167 C 
BRANCH   4   7
ATOM      5  C   LIG    1       28.899 -20.213   6.303  0.00  0.00    +0.109 C 
ATOM      6  C   LIG    1       27.389 -20.237   6.373  0.00  0.00    +0.210 C 
ATOM      7  N   LIG    1       26.781 -20.342   5.142  0.00  0.00    -0.304 N 
ATOM      8  H   LIG    1       27.313 -20.147   4.300  0.00  0.00    +0.149 HD
ATOM      9  O   LIG    1       26.793 -20.199   7.431  0.00  0.00    -0.276 OA
ENDBRANCH   4   7
BRANCH   4  10
ATOM     10  C   LIG    1       24.950 -19.581   3.770  0.00  0.00    +0.248 C 
ATOM     11  O   LIG    1       23.814 -19.171   3.541  0.00  0.00    -0.299 OA
ENDBRANCH   4  10
ENDBRANCH   1   4
BRANCH   1  12
ATOM     12  C   LIG    1       25.292 -22.853   6.002  0.00  0.00    +0.176 C 
BRANCH  12  13
ATOM     13  O   LIG    1       24.720 -22.555   7.282  0.00  0.00    -0.387 OA
ATOM     14  H   LIG    1       25.303 -22.965   7.950  0.00  0.00    +0.210 HD
ENDBRANCH  12  13
BRANCH  12  15
ATOM     15  C   LIG    1       25.043 -24.353   5.673  0.00  0.00    +0.171 C 
BRANCH  15  16
ATOM     16  O   LIG    1       24.668 -24.501   4.292  0.00  0.00    -0.387 OA
ATOM     17  H   LIG    1       25.179 -23.800   3.828  0.00  0.00    +0.210 HD
ENDBRANCH  15  16
BRANCH  15  18
ATOM     18  C   LIG    1       23.926 -24.979   6.536  0.00  0.00    +0.190 C 
BRANCH  18  19
ATOM     19  O   LIG    1       22.741 -24.180   6.412  0.00  0.00    -0.392 OA
ATOM     20  H   LIG    1       22.064 -24.745   5.994  0.00  0.00    +0.209 HD
ENDBRANCH  18  19
ENDBRANCH  15  18
ENDBRANCH  12  15
ENDBRANCH   1  12
TORSDOF 10
ENDMDL
MODEL 8
REMARK VINA RESULT:      -5.6      1.637      5.231
REMARK  Name = *****
REMARK                            x       y       z     vdW  Elec       q    Type
REMARK                         _______ _______ _______ _____ _____    ______ ____
ROOT
ATOM      1  C   LIG    1       29.368 -21.011   7.183  0.00  0.00    +0.173 C 
ENDROOT
BRANCH   1   2
ATOM      2  O   LIG    1       29.181 -20.089   6.093  0.00  0.00    -0.387 OA
ATOM      3  H   LIG    1       29.852 -19.382   6.159  0.00  0.00    +0.210 HD
ENDBRANCH   1   2
BRANCH   1   4
ATOM      4  CA  LIG    1       30.556 -20.486   8.046  0.00  0.00    +0.167 C 
BRANCH   4   7
ATOM      5  C   LIG    1       30.498 -17.006   9.597  0.00  0.00    +0.109 C 
ATOM      6  C   LIG    1       31.005 -18.135   8.730  0.00  0.00    +0.210 C 
ATOM      7  N   LIG    1       30.254 -19.285   8.824  0.00  0.00    -0.304 N 
ATOM      8  H   LIG    1       29.611 -19.403   9.601  0.00  0.00    +0.149 HD
ATOM      9  O   LIG    1       31.968 -18.004   8.001  0.00  0.00    -0.276 OA
ENDBRANCH   4   7
BRANCH   4  10
ATOM     10  C   LIG    1       31.086 -21.540   9.007  0.00  0.00    +0.248 C 
ATOM     11  O   LIG    1       32.223 -21.539   9.473  0.00  0.00    -0.299 OA
ENDBRANCH   4  10
ENDBRANCH   1   4
BRANCH   1  12
ATOM     12  C   LIG    1       28.033 -21.274   7.952  0.00  0.00    +0.176 C 
BRANCH  12  13
ATOM     13  O   LIG    1       27.472 -20.037   8.411  0.00  0.00    -0.387 OA
ATOM     14  H   LIG    1       27.440 -19.442   7.637  0.00  0.00    +0.210 HD
ENDBRANCH  12  13
BRANCH  12  15
ATOM     15  C   LIG    1       26.960 -22.043   7.130  0.00  0.00    +0.171 C 
BRANCH  15  16
ATOM     16  O   LIG    1       26.335 -21.159   6.182  0.00  0.00    -0.387 OA
ATOM     17  H   LIG    1       26.360 -21.659   5.335  0.00  0.00    +0.210 HD
ENDBRANCH  15  16
BRANCH  15  18
ATOM     18  C   LIG    1       25.849 -22.652   8.012  0.00  0.00    +0.190 C 
BRANCH  18  19
ATOM     19  O   LIG    1       25.577 -21.756   9.099  0.00  0.00    -0.392 OA
ATOM     20  H   LIG    1       24.910 -21.120   8.777  0.00  0.00    +0.209 HD
ENDBRANCH  18  19
ENDBRANCH  15  18
ENDBRANCH  12  15
ENDBRANCH   1  12
TORSDOF 10
ENDMDL
MODEL 9
REMARK VINA RESULT:      -5.6      2.437      4.890
REMARK  Name = *****
REMARK                            x       y       z     vdW  Elec       q    Type
REMARK                         _______ _______ _______ _____ _____    ______ ____
ROOT
ATOM      1  C   LIG    1       29.671 -20.244   7.873  0.00  0.00    +0.173 C 
ENDROOT
BRANCH   1   2
ATOM      2  O   LIG    1       29.603 -21.519   7.209  0.00  0.00    -0.387 OA
ATOM      3  H   LIG    1       28.839 -21.517   6.600  0.00  0.00    +0.210 HD
ENDBRANCH   1   2
BRANCH   1   4
ATOM      4  CA  LIG    1       31.047 -20.164   8.602  0.00  0.00    +0.167 C 
BRANCH   4   7
ATOM      5  C   LIG    1       31.586 -17.111  10.816  0.00  0.00    +0.109 C 
ATOM      6  C   LIG    1       31.676 -17.958   9.569  0.00  0.00    +0.210 C 
ATOM      7  N   LIG    1       31.094 -19.199   9.700  0.00  0.00    -0.304 N 
ATOM      8  H   LIG    1       30.886 -19.562  10.626  0.00  0.00    +0.149 HD
ATOM      9  O   LIG    1       32.190 -17.548   8.547  0.00  0.00    -0.276 OA
ENDBRANCH   4   7
BRANCH   4  10
ATOM     10  C   LIG    1       31.492 -21.512   9.149  0.00  0.00    +0.248 C 
ATOM     11  O   LIG    1       30.876 -22.147  10.003  0.00  0.00    -0.299 OA
ENDBRANCH   4  10
ENDBRANCH   1   4
BRANCH   1  12
ATOM     12  C   LIG    1       29.349 -19.066   6.897  0.00  0.00    +0.176 C 
BRANCH  12  13
ATOM     13  O   LIG    1       30.550 -18.364   6.552  0.00  0.00    -0.387 OA
ATOM     14  H   LIG    1       31.270 -19.024   6.559  0.00  0.00    +0.210 HD
ENDBRANCH  12  13
BRANCH  12  15
ATOM     15  C   LIG    1       28.621 -19.496   5.592  0.00  0.00    +0.171 C 
BRANCH  15  16
ATOM     16  O   LIG    1       28.573 -18.396   4.665  0.00  0.00    -0.387 OA
ATOM     17  H   LIG    1       27.720 -18.519   4.191  0.00  0.00    +0.210 HD
ENDBRANCH  15  16
BRANCH  15  18
ATOM     18  C   LIG    1       27.172 -19.968   5.839  0.00  0.00    +0.190 C 
BRANCH  18  19
ATOM     19  O   LIG    1       26.546 -20.227   4.574  0.00  0.00    -0.392 OA
ATOM     20  H   LIG    1       26.558 -21.195   4.449  0.00  0.00    +0.209 HD
ENDBRANCH  18  19
ENDBRANCH  15  18
ENDBRANCH  12  15
ENDBRANCH   1  12
TORSDOF 10
ENDMDL
