MODEL 1
REMARK VINA RESULT:      -6.4      0.000      0.000
REMARK  Name = *****
REMARK                            x       y       z     vdW  Elec       q    Type
REMARK                         _______ _______ _______ _____ _____    ______ ____
ROOT
ATOM      1  C   LIG    1       23.583 -32.879   7.139  0.00  0.00    +0.042 C 
ATOM      2  C   LIG    1       24.234 -31.532   6.808  0.00  0.00    +0.069 C 
ATOM      3  C   LIG    1       24.414 -30.559   8.032  0.00  0.00    -0.000 C 
ATOM      4  C   LIG    1       24.413 -29.076   7.510  0.00  0.00    +0.014 C 
ATOM      5  C   LIG    1       25.880 -30.875   8.538  0.00  0.00    +0.001 C 
ATOM      6  C   LIG    1       26.210 -31.083  10.057  0.00  0.00    -0.004 C 
ATOM      7  C   LIG    1       24.700 -31.070  11.145  0.00  0.00    +0.002 C 
ATOM      8  C   LIG    1       23.497 -31.507  10.301  0.00  0.00    +0.005 C 
ATOM      9  C   LIG    1       24.499 -29.487  12.053  0.00  0.00    +0.009 C 
ATOM     10  C   LIG    1       23.108 -28.964  12.266  0.00  0.00    +0.015 C 
ATOM     11  C   LIG    1       25.822 -28.342  12.677  0.00  0.00    +0.009 C 
ATOM     12  C   LIG    1       26.189 -28.952  13.987  0.00  0.00    +0.124 C 
ATOM     13  C   LIG    1       26.784 -30.133  13.363  0.00  0.00    +0.307 C 
ATOM     14  O   LIG    1       27.606 -30.893  13.869  0.00  0.00    -0.251 OA
ATOM     15  O   LIG    1       26.348 -30.194  12.052  0.00  0.00    -0.464 OA
ATOM     16  C   LIG    1       27.360 -28.396  11.513  0.00  0.00    +0.005 C 
ATOM     17  C   LIG    1       25.289 -29.088  10.998  0.00  0.00    +0.239 C 
ATOM     18  C   LIG    1       27.580 -29.887  10.428  0.00  0.00    +0.004 C 
ATOM     19  C   LIG    1       26.440 -31.970   7.619  0.00  0.00    +0.007 C 
ATOM     20  C   LIG    1       23.257 -30.641   9.068  0.00  0.00    +0.010 C 
ATOM     21  C   LIG    1       25.674 -31.753   6.322  0.00  0.00    +0.035 C 
ENDROOT
BRANCH   2  22
ATOM     22  O   LIG    1       23.436 -30.961   5.773  0.00  0.00    -0.388 OA
ATOM     23  H   LIG    1       23.972 -30.319   5.279  0.00  0.00    +0.210 HD
ENDBRANCH   2  22
TORSDOF 1
ENDMDL
MODEL 2
REMARK VINA RESULT:      -5.5      9.264     11.669
REMARK  Name = *****
REMARK                            x       y       z     vdW  Elec       q    Type
REMARK                         _______ _______ _______ _____ _____    ______ ____
ROOT
ATOM      1  C   LIG    1       29.906 -18.914   8.589  0.00  0.00    +0.042 C 
ATOM      2  C   LIG    1       30.063 -19.884   7.413  0.00  0.00    +0.069 C 
ATOM      3  C   LIG    1       28.788 -20.748   7.087  0.00  0.00    -0.000 C 
ATOM      4  C   LIG    1       29.243 -22.094   6.413  0.00  0.00    +0.014 C 
ATOM      5  C   LIG    1       28.043 -19.898   5.980  0.00  0.00    +0.001 C 
ATOM      6  C   LIG    1       26.499 -19.629   6.035  0.00  0.00    -0.004 C 
ATOM      7  C   LIG    1       25.697 -20.271   7.587  0.00  0.00    +0.002 C 
ATOM      8  C   LIG    1       26.758 -20.314   8.693  0.00  0.00    +0.005 C 
ATOM      9  C   LIG    1       24.776 -21.835   7.309  0.00  0.00    +0.009 C 
ATOM     10  C   LIG    1       24.793 -22.870   8.396  0.00  0.00    +0.015 C 
ATOM     11  C   LIG    1       23.882 -22.388   5.777  0.00  0.00    +0.009 C 
ATOM     12  C   LIG    1       22.553 -21.727   5.920  0.00  0.00    +0.124 C 
ATOM     13  C   LIG    1       23.109 -20.387   5.735  0.00  0.00    +0.307 C 
ATOM     14  O   LIG    1       22.495 -19.382   5.383  0.00  0.00    -0.251 OA
ATOM     15  O   LIG    1       24.477 -20.458   5.918  0.00  0.00    -0.464 OA
ATOM     16  C   LIG    1       24.756 -21.693   4.202  0.00  0.00    +0.005 C 
ATOM     17  C   LIG    1       25.657 -21.855   6.251  0.00  0.00    +0.239 C 
ATOM     18  C   LIG    1       25.843 -20.201   4.396  0.00  0.00    +0.004 C 
ATOM     19  C   LIG    1       28.891 -18.641   5.740  0.00  0.00    +0.007 C 
ATOM     20  C   LIG    1       27.978 -21.163   8.348  0.00  0.00    +0.010 C 
ATOM     21  C   LIG    1       30.293 -19.098   6.114  0.00  0.00    +0.035 C 
ENDROOT
BRANCH   2  22
ATOM     22  O   LIG    1       31.199 -20.687   7.723  0.00  0.00    -0.388 OA
ATOM     23  H   LIG    1       31.984 -20.117   7.773  0.00  0.00    +0.210 HD
ENDBRANCH   2  22
TORSDOF 1
ENDMDL
MODEL 3
REMARK VINA RESULT:      -5.2      3.787      6.669
REMARK  Name = *****
REMARK                            x       y       z     vdW  Elec       q    Type
REMARK                         _______ _______ _______ _____ _____    ______ ____
ROOT
ATOM      1  C   LIG    1       25.701 -25.306  13.251  0.00  0.00    +0.042 C 
ATOM      2  C   LIG    1       26.024 -26.610  13.988  0.00  0.00    +0.069 C 
ATOM      3  C   LIG    1       24.795 -27.566  14.221  0.00  0.00    -0.000 C 
ATOM      4  C   LIG    1       25.064 -28.440  15.500  0.00  0.00    +0.014 C 
ATOM      5  C   LIG    1       24.844 -28.536  12.972  0.00  0.00    +0.001 C 
ATOM      6  C   LIG    1       23.563 -28.888  12.139  0.00  0.00    -0.004 C 
ATOM      7  C   LIG    1       22.055 -27.940  12.677  0.00  0.00    +0.002 C 
ATOM      8  C   LIG    1       22.518 -26.626  13.317  0.00  0.00    +0.005 C 
ATOM      9  C   LIG    1       20.907 -28.955  13.689  0.00  0.00    +0.009 C 
ATOM     10  C   LIG    1       20.181 -28.288  14.819  0.00  0.00    +0.015 C 
ATOM     11  C   LIG    1       20.586 -30.782  13.580  0.00  0.00    +0.009 C 
ATOM     12  C   LIG    1       19.571 -30.869  12.491  0.00  0.00    +0.124 C 
ATOM     13  C   LIG    1       20.521 -30.452  11.461  0.00  0.00    +0.307 C 
ATOM     14  O   LIG    1       20.427 -30.655  10.252  0.00  0.00    -0.251 OA
ATOM     15  O   LIG    1       21.613 -29.880  12.087  0.00  0.00    -0.464 OA
ATOM     16  C   LIG    1       22.181 -31.712  13.019  0.00  0.00    +0.005 C 
ATOM     17  C   LIG    1       22.091 -29.637  13.866  0.00  0.00    +0.239 C 
ATOM     18  C   LIG    1       23.485 -30.743  12.122  0.00  0.00    +0.004 C 
ATOM     19  C   LIG    1       26.047 -28.103  12.121  0.00  0.00    +0.007 C 
ATOM     20  C   LIG    1       23.464 -26.812  14.499  0.00  0.00    +0.010 C 
ATOM     21  C   LIG    1       26.977 -27.467  13.143  0.00  0.00    +0.035 C 
ENDROOT
BRANCH   2  22
ATOM     22  O   LIG    1       26.647 -26.219  15.209  0.00  0.00    -0.388 OA
ATOM     23  H   LIG    1       27.358 -26.849  15.417  0.00  0.00    +0.210 HD
ENDBRANCH   2  22
TORSDOF 1
ENDMDL
MODEL 4
REMARK VINA RESULT:      -5.2      1.648      5.701
REMARK  Name = *****
REMARK                            x       y       z     vdW  Elec       q    Type
REMARK                         _______ _______ _______ _____ _____    ______ ____
ROOT
ATOM      1  C   LIG    1       26.385 -30.155  13.500  0.00  0.00    +0.042 C 
ATOM      2  C   LIG    1       24.932 -30.433  13.099  0.00  0.00    +0.069 C 
ATOM      3  C   LIG    1       24.606 -30.209  11.576  0.00  0.00    -0.000 C 
ATOM      4  C   LIG    1       23.083 -29.845  11.428  0.00  0.00    +0.014 C 
ATOM      5  C   LIG    1       24.807 -31.645  10.943  0.00  0.00    +0.001 C 
ATOM      6  C   LIG    1       25.607 -31.865   9.613  0.00  0.00    -0.004 C 
ATOM      7  C   LIG    1       26.401 -30.310   8.968  0.00  0.00    +0.002 C 
ATOM      8  C   LIG    1       26.646 -29.369  10.154  0.00  0.00    +0.005 C 
ATOM      9  C   LIG    1       25.481 -29.582   7.555  0.00  0.00    +0.009 C 
ATOM     10  C   LIG    1       25.410 -28.087   7.450  0.00  0.00    +0.015 C 
ATOM     11  C   LIG    1       24.497 -30.462   6.247  0.00  0.00    +0.009 C 
ATOM     12  C   LIG    1       25.545 -30.851   5.259  0.00  0.00    +0.124 C 
ATOM     13  C   LIG    1       26.163 -31.812   6.170  0.00  0.00    +0.307 C 
ATOM     14  O   LIG    1       26.882 -32.758   5.858  0.00  0.00    -0.251 OA
ATOM     15  O   LIG    1       25.712 -31.546   7.450  0.00  0.00    -0.464 OA
ATOM     16  C   LIG    1       23.700 -32.064   6.970  0.00  0.00    +0.005 C 
ATOM     17  C   LIG    1       24.494 -30.332   8.156  0.00  0.00    +0.239 C 
ATOM     18  C   LIG    1       24.456 -32.800   8.497  0.00  0.00    +0.004 C 
ATOM     19  C   LIG    1       25.224 -32.580  12.088  0.00  0.00    +0.007 C 
ATOM     20  C   LIG    1       25.385 -29.022  10.940  0.00  0.00    +0.010 C 
ATOM     21  C   LIG    1       24.607 -31.919  13.311  0.00  0.00    +0.035 C 
ENDROOT
BRANCH   2  22
ATOM     22  O   LIG    1       24.133 -29.617  13.952  0.00  0.00    -0.388 OA
ATOM     23  H   LIG    1       24.469 -29.686  14.861  0.00  0.00    +0.210 HD
ENDBRANCH   2  22
TORSDOF 1
ENDMDL
MODEL 5
REMARK VINA RESULT:      -5.1      1.521      5.703
REMARK  Name = *****
REMARK                            x       y       z     vdW  Elec       q    Type
REMARK                         _______ _______ _______ _____ _____    ______ ____
ROOT
ATOM      1  C   LIG    1       24.662 -27.160  13.220  0.00  0.00    +0.042 C 
ATOM      2  C   LIG    1       25.754 -28.235  13.258  0.00  0.00    +0.069 C 
ATOM      3  C   LIG    1       25.388 -29.583  12.533  0.00  0.00    -0.000 C 
ATOM      4  C   LIG    1       26.198 -30.756  13.197  0.00  0.00    +0.014 C 
ATOM      5  C   LIG    1       25.965 -29.383  11.073  0.00  0.00    +0.001 C 
ATOM      6  C   LIG    1       25.135 -29.742   9.792  0.00  0.00    -0.004 C 
ATOM      7  C   LIG    1       23.391 -30.267  10.171  0.00  0.00    +0.002 C 
ATOM      8  C   LIG    1       22.975 -29.626  11.501  0.00  0.00    +0.005 C 
ATOM      9  C   LIG    1       23.161 -32.086  10.061  0.00  0.00    +0.009 C 
ATOM     10  C   LIG    1       22.232 -32.743  11.039  0.00  0.00    +0.015 C 
ATOM     11  C   LIG    1       24.028 -33.289   8.942  0.00  0.00    +0.009 C 
ATOM     12  C   LIG    1       23.232 -33.195   7.685  0.00  0.00    +0.124 C 
ATOM     13  C   LIG    1       23.674 -31.829   7.411  0.00  0.00    +0.307 C 
ATOM     14  O   LIG    1       23.668 -31.262   6.320  0.00  0.00    -0.251 OA
ATOM     15  O   LIG    1       24.210 -31.307   8.573  0.00  0.00    -0.464 OA
ATOM     16  C   LIG    1       25.829 -32.695   8.584  0.00  0.00    +0.005 C 
ATOM     17  C   LIG    1       24.520 -32.002  10.269  0.00  0.00    +0.239 C 
ATOM     18  C   LIG    1       26.215 -30.894   8.816  0.00  0.00    +0.004 C 
ATOM     19  C   LIG    1       26.604 -27.987  11.036  0.00  0.00    +0.007 C 
ATOM     20  C   LIG    1       23.889 -29.977  12.671  0.00  0.00    +0.010 C 
ATOM     21  C   LIG    1       26.991 -27.750  12.489  0.00  0.00    +0.035 C 
ENDROOT
BRANCH   2  22
ATOM     22  O   LIG    1       26.061 -28.425  14.636  0.00  0.00    -0.388 OA
ATOM     23  H   LIG    1       25.788 -29.320  14.900  0.00  0.00    +0.210 HD
ENDBRANCH   2  22
TORSDOF 1
ENDMDL
MODEL 6
REMARK VINA RESULT:      -5.1      2.021      5.960
REMARK  Name = *****
REMARK                            x       y       z     vdW  Elec       q    Type
REMARK                         _______ _______ _______ _____ _____    ______ ____
ROOT
ATOM      1  C   LIG    1       27.078 -27.524  14.981  0.00  0.00    +0.042 C 
ATOM      2  C   LIG    1       25.616 -27.869  14.676  0.00  0.00    +0.069 C 
ATOM      3  C   LIG    1       25.332 -28.318  13.195  0.00  0.00    -0.000 C 
ATOM      4  C   LIG    1       23.841 -27.972  12.833  0.00  0.00    +0.014 C 
ATOM      5  C   LIG    1       25.442 -29.895  13.262  0.00  0.00    +0.001 C 
ATOM      6  C   LIG    1       26.247 -30.720  12.199  0.00  0.00    -0.004 C 
ATOM      7  C   LIG    1       27.158 -29.653  10.977  0.00  0.00    +0.002 C 
ATOM      8  C   LIG    1       27.448 -28.303  11.643  0.00  0.00    +0.005 C 
ATOM      9  C   LIG    1       26.315 -29.570   9.348  0.00  0.00    +0.009 C 
ATOM     10  C   LIG    1       26.351 -28.271   8.597  0.00  0.00    +0.015 C 
ATOM     11  C   LIG    1       25.293 -30.878   8.512  0.00  0.00    +0.009 C 
ATOM     12  C   LIG    1       26.327 -31.718   7.842  0.00  0.00    +0.124 C 
ATOM     13  C   LIG    1       26.862 -32.215   9.109  0.00  0.00    +0.307 C 
ATOM     14  O   LIG    1       27.518 -33.241   9.275  0.00  0.00    -0.251 OA
ATOM     15  O   LIG    1       26.409 -31.389  10.122  0.00  0.00    -0.464 OA
ATOM     16  C   LIG    1       24.374 -31.952   9.825  0.00  0.00    +0.005 C 
ATOM     17  C   LIG    1       25.268 -29.923  10.170  0.00  0.00    +0.239 C 
ATOM     18  C   LIG    1       25.051 -31.985  11.553  0.00  0.00    +0.004 C 
ATOM     19  C   LIG    1       25.774 -30.255  14.718  0.00  0.00    +0.007 C 
ATOM     20  C   LIG    1       26.203 -27.576  12.141  0.00  0.00    +0.010 C 
ATOM     21  C   LIG    1       25.184 -29.090  15.500  0.00  0.00    +0.035 C 
ENDROOT
BRANCH   2  22
ATOM     22  O   LIG    1       24.863 -26.718  15.049  0.00  0.00    -0.388 OA
ATOM     23  H   LIG    1       25.474 -25.984  15.225  0.00  0.00    +0.210 HD
ENDBRANCH   2  22
TORSDOF 1
ENDMDL
MODEL 7
REMARK VINA RESULT:      -5.0      2.859      5.895
REMARK  Name = *****
REMARK                            x       y       z     vdW  Elec       q    Type
REMARK                         _______ _______ _______ _____ _____    ______ ____
ROOT
ATOM      1  C   LIG    1       26.612 -26.422  12.489  0.00  0.00    +0.042 C 
ATOM      2  C   LIG    1       26.982 -27.886  12.750  0.00  0.00    +0.069 C 
ATOM      3  C   LIG    1       25.775 -28.820  13.134  0.00  0.00    -0.000 C 
ATOM      4  C   LIG    1       26.310 -30.011  14.011  0.00  0.00    +0.014 C 
ATOM      5  C   LIG    1       25.325 -29.428  11.744  0.00  0.00    +0.001 C 
ATOM      6  C   LIG    1       23.820 -29.498  11.313  0.00  0.00    -0.004 C 
ATOM      7  C   LIG    1       22.672 -28.666  12.519  0.00  0.00    +0.002 C 
ATOM      8  C   LIG    1       23.462 -27.587  13.267  0.00  0.00    +0.005 C 
ATOM      9  C   LIG    1       21.770 -29.867  13.577  0.00  0.00    +0.009 C 
ATOM     10  C   LIG    1       21.507 -29.493  15.006  0.00  0.00    +0.015 C 
ATOM     11  C   LIG    1       21.212 -31.586  13.147  0.00  0.00    +0.009 C 
ATOM     12  C   LIG    1       19.912 -31.342  12.458  0.00  0.00    +0.124 C 
ATOM     13  C   LIG    1       20.549 -30.706  11.306  0.00  0.00    +0.307 C 
ATOM     14  O   LIG    1       20.068 -30.580  10.182  0.00  0.00    -0.251 OA
ATOM     15  O   LIG    1       21.840 -30.363  11.662  0.00  0.00    -0.464 OA
ATOM     16  C   LIG    1       22.436 -32.397  11.896  0.00  0.00    +0.005 C 
ATOM     17  C   LIG    1       22.860 -30.617  13.194  0.00  0.00    +0.239 C 
ATOM     18  C   LIG    1       23.515 -31.277  10.882  0.00  0.00    +0.004 C 
ATOM     19  C   LIG    1       26.257 -28.834  10.678  0.00  0.00    +0.007 C 
ATOM     20  C   LIG    1       24.692 -28.115  14.000  0.00  0.00    +0.010 C 
ATOM     21  C   LIG    1       27.523 -28.526  11.463  0.00  0.00    +0.035 C 
ENDROOT
BRANCH   2  22
ATOM     22  O   LIG    1       27.988 -27.856  13.759  0.00  0.00    -0.388 OA
ATOM     23  H   LIG    1       27.931 -27.012  14.237  0.00  0.00    +0.210 HD
ENDBRANCH   2  22
TORSDOF 1
ENDMDL
MODEL 8
REMARK VINA RESULT:      -5.0      2.560      4.324
REMARK  Name = *****
REMARK                            x       y       z     vdW  Elec       q    Type
REMARK                         _______ _______ _______ _____ _____    ______ ____
ROOT
ATOM      1  C   LIG    1       26.277 -31.470   5.240  0.00  0.00    +0.042 C 
ATOM      2  C   LIG    1       26.441 -32.614   6.247  0.00  0.00    +0.069 C 
ATOM      3  C   LIG    1       25.894 -32.313   7.692  0.00  0.00    -0.000 C 
ATOM      4  C   LIG    1       26.694 -33.182   8.731  0.00  0.00    +0.014 C 
ATOM      5  C   LIG    1       24.416 -32.878   7.650  0.00  0.00    +0.001 C 
ATOM      6  C   LIG    1       23.198 -32.065   8.208  0.00  0.00    -0.004 C 
ATOM      7  C   LIG    1       23.653 -30.349   8.765  0.00  0.00    +0.002 C 
ATOM      8  C   LIG    1       24.894 -29.904   7.983  0.00  0.00    +0.005 C 
ATOM      9  C   LIG    1       23.774 -30.210  10.592  0.00  0.00    +0.009 C 
ATOM     10  C   LIG    1       24.834 -29.316  11.166  0.00  0.00    +0.015 C 
ATOM     11  C   LIG    1       22.809 -31.134  11.883  0.00  0.00    +0.009 C 
ATOM     12  C   LIG    1       21.556 -30.332  11.988  0.00  0.00    +0.124 C 
ATOM     13  C   LIG    1       21.109 -30.705  10.646  0.00  0.00    +0.307 C 
ATOM     14  O   LIG    1       19.956 -30.669  10.223  0.00  0.00    -0.251 OA
ATOM     15  O   LIG    1       22.192 -31.217   9.957  0.00  0.00    -0.464 OA
ATOM     16  C   LIG    1       22.365 -32.902  11.252  0.00  0.00    +0.005 C 
ATOM     17  C   LIG    1       23.960 -31.563  10.416  0.00  0.00    +0.239 C 
ATOM     18  C   LIG    1       22.366 -33.199   9.419  0.00  0.00    +0.004 C 
ATOM     19  C   LIG    1       24.199 -33.447   6.240  0.00  0.00    +0.007 C 
ATOM     20  C   LIG    1       26.092 -30.836   8.138  0.00  0.00    +0.010 C 
ATOM     21  C   LIG    1       25.607 -33.824   5.803  0.00  0.00    +0.035 C 
ENDROOT
BRANCH   2  22
ATOM     22  O   LIG    1       27.830 -32.932   6.246  0.00  0.00    -0.388 OA
ATOM     23  H   LIG    1       28.204 -32.713   7.116  0.00  0.00    +0.210 HD
ENDBRANCH   2  22
TORSDOF 1
ENDMDL
MODEL 9
REMARK VINA RESULT:      -4.8      1.789      3.625
REMARK  Name = *****
REMARK                            x       y       z     vdW  Elec       q    Type
REMARK                         _______ _______ _______ _____ _____    ______ ____
ROOT
ATOM      1  C   LIG    1       24.290 -30.212   7.757  0.00  0.00    +0.042 C 
ATOM      2  C   LIG    1       24.197 -31.292   8.841  0.00  0.00    +0.069 C 
ATOM      3  C   LIG    1       25.161 -31.090  10.068  0.00  0.00    -0.000 C 
ATOM      4  C   LIG    1       25.483 -32.493  10.700  0.00  0.00    +0.014 C 
ATOM      5  C   LIG    1       24.267 -30.301  11.110  0.00  0.00    +0.001 C 
ATOM      6  C   LIG    1       24.801 -29.045  11.882  0.00  0.00    -0.004 C 
ATOM      7  C   LIG    1       26.497 -28.512  11.335  0.00  0.00    +0.002 C 
ATOM      8  C   LIG    1       26.700 -28.972   9.886  0.00  0.00    +0.005 C 
ATOM      9  C   LIG    1       27.810 -29.013  12.518  0.00  0.00    +0.009 C 
ATOM     10  C   LIG    1       29.140 -29.432  11.964  0.00  0.00    +0.015 C 
ATOM     11  C   LIG    1       27.690 -29.186  14.364  0.00  0.00    +0.009 C 
ATOM     12  C   LIG    1       27.912 -27.789  14.836  0.00  0.00    +0.124 C 
ATOM     13  C   LIG    1       26.646 -27.313  14.281  0.00  0.00    +0.307 C 
ATOM     14  O   LIG    1       26.028 -26.307  14.624  0.00  0.00    -0.251 OA
ATOM     15  O   LIG    1       26.194 -28.251  13.371  0.00  0.00    -0.464 OA
ATOM     16  C   LIG    1       25.913 -29.739  14.873  0.00  0.00    +0.005 C 
ATOM     17  C   LIG    1       26.816 -29.915  12.826  0.00  0.00    +0.239 C 
ATOM     18  C   LIG    1       24.527 -29.423  13.679  0.00  0.00    +0.004 C 
ATOM     19  C   LIG    1       22.895 -30.097  10.452  0.00  0.00    +0.007 C 
ATOM     20  C   LIG    1       26.537 -30.475   9.684  0.00  0.00    +0.010 C 
ATOM     21  C   LIG    1       22.803 -31.268   9.484  0.00  0.00    +0.035 C 
ENDROOT
BRANCH   2  22
ATOM     22  O   LIG    1       24.421 -32.530   8.172  0.00  0.00    -0.388 OA
ATOM     23  H   LIG    1       25.314 -32.525   7.788  0.00  0.00    +0.210 HD
ENDBRANCH   2  22
TORSDOF 1
ENDMDL
