MODEL 1
REMARK VINA RESULT:      -5.3      0.000      0.000
REMARK  Name = *****
REMARK                            x       y       z     vdW  Elec       q    Type
REMARK                         _______ _______ _______ _____ _____    ______ ____
ROOT
ATOM      1  C   LIG    1       26.501 -15.463   3.327  0.00  0.00    +0.242 C 
ATOM      2  N   LIG    1       25.769 -16.589   3.000  0.00  0.00    -0.313 N 
ATOM      3  H   LIG    1       24.959 -16.458   2.402  0.00  0.00    +0.149 HD
ATOM      4  O   LIG    1       27.567 -15.511   3.936  0.00  0.00    -0.273 OA
ENDROOT
BRANCH   1   5
ATOM      5  C   LIG    1       25.865 -14.123   2.869  0.00  0.00    +0.208 C 
BRANCH   5   7
ATOM      6  C   LIG    1       25.539 -13.025   5.161  0.00  0.00    +0.016 C 
ATOM      7  C   LIG    1       24.840 -13.495   3.868  0.00  0.00    +0.023 C 
ATOM      8  C   LIG    1       23.812 -14.574   4.297  0.00  0.00    +0.016 C 
BRANCH   7   9
ATOM      9  C   LIG    1       24.071 -12.314   3.239  0.00  0.00    +0.165 C 
BRANCH   9  10
ATOM     10  O   LIG    1       24.073 -12.416   1.814  0.00  0.00    -0.394 OA
ATOM     11  H   LIG    1       23.932 -11.512   1.466  0.00  0.00    +0.209 HD
ENDBRANCH   9  10
ENDBRANCH   7   9
ENDBRANCH   5   7
BRANCH   5  12
ATOM     12  O   LIG    1       26.932 -13.213   2.550  0.00  0.00    -0.382 OA
ATOM     13  H   LIG    1       27.764 -13.738   2.569  0.00  0.00    +0.210 HD
ENDBRANCH   5  12
ENDBRANCH   1   5
BRANCH   2  14
ATOM     14  C   LIG    1       26.143 -17.947   3.358  0.00  0.00    +0.115 C 
BRANCH  14  15
ATOM     15  C   LIG    1       24.929 -18.806   3.689  0.00  0.00    +0.139 C 
BRANCH  15  16
ATOM     16  C   LIG    1       25.354 -20.184   4.158  0.00  0.00    +0.306 C 
ATOM     17  O   LIG    1       24.602 -21.142   4.278  0.00  0.00    -0.251 OA
BRANCH  16  18
ATOM     18  O   LIG    1       26.671 -20.225   4.502  0.00  0.00    -0.481 OA
ATOM     19  H   LIG    1       26.846 -20.209   5.459  0.00  0.00    +0.295 HD
ENDBRANCH  16  18
ENDBRANCH  15  16
ENDBRANCH  14  15
ENDBRANCH   2  14
TORSDOF 9
ENDMDL
MODEL 2
REMARK VINA RESULT:      -5.1      2.087      6.113
REMARK  Name = *****
REMARK                            x       y       z     vdW  Elec       q    Type
REMARK                         _______ _______ _______ _____ _____    ______ ____
ROOT
ATOM      1  C   LIG    1       25.493 -19.783   4.448  0.00  0.00    +0.242 C 
ATOM      2  N   LIG    1       25.368 -18.735   3.555  0.00  0.00    -0.313 N 
ATOM      3  H   LIG    1       24.495 -18.662   3.042  0.00  0.00    +0.149 HD
ATOM      4  O   LIG    1       26.447 -19.901   5.213  0.00  0.00    -0.273 OA
ENDROOT
BRANCH   1   5
ATOM      5  C   LIG    1       24.331 -20.811   4.403  0.00  0.00    +0.208 C 
BRANCH   5   7
ATOM      6  C   LIG    1       23.512 -20.827   6.830  0.00  0.00    +0.016 C 
ATOM      7  C   LIG    1       23.138 -20.512   5.367  0.00  0.00    +0.023 C 
ATOM      8  C   LIG    1       21.945 -21.437   5.014  0.00  0.00    +0.016 C 
BRANCH   7   9
ATOM      9  C   LIG    1       22.664 -19.046   5.261  0.00  0.00    +0.165 C 
BRANCH   9  10
ATOM     10  O   LIG    1       22.209 -18.761   3.937  0.00  0.00    -0.394 OA
ATOM     11  H   LIG    1       22.206 -17.787   3.843  0.00  0.00    +0.209 HD
ENDBRANCH   9  10
ENDBRANCH   7   9
ENDBRANCH   5   7
BRANCH   5  12
ATOM     12  O   LIG    1       23.901 -20.934   3.036  0.00  0.00    -0.382 OA
ATOM     13  H   LIG    1       24.070 -20.064   2.609  0.00  0.00    +0.210 HD
ENDBRANCH   5  12
ENDBRANCH   1   5
BRANCH   2  14
ATOM     14  C   LIG    1       26.349 -17.675   3.388  0.00  0.00    +0.115 C 
BRANCH  14  15
ATOM     15  C   LIG    1       25.698 -16.299   3.319  0.00  0.00    +0.139 C 
BRANCH  15  16
ATOM     16  C   LIG    1       26.747 -15.211   3.188  0.00  0.00    +0.306 C 
ATOM     17  O   LIG    1       27.608 -14.970   4.022  0.00  0.00    -0.251 OA
BRANCH  16  18
ATOM     18  O   LIG    1       26.582 -14.475   2.054  0.00  0.00    -0.481 OA
ATOM     19  H   LIG    1       26.819 -14.932   1.229  0.00  0.00    +0.295 HD
ENDBRANCH  16  18
ENDBRANCH  15  16
ENDBRANCH  14  15
ENDBRANCH   2  14
TORSDOF 9
ENDMDL
MODEL 3
REMARK VINA RESULT:      -5.1      0.899      1.617
REMARK  Name = *****
REMARK                            x       y       z     vdW  Elec       q    Type
REMARK                         _______ _______ _______ _____ _____    ______ ____
ROOT
ATOM      1  C   LIG    1       26.597 -15.464   3.376  0.00  0.00    +0.242 C 
ATOM      2  N   LIG    1       25.804 -16.546   3.043  0.00  0.00    -0.313 N 
ATOM      3  H   LIG    1       25.023 -16.374   2.418  0.00  0.00    +0.149 HD
ATOM      4  O   LIG    1       27.638 -15.570   4.020  0.00  0.00    -0.273 OA
ENDROOT
BRANCH   1   5
ATOM      5  C   LIG    1       26.064 -14.094   2.877  0.00  0.00    +0.208 C 
BRANCH   5   7
ATOM      6  C   LIG    1       23.978 -14.512   4.304  0.00  0.00    +0.016 C 
ATOM      7  C   LIG    1       24.955 -13.446   3.767  0.00  0.00    +0.023 C 
ATOM      8  C   LIG    1       24.107 -12.473   2.907  0.00  0.00    +0.016 C 
BRANCH   7   9
ATOM      9  C   LIG    1       25.554 -12.653   4.950  0.00  0.00    +0.165 C 
BRANCH   9  10
ATOM     10  O   LIG    1       26.574 -13.415   5.597  0.00  0.00    -0.394 OA
ATOM     11  H   LIG    1       27.057 -13.895   4.894  0.00  0.00    +0.209 HD
ENDBRANCH   9  10
ENDBRANCH   7   9
ENDBRANCH   5   7
BRANCH   5  12
ATOM     12  O   LIG    1       27.191 -13.219   2.698  0.00  0.00    -0.382 OA
ATOM     13  H   LIG    1       27.379 -12.819   3.577  0.00  0.00    +0.210 HD
ENDBRANCH   5  12
ENDBRANCH   1   5
BRANCH   2  14
ATOM     14  C   LIG    1       26.078 -17.919   3.434  0.00  0.00    +0.115 C 
BRANCH  14  15
ATOM     15  C   LIG    1       24.800 -18.729   3.608  0.00  0.00    +0.139 C 
BRANCH  15  16
ATOM     16  C   LIG    1       25.118 -20.167   3.972  0.00  0.00    +0.306 C 
ATOM     17  O   LIG    1       24.316 -21.090   3.929  0.00  0.00    -0.251 OA
BRANCH  16  18
ATOM     18  O   LIG    1       26.393 -20.311   4.426  0.00  0.00    -0.481 OA
ATOM     19  H   LIG    1       26.471 -20.532   5.371  0.00  0.00    +0.295 HD
ENDBRANCH  16  18
ENDBRANCH  15  16
ENDBRANCH  14  15
ENDBRANCH   2  14
TORSDOF 9
ENDMDL
MODEL 4
REMARK VINA RESULT:      -4.9      1.542      2.210
REMARK  Name = *****
REMARK                            x       y       z     vdW  Elec       q    Type
REMARK                         _______ _______ _______ _____ _____    ______ ____
ROOT
ATOM      1  C   LIG    1       26.290 -16.261   3.338  0.00  0.00    +0.242 C 
ATOM      2  N   LIG    1       25.456 -17.358   3.224  0.00  0.00    -0.313 N 
ATOM      3  H   LIG    1       24.610 -17.243   2.676  0.00  0.00    +0.149 HD
ATOM      4  O   LIG    1       27.397 -16.314   3.866  0.00  0.00    -0.273 OA
ENDROOT
BRANCH   1   5
ATOM      5  C   LIG    1       25.711 -14.946   2.749  0.00  0.00    +0.208 C 
BRANCH   5   7
ATOM      6  C   LIG    1       23.749 -14.585   4.356  0.00  0.00    +0.016 C 
ATOM      7  C   LIG    1       25.052 -13.983   3.788  0.00  0.00    +0.023 C 
ATOM      8  C   LIG    1       24.649 -12.662   3.083  0.00  0.00    +0.016 C 
BRANCH   7   9
ATOM      9  C   LIG    1       26.011 -13.642   4.949  0.00  0.00    +0.165 C 
BRANCH   9  10
ATOM     10  O   LIG    1       27.297 -13.277   4.445  0.00  0.00    -0.394 OA
ATOM     11  H   LIG    1       27.774 -14.110   4.257  0.00  0.00    +0.209 HD
ENDBRANCH   9  10
ENDBRANCH   7   9
ENDBRANCH   5   7
BRANCH   5  12
ATOM     12  O   LIG    1       26.755 -14.299   2.002  0.00  0.00    -0.382 OA
ATOM     13  H   LIG    1       27.216 -15.004   1.493  0.00  0.00    +0.210 HD
ENDBRANCH   5  12
ENDBRANCH   1   5
BRANCH   2  14
ATOM     14  C   LIG    1       25.764 -18.683   3.737  0.00  0.00    +0.115 C 
BRANCH  14  15
ATOM     15  C   LIG    1       24.627 -19.667   3.498  0.00  0.00    +0.139 C 
BRANCH  15  16
ATOM     16  C   LIG    1       23.422 -19.317   4.350  0.00  0.00    +0.306 C 
ATOM     17  O   LIG    1       22.699 -18.347   4.169  0.00  0.00    -0.251 OA
BRANCH  16  18
ATOM     18  O   LIG    1       23.269 -20.173   5.398  0.00  0.00    -0.481 OA
ATOM     19  H   LIG    1       22.363 -20.502   5.531  0.00  0.00    +0.295 HD
ENDBRANCH  16  18
ENDBRANCH  15  16
ENDBRANCH  14  15
ENDBRANCH   2  14
TORSDOF 9
ENDMDL
MODEL 5
REMARK VINA RESULT:      -4.9      1.895      2.676
REMARK  Name = *****
REMARK                            x       y       z     vdW  Elec       q    Type
REMARK                         _______ _______ _______ _____ _____    ______ ____
ROOT
ATOM      1  C   LIG    1       25.738 -16.204   3.513  0.00  0.00    +0.242 C 
ATOM      2  N   LIG    1       25.860 -17.575   3.374  0.00  0.00    -0.313 N 
ATOM      3  H   LIG    1       26.800 -17.953   3.316  0.00  0.00    +0.149 HD
ATOM      4  O   LIG    1       24.664 -15.646   3.720  0.00  0.00    -0.273 OA
ENDROOT
BRANCH   1   5
ATOM      5  C   LIG    1       27.071 -15.420   3.379  0.00  0.00    +0.208 C 
BRANCH   5   7
ATOM      6  C   LIG    1       26.268 -13.158   2.483  0.00  0.00    +0.016 C 
ATOM      7  C   LIG    1       26.971 -13.884   3.650  0.00  0.00    +0.023 C 
ATOM      8  C   LIG    1       28.397 -13.282   3.740  0.00  0.00    +0.016 C 
BRANCH   7   9
ATOM      9  C   LIG    1       26.229 -13.578   4.969  0.00  0.00    +0.165 C 
BRANCH   9  10
ATOM     10  O   LIG    1       27.157 -13.213   5.992  0.00  0.00    -0.394 OA
ATOM     11  H   LIG    1       26.827 -12.382   6.390  0.00  0.00    +0.209 HD
ENDBRANCH   9  10
ENDBRANCH   7   9
ENDBRANCH   5   7
BRANCH   5  12
ATOM     12  O   LIG    1       28.044 -16.054   4.226  0.00  0.00    -0.382 OA
ATOM     13  H   LIG    1       28.903 -15.608   4.050  0.00  0.00    +0.210 HD
ENDBRANCH   5  12
ENDBRANCH   1   5
BRANCH   2  14
ATOM     14  C   LIG    1       24.748 -18.509   3.421  0.00  0.00    +0.115 C 
BRANCH  14  15
ATOM     15  C   LIG    1       25.218 -19.950   3.573  0.00  0.00    +0.139 C 
BRANCH  15  16
ATOM     16  C   LIG    1       25.881 -20.163   4.921  0.00  0.00    +0.306 C 
ATOM     17  O   LIG    1       25.286 -20.435   5.954  0.00  0.00    -0.251 OA
BRANCH  16  18
ATOM     18  O   LIG    1       27.225 -19.948   4.870  0.00  0.00    -0.481 OA
ATOM     19  H   LIG    1       27.621 -19.627   5.699  0.00  0.00    +0.295 HD
ENDBRANCH  16  18
ENDBRANCH  15  16
ENDBRANCH  14  15
ENDBRANCH   2  14
TORSDOF 9
ENDMDL
MODEL 6
REMARK VINA RESULT:      -4.7      4.817      6.329
REMARK  Name = *****
REMARK                            x       y       z     vdW  Elec       q    Type
REMARK                         _______ _______ _______ _____ _____    ______ ____
ROOT
ATOM      1  C   LIG    1       25.103 -20.974   5.872  0.00  0.00    +0.242 C 
ATOM      2  N   LIG    1       25.986 -20.786   6.919  0.00  0.00    -0.313 N 
ATOM      3  H   LIG    1       25.614 -20.387   7.775  0.00  0.00    +0.149 HD
ATOM      4  O   LIG    1       25.407 -21.561   4.837  0.00  0.00    -0.273 OA
ENDROOT
BRANCH   1   5
ATOM      5  C   LIG    1       23.689 -20.376   6.104  0.00  0.00    +0.208 C 
BRANCH   5   7
ATOM      6  C   LIG    1       22.320 -18.534   4.967  0.00  0.00    +0.016 C 
ATOM      7  C   LIG    1       22.928 -19.943   4.810  0.00  0.00    +0.023 C 
ATOM      8  C   LIG    1       21.737 -20.906   4.566  0.00  0.00    +0.016 C 
BRANCH   7   9
ATOM      9  C   LIG    1       23.841 -19.975   3.565  0.00  0.00    +0.165 C 
BRANCH   9  10
ATOM     10  O   LIG    1       24.778 -18.897   3.604  0.00  0.00    -0.394 OA
ATOM     11  H   LIG    1       24.855 -18.557   2.689  0.00  0.00    +0.209 HD
ENDBRANCH   9  10
ENDBRANCH   7   9
ENDBRANCH   5   7
BRANCH   5  12
ATOM     12  O   LIG    1       22.933 -21.318   6.884  0.00  0.00    -0.382 OA
ATOM     13  H   LIG    1       22.300 -20.792   7.423  0.00  0.00    +0.210 HD
ENDBRANCH   5  12
ENDBRANCH   1   5
BRANCH   2  14
ATOM     14  C   LIG    1       27.373 -21.221   6.914  0.00  0.00    +0.115 C 
BRANCH  14  15
ATOM     15  C   LIG    1       28.339 -20.053   7.061  0.00  0.00    +0.139 C 
BRANCH  15  16
ATOM     16  C   LIG    1       28.600 -19.396   5.718  0.00  0.00    +0.306 C 
ATOM     17  O   LIG    1       29.466 -18.557   5.510  0.00  0.00    -0.251 OA
BRANCH  16  18
ATOM     18  O   LIG    1       27.709 -19.796   4.770  0.00  0.00    -0.481 OA
ATOM     19  H   LIG    1       26.837 -20.060   5.111  0.00  0.00    +0.295 HD
ENDBRANCH  16  18
ENDBRANCH  15  16
ENDBRANCH  14  15
ENDBRANCH   2  14
TORSDOF 9
ENDMDL
MODEL 7
REMARK VINA RESULT:      -4.5      1.755      2.276
REMARK  Name = *****
REMARK                            x       y       z     vdW  Elec       q    Type
REMARK                         _______ _______ _______ _____ _____    ______ ____
ROOT
ATOM      1  C   LIG    1       26.164 -16.287   3.336  0.00  0.00    +0.242 C 
ATOM      2  N   LIG    1       25.213 -17.288   3.267  0.00  0.00    -0.313 N 
ATOM      3  H   LIG    1       24.347 -17.074   2.783  0.00  0.00    +0.149 HD
ATOM      4  O   LIG    1       27.294 -16.468   3.782  0.00  0.00    -0.273 OA
ENDROOT
BRANCH   1   5
ATOM      5  C   LIG    1       25.689 -14.907   2.808  0.00  0.00    +0.208 C 
BRANCH   5   7
ATOM      6  C   LIG    1       24.586 -12.640   3.263  0.00  0.00    +0.016 C 
ATOM      7  C   LIG    1       25.163 -13.921   3.901  0.00  0.00    +0.023 C 
ATOM      8  C   LIG    1       26.344 -13.467   4.797  0.00  0.00    +0.016 C 
BRANCH   7   9
ATOM      9  C   LIG    1       24.093 -14.575   4.802  0.00  0.00    +0.165 C 
BRANCH   9  10
ATOM     10  O   LIG    1       23.047 -15.138   4.009  0.00  0.00    -0.394 OA
ATOM     11  H   LIG    1       23.338 -15.081   3.076  0.00  0.00    +0.209 HD
ENDBRANCH   9  10
ENDBRANCH   7   9
ENDBRANCH   5   7
BRANCH   5  12
ATOM     12  O   LIG    1       26.759 -14.335   2.037  0.00  0.00    -0.382 OA
ATOM     13  H   LIG    1       26.340 -13.857   1.286  0.00  0.00    +0.210 HD
ENDBRANCH   5  12
ENDBRANCH   1   5
BRANCH   2  14
ATOM     14  C   LIG    1       25.414 -18.649   3.737  0.00  0.00    +0.115 C 
BRANCH  14  15
ATOM     15  C   LIG    1       24.174 -19.511   3.542  0.00  0.00    +0.139 C 
BRANCH  15  16
ATOM     16  C   LIG    1       23.052 -19.058   4.457  0.00  0.00    +0.306 C 
ATOM     17  O   LIG    1       22.441 -18.004   4.340  0.00  0.00    -0.251 OA
BRANCH  16  18
ATOM     18  O   LIG    1       22.839 -19.932   5.479  0.00  0.00    -0.481 OA
ATOM     19  H   LIG    1       23.086 -19.601   6.360  0.00  0.00    +0.295 HD
ENDBRANCH  16  18
ENDBRANCH  15  16
ENDBRANCH  14  15
ENDBRANCH   2  14
TORSDOF 9
ENDMDL
MODEL 8
REMARK VINA RESULT:      -4.4      1.541      2.238
REMARK  Name = *****
REMARK                            x       y       z     vdW  Elec       q    Type
REMARK                         _______ _______ _______ _____ _____    ______ ____
ROOT
ATOM      1  C   LIG    1       25.811 -16.162   3.513  0.00  0.00    +0.242 C 
ATOM      2  N   LIG    1       25.931 -17.532   3.369  0.00  0.00    -0.313 N 
ATOM      3  H   LIG    1       26.870 -17.914   3.319  0.00  0.00    +0.149 HD
ATOM      4  O   LIG    1       24.736 -15.601   3.710  0.00  0.00    -0.273 OA
ENDROOT
BRANCH   1   5
ATOM      5  C   LIG    1       27.148 -15.382   3.399  0.00  0.00    +0.208 C 
BRANCH   5   7
ATOM      6  C   LIG    1       28.443 -13.192   3.701  0.00  0.00    +0.016 C 
ATOM      7  C   LIG    1       27.045 -13.842   3.646  0.00  0.00    +0.023 C 
ATOM      8  C   LIG    1       26.391 -13.585   5.028  0.00  0.00    +0.016 C 
BRANCH   7   9
ATOM      9  C   LIG    1       26.192 -13.140   2.567  0.00  0.00    +0.165 C 
BRANCH   9  10
ATOM     10  O   LIG    1       24.927 -12.751   3.103  0.00  0.00    -0.394 OA
ATOM     11  H   LIG    1       24.570 -12.057   2.512  0.00  0.00    +0.209 HD
ENDBRANCH   9  10
ENDBRANCH   7   9
ENDBRANCH   5   7
BRANCH   5  12
ATOM     12  O   LIG    1       28.101 -16.005   4.276  0.00  0.00    -0.382 OA
ATOM     13  H   LIG    1       28.445 -15.298   4.866  0.00  0.00    +0.210 HD
ENDBRANCH   5  12
ENDBRANCH   1   5
BRANCH   2  14
ATOM     14  C   LIG    1       24.815 -18.463   3.398  0.00  0.00    +0.115 C 
BRANCH  14  15
ATOM     15  C   LIG    1       25.281 -19.914   3.418  0.00  0.00    +0.139 C 
BRANCH  15  16
ATOM     16  C   LIG    1       24.729 -20.642   4.629  0.00  0.00    +0.306 C 
ATOM     17  O   LIG    1       25.122 -20.481   5.776  0.00  0.00    -0.251 OA
BRANCH  16  18
ATOM     18  O   LIG    1       23.782 -21.559   4.288  0.00  0.00    -0.481 OA
ATOM     19  H   LIG    1       24.068 -22.223   3.638  0.00  0.00    +0.295 HD
ENDBRANCH  16  18
ENDBRANCH  15  16
ENDBRANCH  14  15
ENDBRANCH   2  14
TORSDOF 9
ENDMDL
MODEL 9
REMARK VINA RESULT:      -4.4      2.057      6.489
REMARK  Name = *****
REMARK                            x       y       z     vdW  Elec       q    Type
REMARK                         _______ _______ _______ _____ _____    ______ ____
ROOT
ATOM      1  C   LIG    1       25.078 -19.296   3.850  0.00  0.00    +0.242 C 
ATOM      2  N   LIG    1       25.989 -18.276   4.054  0.00  0.00    -0.313 N 
ATOM      3  H   LIG    1       26.506 -18.283   4.927  0.00  0.00    +0.149 HD
ATOM      4  O   LIG    1       24.489 -19.464   2.785  0.00  0.00    -0.273 OA
ENDROOT
BRANCH   1   5
ATOM      5  C   LIG    1       24.852 -20.215   5.080  0.00  0.00    +0.208 C 
BRANCH   5   7
ATOM      6  C   LIG    1       22.548 -19.114   5.288  0.00  0.00    +0.016 C 
ATOM      7  C   LIG    1       23.359 -20.409   5.502  0.00  0.00    +0.023 C 
ATOM      8  C   LIG    1       23.288 -20.721   7.019  0.00  0.00    +0.016 C 
BRANCH   7   9
ATOM      9  C   LIG    1       22.689 -21.569   4.735  0.00  0.00    +0.165 C 
BRANCH   9  10
ATOM     10  O   LIG    1       21.267 -21.453   4.794  0.00  0.00    -0.394 OA
ATOM     11  H   LIG    1       20.912 -21.929   4.016  0.00  0.00    +0.209 HD
ENDBRANCH   9  10
ENDBRANCH   7   9
ENDBRANCH   5   7
BRANCH   5  12
ATOM     12  O   LIG    1       25.506 -21.469   4.823  0.00  0.00    -0.382 OA
ATOM     13  H   LIG    1       25.209 -22.091   5.525  0.00  0.00    +0.210 HD
ENDBRANCH   5  12
ENDBRANCH   1   5
BRANCH   2  14
ATOM     14  C   LIG    1       26.333 -17.269   3.063  0.00  0.00    +0.115 C 
BRANCH  14  15
ATOM     15  C   LIG    1       25.888 -15.875   3.486  0.00  0.00    +0.139 C 
BRANCH  15  16
ATOM     16  C   LIG    1       26.873 -14.825   3.008  0.00  0.00    +0.306 C 
ATOM     17  O   LIG    1       26.791 -14.228   1.943  0.00  0.00    -0.251 OA
BRANCH  16  18
ATOM     18  O   LIG    1       27.912 -14.666   3.873  0.00  0.00    -0.481 OA
ATOM     19  H   LIG    1       28.739 -14.351   3.469  0.00  0.00    +0.295 HD
ENDBRANCH  16  18
ENDBRANCH  15  16
ENDBRANCH  14  15
ENDBRANCH   2  14
TORSDOF 9
ENDMDL
