MODEL 1
REMARK VINA RESULT:      -8.6      0.000      0.000
REMARK  Name = *****
REMARK                            x       y       z     vdW  Elec       q    Type
REMARK                         _______ _______ _______ _____ _____    ______ ____
ROOT
ATOM      1  C   LIG    1       28.832 -21.426   7.080  0.00  0.00    +0.044 C 
ATOM      2  C   LIG    1       28.459 -20.100   6.449  0.00  0.00    -0.050 C 
ATOM      3  C   LIG    1       29.331 -19.142   6.090  0.00  0.00    +0.003 C 
ENDROOT
BRANCH   3   4
ATOM      4  C   LIG    1       30.767 -19.135   6.289  0.00  0.00    +0.001 C 
ATOM      5  C   LIG    1       31.439 -19.029   7.442  0.00  0.00    +0.003 C 
BRANCH   5   6
ATOM      6  C   LIG    1       30.971 -18.974   8.829  0.00  0.00    -0.052 C 
ATOM      7  C   LIG    1       30.959 -20.064   9.624  0.00  0.00    +0.004 C 
ATOM      8  C   LIG    1       30.394 -17.681   9.360  0.00  0.00    +0.043 C 
BRANCH   7   9
ATOM      9  C   LIG    1       31.510 -21.430   9.342  0.00  0.00    +0.183 C 
BRANCH   9  10
ATOM     10  O   LIG    1       30.801 -22.380  10.130  0.00  0.00    -0.391 OA
ATOM     11  H   LIG    1       30.150 -21.889  10.660  0.00  0.00    +0.210 HD
ENDBRANCH   9  10
ENDBRANCH   7   9
ENDBRANCH   5   6
ENDBRANCH   3   4
BRANCH   2  12
ATOM     12  C   LIG    1       27.013 -19.940   6.242  0.00  0.00    +0.003 C 
ATOM     13  C   LIG    1       26.332 -20.317   5.146  0.00  0.00    +0.004 C 
BRANCH  13  14
ATOM     14  C   LIG    1       24.894 -20.135   4.940  0.00  0.00    -0.043 C 
ATOM     15  C   LIG    1       23.976 -21.142   5.688  0.00  0.00    -0.010 C 
ATOM     16  C   LIG    1       24.433 -22.613   5.531  0.00  0.00    +0.016 C 
ATOM     17  C   LIG    1       23.962 -20.808   7.197  0.00  0.00    +0.016 C 
ATOM     18  C   LIG    1       22.521 -21.093   5.145  0.00  0.00    +0.011 C 
ATOM     19  C   LIG    1       22.033 -19.673   4.928  0.00  0.00    +0.005 C 
ATOM     20  C   LIG    1       22.912 -18.975   3.903  0.00  0.00    +0.031 C 
ATOM     21  C   LIG    1       24.397 -19.180   4.112  0.00  0.00    -0.069 C 
ATOM     22  C   LIG    1       25.211 -18.226   3.268  0.00  0.00    +0.039 C 
ENDBRANCH  13  14
ENDBRANCH   2  12
TORSDOF 6
ENDMDL
MODEL 2
REMARK VINA RESULT:      -8.5      2.019      2.356
REMARK  Name = *****
REMARK                            x       y       z     vdW  Elec       q    Type
REMARK                         _______ _______ _______ _____ _____    ______ ____
ROOT
ATOM      1  C   LIG    1       28.990 -21.454   7.351  0.00  0.00    +0.044 C 
ATOM      2  C   LIG    1       28.712 -20.037   6.894  0.00  0.00    -0.050 C 
ATOM      3  C   LIG    1       29.624 -19.052   6.828  0.00  0.00    +0.003 C 
ENDROOT
BRANCH   3   4
ATOM      4  C   LIG    1       31.014 -19.106   7.236  0.00  0.00    +0.001 C 
ATOM      5  C   LIG    1       31.590 -18.502   8.282  0.00  0.00    +0.003 C 
BRANCH   5   6
ATOM      6  C   LIG    1       31.021 -17.692   9.362  0.00  0.00    -0.052 C 
ATOM      7  C   LIG    1       31.701 -16.674   9.928  0.00  0.00    +0.004 C 
ATOM      8  C   LIG    1       29.669 -18.066   9.927  0.00  0.00    +0.043 C 
BRANCH   7   9
ATOM      9  C   LIG    1       33.021 -16.093   9.519  0.00  0.00    +0.183 C 
BRANCH   9  10
ATOM     10  O   LIG    1       33.025 -14.704   9.828  0.00  0.00    -0.391 OA
ATOM     11  H   LIG    1       33.437 -14.603  10.703  0.00  0.00    +0.210 HD
ENDBRANCH   9  10
ENDBRANCH   7   9
ENDBRANCH   5   6
ENDBRANCH   3   4
BRANCH   2  12
ATOM     12  C   LIG    1       27.312 -19.815   6.504  0.00  0.00    +0.003 C 
ATOM     13  C   LIG    1       26.556 -20.662   5.784  0.00  0.00    +0.004 C 
BRANCH  13  14
ATOM     14  C   LIG    1       25.168 -20.425   5.383  0.00  0.00    -0.043 C 
ATOM     15  C   LIG    1       24.099 -21.262   6.138  0.00  0.00    -0.010 C 
ATOM     16  C   LIG    1       24.457 -22.765   6.230  0.00  0.00    +0.016 C 
ATOM     17  C   LIG    1       23.940 -20.723   7.579  0.00  0.00    +0.016 C 
ATOM     18  C   LIG    1       22.722 -21.201   5.422  0.00  0.00    +0.011 C 
ATOM     19  C   LIG    1       22.370 -19.797   4.965  0.00  0.00    +0.005 C 
ATOM     20  C   LIG    1       23.409 -19.301   3.972  0.00  0.00    +0.031 C 
ATOM     21  C   LIG    1       24.841 -19.564   4.385  0.00  0.00    -0.069 C 
ATOM     22  C   LIG    1       25.815 -18.786   3.529  0.00  0.00    +0.039 C 
ENDBRANCH  13  14
ENDBRANCH   2  12
TORSDOF 6
ENDMDL
MODEL 3
REMARK VINA RESULT:      -8.1      1.473      2.815
REMARK  Name = *****
REMARK                            x       y       z     vdW  Elec       q    Type
REMARK                         _______ _______ _______ _____ _____    ______ ____
ROOT
ATOM      1  C   LIG    1       29.049 -21.480   6.863  0.00  0.00    +0.044 C 
ATOM      2  C   LIG    1       28.600 -20.076   6.512  0.00  0.00    -0.050 C 
ATOM      3  C   LIG    1       29.420 -19.031   6.308  0.00  0.00    +0.003 C 
ENDROOT
BRANCH   3   4
ATOM      4  C   LIG    1       30.863 -18.998   6.447  0.00  0.00    +0.001 C 
ATOM      5  C   LIG    1       31.587 -19.164   7.560  0.00  0.00    +0.003 C 
BRANCH   5   6
ATOM      6  C   LIG    1       31.189 -19.502   8.928  0.00  0.00    -0.052 C 
ATOM      7  C   LIG    1       30.774 -18.565   9.806  0.00  0.00    +0.004 C 
ATOM      8  C   LIG    1       31.339 -20.929   9.406  0.00  0.00    +0.043 C 
BRANCH   7   9
ATOM      9  C   LIG    1       30.507 -17.110   9.559  0.00  0.00    +0.183 C 
BRANCH   9  10
ATOM     10  O   LIG    1       30.200 -16.485  10.800  0.00  0.00    -0.391 OA
ATOM     11  H   LIG    1       29.537 -17.039  11.247  0.00  0.00    +0.210 HD
ENDBRANCH   9  10
ENDBRANCH   7   9
ENDBRANCH   5   6
ENDBRANCH   3   4
BRANCH   2  12
ATOM     12  C   LIG    1       27.141 -19.943   6.398  0.00  0.00    +0.003 C 
ATOM     13  C   LIG    1       26.389 -20.401   5.382  0.00  0.00    +0.004 C 
BRANCH  13  14
ATOM     14  C   LIG    1       24.939 -20.246   5.266  0.00  0.00    -0.043 C 
ATOM     15  C   LIG    1       24.438 -19.570   3.959  0.00  0.00    -0.010 C 
ATOM     16  C   LIG    1       25.217 -18.281   3.604  0.00  0.00    +0.016 C 
ATOM     17  C   LIG    1       24.585 -20.555   2.777  0.00  0.00    +0.016 C 
ATOM     18  C   LIG    1       22.949 -19.143   4.078  0.00  0.00    +0.011 C 
ATOM     19  C   LIG    1       22.091 -20.211   4.730  0.00  0.00    +0.005 C 
ATOM     20  C   LIG    1       22.588 -20.483   6.141  0.00  0.00    +0.031 C 
ATOM     21  C   LIG    1       24.090 -20.626   6.256  0.00  0.00    -0.069 C 
ATOM     22  C   LIG    1       24.490 -21.195   7.598  0.00  0.00    +0.039 C 
ENDBRANCH  13  14
ENDBRANCH   2  12
TORSDOF 6
ENDMDL
MODEL 4
REMARK VINA RESULT:      -8.0      0.612      2.149
REMARK  Name = *****
REMARK                            x       y       z     vdW  Elec       q    Type
REMARK                         _______ _______ _______ _____ _____    ______ ____
ROOT
ATOM      1  C   LIG    1       28.919 -21.455   7.134  0.00  0.00    +0.044 C 
ATOM      2  C   LIG    1       28.515 -20.119   6.547  0.00  0.00    -0.050 C 
ATOM      3  C   LIG    1       29.367 -19.150   6.171  0.00  0.00    +0.003 C 
ENDROOT
BRANCH   3   4
ATOM      4  C   LIG    1       30.810 -19.139   6.308  0.00  0.00    +0.001 C 
ATOM      5  C   LIG    1       31.530 -19.024   7.430  0.00  0.00    +0.003 C 
BRANCH   5   6
ATOM      6  C   LIG    1       31.122 -18.959   8.836  0.00  0.00    -0.052 C 
ATOM      7  C   LIG    1       31.086 -20.055   9.622  0.00  0.00    +0.004 C 
ATOM      8  C   LIG    1       30.635 -17.643   9.399  0.00  0.00    +0.043 C 
BRANCH   7   9
ATOM      9  C   LIG    1       31.554 -21.444   9.308  0.00  0.00    +0.183 C 
BRANCH   9  10
ATOM     10  O   LIG    1       30.819 -22.365  10.106  0.00  0.00    -0.391 OA
ATOM     11  H   LIG    1       31.303 -23.208  10.095  0.00  0.00    +0.210 HD
ENDBRANCH   9  10
ENDBRANCH   7   9
ENDBRANCH   5   6
ENDBRANCH   3   4
BRANCH   2  12
ATOM     12  C   LIG    1       27.061 -19.961   6.405  0.00  0.00    +0.003 C 
ATOM     13  C   LIG    1       26.317 -20.429   5.387  0.00  0.00    +0.004 C 
BRANCH  13  14
ATOM     14  C   LIG    1       24.872 -20.250   5.244  0.00  0.00    -0.043 C 
ATOM     15  C   LIG    1       24.408 -19.554   3.934  0.00  0.00    -0.010 C 
ATOM     16  C   LIG    1       25.215 -18.275   3.607  0.00  0.00    +0.016 C 
ATOM     17  C   LIG    1       24.564 -20.530   2.745  0.00  0.00    +0.016 C 
ATOM     18  C   LIG    1       22.924 -19.104   4.027  0.00  0.00    +0.011 C 
ATOM     19  C   LIG    1       22.036 -20.165   4.651  0.00  0.00    +0.005 C 
ATOM     20  C   LIG    1       22.500 -20.457   6.068  0.00  0.00    +0.031 C 
ATOM     21  C   LIG    1       23.997 -20.626   6.213  0.00  0.00    -0.069 C 
ATOM     22  C   LIG    1       24.360 -21.213   7.557  0.00  0.00    +0.039 C 
ENDBRANCH  13  14
ENDBRANCH   2  12
TORSDOF 6
ENDMDL
MODEL 5
REMARK VINA RESULT:      -7.7      1.938      2.996
REMARK  Name = *****
REMARK                            x       y       z     vdW  Elec       q    Type
REMARK                         _______ _______ _______ _____ _____    ______ ____
ROOT
ATOM      1  C   LIG    1       28.896 -21.542   7.462  0.00  0.00    +0.044 C 
ATOM      2  C   LIG    1       28.544 -20.171   6.923  0.00  0.00    -0.050 C 
ATOM      3  C   LIG    1       29.425 -19.184   6.683  0.00  0.00    +0.003 C 
ENDROOT
BRANCH   3   4
ATOM      4  C   LIG    1       30.850 -19.188   6.948  0.00  0.00    +0.001 C 
ATOM      5  C   LIG    1       31.489 -18.715   8.025  0.00  0.00    +0.003 C 
BRANCH   5   6
ATOM      6  C   LIG    1       30.981 -18.139   9.273  0.00  0.00    -0.052 C 
ATOM      7  C   LIG    1       31.706 -17.270  10.007  0.00  0.00    +0.004 C 
ATOM      8  C   LIG    1       29.646 -18.605   9.807  0.00  0.00    +0.043 C 
BRANCH   7   9
ATOM      9  C   LIG    1       33.022 -16.635   9.670  0.00  0.00    +0.183 C 
BRANCH   9  10
ATOM     10  O   LIG    1       32.776 -15.383   9.040  0.00  0.00    -0.391 OA
ATOM     11  H   LIG    1       32.466 -14.769   9.727  0.00  0.00    +0.210 HD
ENDBRANCH   9  10
ENDBRANCH   7   9
ENDBRANCH   5   6
ENDBRANCH   3   4
BRANCH   2  12
ATOM     12  C   LIG    1       27.108 -19.999   6.663  0.00  0.00    +0.003 C 
ATOM     13  C   LIG    1       26.426 -20.544   5.640  0.00  0.00    +0.004 C 
BRANCH  13  14
ATOM     14  C   LIG    1       24.999 -20.351   5.378  0.00  0.00    -0.043 C 
ATOM     15  C   LIG    1       24.650 -19.707   4.007  0.00  0.00    -0.010 C 
ATOM     16  C   LIG    1       25.502 -18.454   3.689  0.00  0.00    +0.016 C 
ATOM     17  C   LIG    1       24.880 -20.736   2.876  0.00  0.00    +0.016 C 
ATOM     18  C   LIG    1       23.171 -19.232   3.964  0.00  0.00    +0.011 C 
ATOM     19  C   LIG    1       22.219 -20.252   4.562  0.00  0.00    +0.005 C 
ATOM     20  C   LIG    1       22.567 -20.488   6.023  0.00  0.00    +0.031 C 
ATOM     21  C   LIG    1       24.046 -20.671   6.291  0.00  0.00    -0.069 C 
ATOM     22  C   LIG    1       24.294 -21.204   7.683  0.00  0.00    +0.039 C 
ENDBRANCH  13  14
ENDBRANCH   2  12
TORSDOF 6
ENDMDL
MODEL 6
REMARK VINA RESULT:      -7.4      1.890      3.477
REMARK  Name = *****
REMARK                            x       y       z     vdW  Elec       q    Type
REMARK                         _______ _______ _______ _____ _____    ______ ____
ROOT
ATOM      1  C   LIG    1       27.714 -18.566   4.676  0.00  0.00    +0.044 C 
ATOM      2  C   LIG    1       27.796 -19.716   5.658  0.00  0.00    -0.050 C 
ATOM      3  C   LIG    1       28.886 -20.046   6.373  0.00  0.00    +0.003 C 
ENDROOT
BRANCH   3   4
ATOM      4  C   LIG    1       30.201 -19.441   6.309  0.00  0.00    +0.001 C 
ATOM      5  C   LIG    1       31.056 -19.220   7.315  0.00  0.00    +0.003 C 
BRANCH   5   6
ATOM      6  C   LIG    1       30.988 -19.576   8.734  0.00  0.00    -0.052 C 
ATOM      7  C   LIG    1       30.754 -18.655   9.693  0.00  0.00    +0.004 C 
ATOM      8  C   LIG    1       31.284 -20.999   9.151  0.00  0.00    +0.043 C 
BRANCH   7   9
ATOM      9  C   LIG    1       30.394 -17.209   9.528  0.00  0.00    +0.183 C 
BRANCH   9  10
ATOM     10  O   LIG    1       30.175 -16.643  10.816  0.00  0.00    -0.391 OA
ATOM     11  H   LIG    1       30.720 -15.841  10.876  0.00  0.00    +0.210 HD
ENDBRANCH   9  10
ENDBRANCH   7   9
ENDBRANCH   5   6
ENDBRANCH   3   4
BRANCH   2  12
ATOM     12  C   LIG    1       26.539 -20.468   5.781  0.00  0.00    +0.003 C 
ATOM     13  C   LIG    1       26.342 -21.540   6.569  0.00  0.00    +0.004 C 
BRANCH  13  14
ATOM     14  C   LIG    1       25.092 -22.295   6.671  0.00  0.00    -0.043 C 
ATOM     15  C   LIG    1       23.816 -21.448   6.937  0.00  0.00    -0.010 C 
ATOM     16  C   LIG    1       23.998 -20.415   8.076  0.00  0.00    +0.016 C 
ATOM     17  C   LIG    1       23.429 -20.677   5.654  0.00  0.00    +0.016 C 
ATOM     18  C   LIG    1       22.622 -22.344   7.368  0.00  0.00    +0.011 C 
ATOM     19  C   LIG    1       22.509 -23.601   6.526  0.00  0.00    +0.005 C 
ATOM     20  C   LIG    1       23.769 -24.439   6.677  0.00  0.00    +0.031 C 
ATOM     21  C   LIG    1       25.057 -23.650   6.586  0.00  0.00    -0.069 C 
ATOM     22  C   LIG    1       26.254 -24.561   6.432  0.00  0.00    +0.039 C 
ENDBRANCH  13  14
ENDBRANCH   2  12
TORSDOF 6
ENDMDL
MODEL 7
REMARK VINA RESULT:      -7.4      1.858      2.742
REMARK  Name = *****
REMARK                            x       y       z     vdW  Elec       q    Type
REMARK                         _______ _______ _______ _____ _____    ______ ____
ROOT
ATOM      1  C   LIG    1       28.216 -18.131   4.740  0.00  0.00    +0.044 C 
ATOM      2  C   LIG    1       28.307 -19.382   5.590  0.00  0.00    -0.050 C 
ATOM      3  C   LIG    1       29.366 -19.732   6.339  0.00  0.00    +0.003 C 
ENDROOT
BRANCH   3   4
ATOM      4  C   LIG    1       30.643 -19.052   6.439  0.00  0.00    +0.001 C 
ATOM      5  C   LIG    1       31.386 -18.851   7.533  0.00  0.00    +0.003 C 
BRANCH   5   6
ATOM      6  C   LIG    1       31.210 -19.304   8.916  0.00  0.00    -0.052 C 
ATOM      7  C   LIG    1       31.089 -18.437   9.943  0.00  0.00    +0.004 C 
ATOM      8  C   LIG    1       31.262 -20.785   9.216  0.00  0.00    +0.043 C 
BRANCH   7   9
ATOM      9  C   LIG    1       30.970 -16.943   9.893  0.00  0.00    +0.183 C 
BRANCH   9  10
ATOM     10  O   LIG    1       30.160 -16.513  10.981  0.00  0.00    -0.391 OA
ATOM     11  H   LIG    1       29.389 -16.056  10.605  0.00  0.00    +0.210 HD
ENDBRANCH   9  10
ENDBRANCH   7   9
ENDBRANCH   5   6
ENDBRANCH   3   4
BRANCH   2  12
ATOM     12  C   LIG    1       27.095 -20.212   5.537  0.00  0.00    +0.003 C 
ATOM     13  C   LIG    1       26.177 -20.321   6.515  0.00  0.00    +0.004 C 
BRANCH  13  14
ATOM     14  C   LIG    1       24.983 -21.165   6.462  0.00  0.00    -0.043 C 
ATOM     15  C   LIG    1       25.085 -22.520   7.216  0.00  0.00    -0.010 C 
ATOM     16  C   LIG    1       26.389 -23.292   6.905  0.00  0.00    +0.016 C 
ATOM     17  C   LIG    1       25.033 -22.270   8.741  0.00  0.00    +0.016 C 
ATOM     18  C   LIG    1       23.925 -23.476   6.822  0.00  0.00    +0.011 C 
ATOM     19  C   LIG    1       22.585 -22.766   6.761  0.00  0.00    +0.005 C 
ATOM     20  C   LIG    1       22.630 -21.667   5.712  0.00  0.00    +0.031 C 
ATOM     21  C   LIG    1       23.876 -20.808   5.761  0.00  0.00    -0.069 C 
ATOM     22  C   LIG    1       23.722 -19.563   4.917  0.00  0.00    +0.039 C 
ENDBRANCH  13  14
ENDBRANCH   2  12
TORSDOF 6
ENDMDL
MODEL 8
REMARK VINA RESULT:      -7.4      2.516      3.774
REMARK  Name = *****
REMARK                            x       y       z     vdW  Elec       q    Type
REMARK                         _______ _______ _______ _____ _____    ______ ____
ROOT
ATOM      1  C   LIG    1       29.941 -21.779   8.376  0.00  0.00    +0.044 C 
ATOM      2  C   LIG    1       29.228 -20.740   7.536  0.00  0.00    -0.050 C 
ATOM      3  C   LIG    1       29.800 -19.640   7.016  0.00  0.00    +0.003 C 
ENDROOT
BRANCH   3   4
ATOM      4  C   LIG    1       31.163 -19.182   7.199  0.00  0.00    +0.001 C 
ATOM      5  C   LIG    1       31.633 -18.347   8.133  0.00  0.00    +0.003 C 
BRANCH   5   6
ATOM      6  C   LIG    1       30.976 -17.714   9.280  0.00  0.00    -0.052 C 
ATOM      7  C   LIG    1       31.633 -16.876  10.108  0.00  0.00    +0.004 C 
ATOM      8  C   LIG    1       29.546 -18.083   9.604  0.00  0.00    +0.043 C 
BRANCH   7   9
ATOM      9  C   LIG    1       33.024 -16.331   9.973  0.00  0.00    +0.183 C 
BRANCH   9  10
ATOM     10  O   LIG    1       32.963 -15.092   9.277  0.00  0.00    -0.391 OA
ATOM     11  H   LIG    1       33.745 -14.575   9.538  0.00  0.00    +0.210 HD
ENDBRANCH   9  10
ENDBRANCH   7   9
ENDBRANCH   5   6
ENDBRANCH   3   4
BRANCH   2  12
ATOM     12  C   LIG    1       27.806 -21.043   7.317  0.00  0.00    +0.003 C 
ATOM     13  C   LIG    1       27.244 -22.262   7.398  0.00  0.00    +0.004 C 
BRANCH  13  14
ATOM     14  C   LIG    1       25.831 -22.559   7.159  0.00  0.00    -0.043 C 
ATOM     15  C   LIG    1       24.859 -21.354   7.298  0.00  0.00    -0.010 C 
ATOM     16  C   LIG    1       25.099 -20.525   8.583  0.00  0.00    +0.016 C 
ATOM     17  C   LIG    1       25.028 -20.409   6.086  0.00  0.00    +0.016 C 
ATOM     18  C   LIG    1       23.380 -21.824   7.370  0.00  0.00    +0.011 C 
ATOM     19  C   LIG    1       23.069 -22.908   6.354  0.00  0.00    +0.005 C 
ATOM     20  C   LIG    1       23.935 -24.128   6.619  0.00  0.00    +0.031 C 
ATOM     21  C   LIG    1       25.393 -23.814   6.881  0.00  0.00    -0.069 C 
ATOM     22  C   LIG    1       26.246 -25.061   6.827  0.00  0.00    +0.039 C 
ENDBRANCH  13  14
ENDBRANCH   2  12
TORSDOF 6
ENDMDL
MODEL 9
REMARK VINA RESULT:      -7.2      1.385      2.992
REMARK  Name = *****
REMARK                            x       y       z     vdW  Elec       q    Type
REMARK                         _______ _______ _______ _____ _____    ______ ____
ROOT
ATOM      1  C   LIG    1       27.679 -18.610   4.585  0.00  0.00    +0.044 C 
ATOM      2  C   LIG    1       27.759 -19.725   5.606  0.00  0.00    -0.050 C 
ATOM      3  C   LIG    1       28.847 -20.031   6.334  0.00  0.00    +0.003 C 
ENDROOT
BRANCH   3   4
ATOM      4  C   LIG    1       30.164 -19.430   6.251  0.00  0.00    +0.001 C 
ATOM      5  C   LIG    1       30.929 -18.982   7.253  0.00  0.00    +0.003 C 
BRANCH   5   6
ATOM      6  C   LIG    1       30.740 -19.024   8.705  0.00  0.00    -0.052 C 
ATOM      7  C   LIG    1       30.867 -20.167   9.411  0.00  0.00    +0.004 C 
ATOM      8  C   LIG    1       30.293 -17.771   9.425  0.00  0.00    +0.043 C 
BRANCH   7   9
ATOM      9  C   LIG    1       31.335 -21.509   8.935  0.00  0.00    +0.183 C 
BRANCH   9  10
ATOM     10  O   LIG    1       31.123 -22.461   9.972  0.00  0.00    -0.391 OA
ATOM     11  H   LIG    1       30.974 -23.323   9.547  0.00  0.00    +0.210 HD
ENDBRANCH   9  10
ENDBRANCH   7   9
ENDBRANCH   5   6
ENDBRANCH   3   4
BRANCH   2  12
ATOM     12  C   LIG    1       26.501 -20.471   5.754  0.00  0.00    +0.003 C 
ATOM     13  C   LIG    1       26.323 -21.563   6.519  0.00  0.00    +0.004 C 
BRANCH  13  14
ATOM     14  C   LIG    1       25.072 -22.312   6.645  0.00  0.00    -0.043 C 
ATOM     15  C   LIG    1       23.804 -21.458   6.924  0.00  0.00    -0.010 C 
ATOM     16  C   LIG    1       24.007 -20.418   8.052  0.00  0.00    +0.016 C 
ATOM     17  C   LIG    1       23.401 -20.694   5.642  0.00  0.00    +0.016 C 
ATOM     18  C   LIG    1       22.612 -22.345   7.379  0.00  0.00    +0.011 C 
ATOM     19  C   LIG    1       22.482 -23.608   6.548  0.00  0.00    +0.005 C 
ATOM     20  C   LIG    1       23.739 -24.450   6.686  0.00  0.00    +0.031 C 
ATOM     21  C   LIG    1       25.030 -23.667   6.570  0.00  0.00    -0.069 C 
ATOM     22  C   LIG    1       26.220 -24.585   6.404  0.00  0.00    +0.039 C 
ENDBRANCH  13  14
ENDBRANCH   2  12
TORSDOF 6
ENDMDL
