MODEL 1
REMARK VINA RESULT:      -7.9      0.000      0.000
REMARK  Name = *****
REMARK                            x       y       z     vdW  Elec       q    Type
REMARK                         _______ _______ _______ _____ _____    ______ ____
ROOT
ATOM      1  N   LIG    1       25.021 -21.094   6.597  0.00  0.00    -0.298 N 
ATOM      2  C   LIG    1       26.436 -20.906   6.706  0.00  0.00    +0.048 A 
ATOM      3  C   LIG    1       27.175 -20.191   5.739  0.00  0.00    +0.034 A 
ATOM      4  C   LIG    1       28.580 -20.093   5.816  0.00  0.00    +0.017 A 
ATOM      5  C   LIG    1       29.289 -20.647   6.869  0.00  0.00    +0.001 A 
ATOM      6  C   LIG    1       28.585 -21.291   7.875  0.00  0.00    +0.002 A 
ATOM      7  S   LIG    1       26.445 -19.331   4.375  0.00  0.00    -0.086 S 
ATOM      8  C   LIG    1       24.712 -19.575   4.659  0.00  0.00    +0.034 A 
ATOM      9  C   LIG    1       23.869 -18.835   3.806  0.00  0.00    +0.017 A 
ATOM     10  C   LIG    1       22.495 -19.007   3.826  0.00  0.00    +0.001 A 
ATOM     11  C   LIG    1       21.955 -19.953   4.684  0.00  0.00    +0.002 A 
ATOM     12  C   LIG    1       22.789 -20.666   5.556  0.00  0.00    +0.024 A 
ATOM     13  C   LIG    1       27.194 -21.415   7.779  0.00  0.00    +0.024 A 
ATOM     14  C   LIG    1       24.187 -20.472   5.618  0.00  0.00    +0.048 A 
ENDROOT
BRANCH   1  15
ATOM     15  C   LIG    1       24.388 -22.043   7.567  0.00  0.00    +0.115 C 
BRANCH  15  17
ATOM     16  C   LIG    1       22.745 -23.851   6.726  0.00  0.00    +0.010 C 
ATOM     17  C   LIG    1       24.207 -23.483   7.016  0.00  0.00    +0.018 C 
BRANCH  17  18
ATOM     18  C   LIG    1       25.015 -23.696   5.708  0.00  0.00    +0.088 C 
BRANCH  18  19
ATOM     19  N   LIG    1       25.784 -24.951   5.589  0.00  0.00    -0.308 NA
ATOM     20  C   LIG    1       25.112 -25.839   4.628  0.00  0.00    +0.104 C 
ATOM     21  C   LIG    1       25.904 -25.652   6.870  0.00  0.00    +0.104 C 
ENDBRANCH  18  19
ENDBRANCH  17  18
ENDBRANCH  15  17
ENDBRANCH   1  15
TORSDOF 4
ENDMDL
MODEL 2
REMARK VINA RESULT:      -6.8      0.225      4.154
REMARK  Name = *****
REMARK                            x       y       z     vdW  Elec       q    Type
REMARK                         _______ _______ _______ _____ _____    ______ ____
ROOT
ATOM      1  N   LIG    1       25.078 -21.148   6.514  0.00  0.00    -0.298 N 
ATOM      2  C   LIG    1       24.203 -20.548   5.553  0.00  0.00    +0.048 A 
ATOM      3  C   LIG    1       24.634 -19.527   4.678  0.00  0.00    +0.034 A 
ATOM      4  C   LIG    1       23.735 -18.886   3.801  0.00  0.00    +0.017 A 
ATOM      5  C   LIG    1       22.405 -19.265   3.721  0.00  0.00    +0.001 A 
ATOM      6  C   LIG    1       21.967 -20.315   4.513  0.00  0.00    +0.002 A 
ATOM      7  S   LIG    1       26.310 -18.972   4.560  0.00  0.00    -0.086 S 
ATOM      8  C   LIG    1       27.146 -20.048   5.694  0.00  0.00    +0.034 A 
ATOM      9  C   LIG    1       28.551 -19.945   5.671  0.00  0.00    +0.017 A 
ATOM     10  C   LIG    1       29.338 -20.634   6.579  0.00  0.00    +0.001 A 
ATOM     11  C   LIG    1       28.716 -21.409   7.545  0.00  0.00    +0.002 A 
ATOM     12  C   LIG    1       27.320 -21.538   7.549  0.00  0.00    +0.024 A 
ATOM     13  C   LIG    1       22.853 -20.927   5.407  0.00  0.00    +0.024 A 
ATOM     14  C   LIG    1       26.484 -20.910   6.599  0.00  0.00    +0.048 A 
ENDROOT
BRANCH   1  15
ATOM     15  C   LIG    1       24.453 -22.063   7.520  0.00  0.00    +0.115 C 
BRANCH  15  17
ATOM     16  C   LIG    1       22.838 -23.932   6.762  0.00  0.00    +0.010 C 
ATOM     17  C   LIG    1       24.295 -23.528   7.031  0.00  0.00    +0.018 C 
BRANCH  17  18
ATOM     18  C   LIG    1       25.103 -23.783   5.731  0.00  0.00    +0.088 C 
BRANCH  18  19
ATOM     19  N   LIG    1       25.837 -25.060   5.633  0.00  0.00    -0.308 NA
ATOM     20  C   LIG    1       25.173 -25.925   4.647  0.00  0.00    +0.104 C 
ATOM     21  C   LIG    1       25.893 -25.767   6.915  0.00  0.00    +0.104 C 
ENDBRANCH  18  19
ENDBRANCH  17  18
ENDBRANCH  15  17
ENDBRANCH   1  15
TORSDOF 4
ENDMDL
MODEL 3
REMARK VINA RESULT:      -6.7      1.952      4.826
REMARK  Name = *****
REMARK                            x       y       z     vdW  Elec       q    Type
REMARK                         _______ _______ _______ _____ _____    ______ ____
ROOT
ATOM      1  N   LIG    1       26.502 -20.647   5.260  0.00  0.00    -0.298 N 
ATOM      2  C   LIG    1       27.630 -19.999   5.856  0.00  0.00    +0.048 A 
ATOM      3  C   LIG    1       28.057 -20.291   7.170  0.00  0.00    +0.034 A 
ATOM      4  C   LIG    1       29.115 -19.578   7.772  0.00  0.00    +0.017 A 
ATOM      5  C   LIG    1       29.815 -18.600   7.084  0.00  0.00    +0.001 A 
ATOM      6  C   LIG    1       29.469 -18.342   5.767  0.00  0.00    +0.002 A 
ATOM      7  S   LIG    1       27.357 -21.569   8.174  0.00  0.00    -0.086 S 
ATOM      8  C   LIG    1       26.169 -22.301   7.080  0.00  0.00    +0.034 A 
ATOM      9  C   LIG    1       25.574 -23.482   7.567  0.00  0.00    +0.017 A 
ATOM     10  C   LIG    1       24.545 -24.105   6.881  0.00  0.00    +0.001 A 
ATOM     11  C   LIG    1       24.078 -23.525   5.712  0.00  0.00    +0.002 A 
ATOM     12  C   LIG    1       24.690 -22.369   5.209  0.00  0.00    +0.024 A 
ATOM     13  C   LIG    1       28.398 -19.027   5.183  0.00  0.00    +0.024 A 
ATOM     14  C   LIG    1       25.788 -21.741   5.839  0.00  0.00    +0.048 A 
ENDROOT
BRANCH   1  15
ATOM     15  C   LIG    1       26.023 -20.103   3.950  0.00  0.00    +0.115 C 
BRANCH  15  17
ATOM     16  C   LIG    1       25.494 -17.637   3.390  0.00  0.00    +0.010 C 
ATOM     17  C   LIG    1       25.023 -18.923   4.082  0.00  0.00    +0.018 C 
BRANCH  17  18
ATOM     18  C   LIG    1       23.632 -19.290   3.500  0.00  0.00    +0.088 C 
BRANCH  18  19
ATOM     19  N   LIG    1       22.470 -19.168   4.402  0.00  0.00    -0.308 NA
ATOM     20  C   LIG    1       22.141 -17.745   4.577  0.00  0.00    +0.104 C 
ATOM     21  C   LIG    1       22.726 -19.755   5.719  0.00  0.00    +0.104 C 
ENDBRANCH  18  19
ENDBRANCH  17  18
ENDBRANCH  15  17
ENDBRANCH   1  15
TORSDOF 4
ENDMDL
MODEL 4
REMARK VINA RESULT:      -6.5      1.863      4.576
REMARK  Name = *****
REMARK                            x       y       z     vdW  Elec       q    Type
REMARK                         _______ _______ _______ _____ _____    ______ ____
ROOT
ATOM      1  N   LIG    1       25.171 -21.406   5.632  0.00  0.00    -0.298 N 
ATOM      2  C   LIG    1       24.988 -22.772   6.015  0.00  0.00    +0.048 A 
ATOM      3  C   LIG    1       23.707 -23.341   6.181  0.00  0.00    +0.034 A 
ATOM      4  C   LIG    1       23.546 -24.662   6.646  0.00  0.00    +0.017 A 
ATOM      5  C   LIG    1       24.636 -25.476   6.909  0.00  0.00    +0.001 A 
ATOM      6  C   LIG    1       25.907 -24.973   6.684  0.00  0.00    +0.002 A 
ATOM      7  S   LIG    1       22.197 -22.498   5.805  0.00  0.00    -0.086 S 
ATOM      8  C   LIG    1       22.778 -20.952   5.160  0.00  0.00    +0.034 A 
ATOM      9  C   LIG    1       21.773 -20.134   4.605  0.00  0.00    +0.017 A 
ATOM     10  C   LIG    1       22.050 -18.850   4.168  0.00  0.00    +0.001 A 
ATOM     11  C   LIG    1       23.338 -18.360   4.317  0.00  0.00    +0.002 A 
ATOM     12  C   LIG    1       24.346 -19.183   4.838  0.00  0.00    +0.024 A 
ATOM     13  C   LIG    1       26.065 -23.650   6.254  0.00  0.00    +0.024 A 
ATOM     14  C   LIG    1       24.123 -20.521   5.231  0.00  0.00    +0.048 A 
ENDROOT
BRANCH   1  15
ATOM     15  C   LIG    1       26.567 -20.866   5.695  0.00  0.00    +0.115 C 
BRANCH  15  17
ATOM     16  C   LIG    1       25.923 -20.592   8.182  0.00  0.00    +0.010 C 
ATOM     17  C   LIG    1       26.979 -20.342   7.096  0.00  0.00    +0.018 C 
BRANCH  17  18
ATOM     18  C   LIG    1       28.308 -20.985   7.575  0.00  0.00    +0.088 C 
BRANCH  18  19
ATOM     19  N   LIG    1       29.355 -20.073   8.078  0.00  0.00    -0.308 NA
ATOM     20  C   LIG    1       29.653 -19.065   7.050  0.00  0.00    +0.104 C 
ATOM     21  C   LIG    1       30.593 -20.781   8.413  0.00  0.00    +0.104 C 
ENDBRANCH  18  19
ENDBRANCH  17  18
ENDBRANCH  15  17
ENDBRANCH   1  15
TORSDOF 4
ENDMDL
MODEL 5
REMARK VINA RESULT:      -6.2      2.013      5.729
REMARK  Name = *****
REMARK                            x       y       z     vdW  Elec       q    Type
REMARK                         _______ _______ _______ _____ _____    ______ ____
ROOT
ATOM      1  N   LIG    1       26.610 -20.513   5.334  0.00  0.00    -0.298 N 
ATOM      2  C   LIG    1       25.851 -21.564   5.940  0.00  0.00    +0.048 A 
ATOM      3  C   LIG    1       26.295 -22.243   7.095  0.00  0.00    +0.034 A 
ATOM      4  C   LIG    1       25.578 -23.335   7.625  0.00  0.00    +0.017 A 
ATOM      5  C   LIG    1       24.380 -23.755   7.068  0.00  0.00    +0.001 A 
ATOM      6  C   LIG    1       23.878 -23.062   5.978  0.00  0.00    +0.002 A 
ATOM      7  S   LIG    1       27.745 -21.795   8.006  0.00  0.00    -0.086 S 
ATOM      8  C   LIG    1       28.308 -20.356   7.137  0.00  0.00    +0.034 A 
ATOM      9  C   LIG    1       29.370 -19.672   7.762  0.00  0.00    +0.017 A 
ATOM     10  C   LIG    1       29.995 -18.600   7.150  0.00  0.00    +0.001 A 
ATOM     11  C   LIG    1       29.581 -18.224   5.881  0.00  0.00    +0.002 A 
ATOM     12  C   LIG    1       28.504 -18.882   5.272  0.00  0.00    +0.024 A 
ATOM     13  C   LIG    1       24.609 -21.999   5.434  0.00  0.00    +0.024 A 
ATOM     14  C   LIG    1       27.792 -19.934   5.890  0.00  0.00    +0.048 A 
ENDROOT
BRANCH   1  15
ATOM     15  C   LIG    1       26.140 -20.019   4.001  0.00  0.00    +0.115 C 
BRANCH  15  17
ATOM     16  C   LIG    1       25.706 -17.595   3.220  0.00  0.00    +0.010 C 
ATOM     17  C   LIG    1       25.220 -18.771   4.078  0.00  0.00    +0.018 C 
BRANCH  17  18
ATOM     18  C   LIG    1       23.769 -19.107   3.640  0.00  0.00    +0.088 C 
BRANCH  18  19
ATOM     19  N   LIG    1       22.711 -18.986   4.663  0.00  0.00    -0.308 NA
ATOM     20  C   LIG    1       21.786 -20.122   4.538  0.00  0.00    +0.104 C 
ATOM     21  C   LIG    1       21.949 -17.742   4.527  0.00  0.00    +0.104 C 
ENDBRANCH  18  19
ENDBRANCH  17  18
ENDBRANCH  15  17
ENDBRANCH   1  15
TORSDOF 4
ENDMDL
MODEL 6
REMARK VINA RESULT:      -6.2      1.841      3.075
REMARK  Name = *****
REMARK                            x       y       z     vdW  Elec       q    Type
REMARK                         _______ _______ _______ _____ _____    ______ ____
ROOT
ATOM      1  N   LIG    1       27.607 -20.810   6.404  0.00  0.00    -0.298 N 
ATOM      2  C   LIG    1       28.864 -20.561   7.041  0.00  0.00    +0.048 A 
ATOM      3  C   LIG    1       29.743 -19.549   6.598  0.00  0.00    +0.034 A 
ATOM      4  C   LIG    1       31.016 -19.378   7.180  0.00  0.00    +0.017 A 
ATOM      5  C   LIG    1       31.438 -20.159   8.245  0.00  0.00    +0.001 A 
ATOM      6  C   LIG    1       30.568 -21.112   8.752  0.00  0.00    +0.002 A 
ATOM      7  S   LIG    1       29.349 -18.389   5.321  0.00  0.00    -0.086 S 
ATOM      8  C   LIG    1       27.680 -18.826   4.916  0.00  0.00    +0.034 A 
ATOM      9  C   LIG    1       27.039 -17.935   4.032  0.00  0.00    +0.017 A 
ATOM     10  C   LIG    1       25.777 -18.202   3.530  0.00  0.00    +0.001 A 
ATOM     11  C   LIG    1       25.156 -19.389   3.886  0.00  0.00    +0.002 A 
ATOM     12  C   LIG    1       25.778 -20.261   4.790  0.00  0.00    +0.024 A 
ATOM     13  C   LIG    1       29.319 -21.302   8.150  0.00  0.00    +0.024 A 
ATOM     14  C   LIG    1       27.034 -19.995   5.380  0.00  0.00    +0.048 A 
ENDROOT
BRANCH   1  15
ATOM     15  C   LIG    1       26.864 -22.040   6.828  0.00  0.00    +0.115 C 
BRANCH  15  17
ATOM     16  C   LIG    1       25.898 -20.402   8.578  0.00  0.00    +0.010 C 
ATOM     17  C   LIG    1       26.048 -21.865   8.137  0.00  0.00    +0.018 C 
BRANCH  17  18
ATOM     18  C   LIG    1       24.622 -22.464   8.001  0.00  0.00    +0.088 C 
BRANCH  18  19
ATOM     19  N   LIG    1       24.182 -22.855   6.647  0.00  0.00    -0.308 NA
ATOM     20  C   LIG    1       23.026 -22.033   6.259  0.00  0.00    +0.104 C 
ATOM     21  C   LIG    1       23.799 -24.267   6.574  0.00  0.00    +0.104 C 
ENDBRANCH  18  19
ENDBRANCH  17  18
ENDBRANCH  15  17
ENDBRANCH   1  15
TORSDOF 4
ENDMDL
MODEL 7
REMARK VINA RESULT:      -6.1      1.983      5.101
REMARK  Name = *****
REMARK                            x       y       z     vdW  Elec       q    Type
REMARK                         _______ _______ _______ _____ _____    ______ ____
ROOT
ATOM      1  N   LIG    1       27.349 -20.867   6.341  0.00  0.00    -0.298 N 
ATOM      2  C   LIG    1       26.840 -20.029   5.299  0.00  0.00    +0.048 A 
ATOM      3  C   LIG    1       27.482 -18.832   4.916  0.00  0.00    +0.034 A 
ATOM      4  C   LIG    1       26.917 -17.973   3.950  0.00  0.00    +0.017 A 
ATOM      5  C   LIG    1       25.738 -18.293   3.297  0.00  0.00    +0.001 A 
ATOM      6  C   LIG    1       25.121 -19.498   3.596  0.00  0.00    +0.002 A 
ATOM      7  S   LIG    1       29.041 -18.299   5.561  0.00  0.00    -0.086 S 
ATOM      8  C   LIG    1       29.486 -19.641   6.631  0.00  0.00    +0.034 A 
ATOM      9  C   LIG    1       30.793 -19.565   7.153  0.00  0.00    +0.017 A 
ATOM     10  C   LIG    1       31.246 -20.474   8.094  0.00  0.00    +0.001 A 
ATOM     11  C   LIG    1       30.375 -21.453   8.547  0.00  0.00    +0.002 A 
ATOM     12  C   LIG    1       29.086 -21.549   8.005  0.00  0.00    +0.024 A 
ATOM     13  C   LIG    1       25.666 -20.332   4.579  0.00  0.00    +0.024 A 
ATOM     14  C   LIG    1       28.607 -20.687   6.994  0.00  0.00    +0.048 A 
ENDROOT
BRANCH   1  15
ATOM     15  C   LIG    1       26.470 -21.991   6.796  0.00  0.00    +0.115 C 
BRANCH  15  17
ATOM     16  C   LIG    1       25.974 -20.346   8.725  0.00  0.00    +0.010 C 
ATOM     17  C   LIG    1       25.559 -21.634   8.001  0.00  0.00    +0.018 C 
BRANCH  17  18
ATOM     18  C   LIG    1       24.078 -21.475   7.566  0.00  0.00    +0.088 C 
BRANCH  18  19
ATOM     19  N   LIG    1       23.626 -22.272   6.409  0.00  0.00    -0.308 NA
ATOM     20  C   LIG    1       22.579 -21.530   5.690  0.00  0.00    +0.104 C 
ATOM     21  C   LIG    1       23.088 -23.575   6.809  0.00  0.00    +0.104 C 
ENDBRANCH  18  19
ENDBRANCH  17  18
ENDBRANCH  15  17
ENDBRANCH   1  15
TORSDOF 4
ENDMDL
MODEL 8
REMARK VINA RESULT:      -6.1      2.074      4.992
REMARK  Name = *****
REMARK                            x       y       z     vdW  Elec       q    Type
REMARK                         _______ _______ _______ _____ _____    ______ ____
ROOT
ATOM      1  N   LIG    1       26.152 -21.175   5.727  0.00  0.00    -0.298 N 
ATOM      2  C   LIG    1       25.207 -22.206   6.033  0.00  0.00    +0.048 A 
ATOM      3  C   LIG    1       23.838 -22.089   5.709  0.00  0.00    +0.034 A 
ATOM      4  C   LIG    1       22.906 -23.074   6.098  0.00  0.00    +0.017 A 
ATOM      5  C   LIG    1       23.301 -24.222   6.766  0.00  0.00    +0.001 A 
ATOM      6  C   LIG    1       24.649 -24.402   7.033  0.00  0.00    +0.002 A 
ATOM      7  S   LIG    1       23.155 -20.749   4.776  0.00  0.00    -0.086 S 
ATOM      8  C   LIG    1       24.594 -19.794   4.377  0.00  0.00    +0.034 A 
ATOM      9  C   LIG    1       24.365 -18.740   3.471  0.00  0.00    +0.017 A 
ATOM     10  C   LIG    1       25.363 -17.835   3.152  0.00  0.00    +0.001 A 
ATOM     11  C   LIG    1       26.597 -17.960   3.771  0.00  0.00    +0.002 A 
ATOM     12  C   LIG    1       26.837 -19.027   4.648  0.00  0.00    +0.024 A 
ATOM     13  C   LIG    1       25.567 -23.407   6.675  0.00  0.00    +0.024 A 
ATOM     14  C   LIG    1       25.870 -20.013   4.946  0.00  0.00    +0.048 A 
ENDROOT
BRANCH   1  15
ATOM     15  C   LIG    1       27.525 -21.323   6.306  0.00  0.00    +0.115 C 
BRANCH  15  17
ATOM     16  C   LIG    1       26.845 -20.473   8.650  0.00  0.00    +0.010 C 
ATOM     17  C   LIG    1       27.826 -20.347   7.476  0.00  0.00    +0.018 C 
BRANCH  17  18
ATOM     18  C   LIG    1       29.259 -20.555   8.035  0.00  0.00    +0.088 C 
BRANCH  18  19
ATOM     19  N   LIG    1       30.169 -19.393   8.005  0.00  0.00    -0.308 NA
ATOM     20  C   LIG    1       30.742 -19.261   6.657  0.00  0.00    +0.104 C 
ATOM     21  C   LIG    1       31.264 -19.521   8.969  0.00  0.00    +0.104 C 
ENDBRANCH  18  19
ENDBRANCH  17  18
ENDBRANCH  15  17
ENDBRANCH   1  15
TORSDOF 4
ENDMDL
MODEL 9
REMARK VINA RESULT:      -5.5      5.468      9.440
REMARK  Name = *****
REMARK                            x       y       z     vdW  Elec       q    Type
REMARK                         _______ _______ _______ _____ _____    ______ ____
ROOT
ATOM      1  N   LIG    1       25.731 -29.593   7.442  0.00  0.00    -0.298 N 
ATOM      2  C   LIG    1       26.269 -29.488   8.764  0.00  0.00    +0.048 A 
ATOM      3  C   LIG    1       26.790 -30.604   9.454  0.00  0.00    +0.034 A 
ATOM      4  C   LIG    1       27.232 -30.499  10.789  0.00  0.00    +0.017 A 
ATOM      5  C   LIG    1       27.225 -29.288  11.462  0.00  0.00    +0.001 A 
ATOM      6  C   LIG    1       26.790 -28.158  10.788  0.00  0.00    +0.002 A 
ATOM      7  S   LIG    1       26.973 -32.211   8.736  0.00  0.00    -0.086 S 
ATOM      8  C   LIG    1       26.435 -31.943   7.068  0.00  0.00    +0.034 A 
ATOM      9  C   LIG    1       26.645 -33.035   6.202  0.00  0.00    +0.017 A 
ATOM     10  C   LIG    1       26.173 -33.022   4.901  0.00  0.00    +0.001 A 
ATOM     11  C   LIG    1       25.452 -31.922   4.465  0.00  0.00    +0.002 A 
ATOM     12  C   LIG    1       25.270 -30.822   5.314  0.00  0.00    +0.024 A 
ATOM     13  C   LIG    1       26.320 -28.272   9.474  0.00  0.00    +0.024 A 
ATOM     14  C   LIG    1       25.794 -30.763   6.625  0.00  0.00    +0.048 A 
ENDROOT
BRANCH   1  15
ATOM     15  C   LIG    1       25.020 -28.390   6.903  0.00  0.00    +0.115 C 
BRANCH  15  17
ATOM     16  C   LIG    1       25.722 -27.123   4.763  0.00  0.00    +0.010 C 
ATOM     17  C   LIG    1       25.961 -27.333   6.265  0.00  0.00    +0.018 C 
BRANCH  17  18
ATOM     18  C   LIG    1       25.822 -25.954   6.963  0.00  0.00    +0.088 C 
BRANCH  18  19
ATOM     19  N   LIG    1       25.173 -24.873   6.195  0.00  0.00    -0.308 NA
ATOM     20  C   LIG    1       25.796 -23.588   6.549  0.00  0.00    +0.104 C 
ATOM     21  C   LIG    1       23.736 -24.787   6.462  0.00  0.00    +0.104 C 
ENDBRANCH  18  19
ENDBRANCH  17  18
ENDBRANCH  15  17
ENDBRANCH   1  15
TORSDOF 4
ENDMDL
