MODEL 1
REMARK VINA RESULT:      -9.3      0.000      0.000
REMARK  Name = *****
REMARK                            x       y       z     vdW  Elec       q    Type
REMARK                         _______ _______ _______ _____ _____    ______ ____
ROOT
ATOM      1  N   LIG    1       26.210 -26.343   5.895  0.00  0.00    -0.302 NA
ATOM      2  C   LIG    1       25.657 -27.010   7.092  0.00  0.00    +0.087 C 
ATOM      3  C   LIG    1       24.371 -27.798   6.839  0.00  0.00    +0.055 C 
ATOM      4  C   LIG    1       24.534 -28.837   5.711  0.00  0.00    +0.093 C 
ATOM      5  C   LIG    1       25.099 -28.106   4.478  0.00  0.00    +0.055 C 
ATOM      6  C   LIG    1       26.366 -27.306   4.801  0.00  0.00    +0.087 C 
ENDROOT
BRANCH   4   7
ATOM      7  C   LIG    1       25.295 -30.095   6.152  0.00  0.00    -0.016 A 
ATOM      8  C   LIG    1       25.452 -30.379   7.525  0.00  0.00    +0.008 A 
ATOM      9  C   LIG    1       26.130 -31.524   7.964  0.00  0.00    +0.020 A 
ATOM     10  C   LIG    1       26.659 -32.413   7.036  0.00  0.00    +0.041 A 
ATOM     11 CL   LIG    1       27.487 -33.825   7.564  0.00  0.00    -0.084 Cl
ATOM     12  C   LIG    1       26.508 -32.171   5.677  0.00  0.00    +0.020 A 
ATOM     13  C   LIG    1       25.823 -31.031   5.244  0.00  0.00    +0.008 A 
ENDBRANCH   4   7
BRANCH   4  14
ATOM     14  O   LIG    1       23.207 -29.290   5.387  0.00  0.00    -0.384 OA
ATOM     15  H   LIG    1       22.843 -29.734   6.171  0.00  0.00    +0.211 HD
ENDBRANCH   4  14
BRANCH   1  16
ATOM     16  C   LIG    1       25.419 -25.156   5.532  0.00  0.00    +0.085 C 
BRANCH  16  17
ATOM     17  C   LIG    1       24.941 -24.344   6.748  0.00  0.00    +0.023 C 
BRANCH  17  18
ATOM     18  C   LIG    1       25.970 -23.291   7.162  0.00  0.00    +0.081 C 
BRANCH  18  20
ATOM     19  O   LIG    1       25.274 -21.607   8.717  0.00  0.00    -0.292 OA
ATOM     20  C   LIG    1       25.306 -21.978   7.548  0.00  0.00    +0.163 C 
BRANCH  20  21
ATOM     21  C   LIG    1       24.640 -21.148   6.489  0.00  0.00    +0.018 A 
ATOM     22  C   LIG    1       25.388 -20.772   5.359  0.00  0.00    +0.014 A 
ATOM     23  C   LIG    1       24.798 -20.000   4.353  0.00  0.00    +0.039 A 
ATOM     24  C   LIG    1       23.477 -19.592   4.485  0.00  0.00    +0.123 A 
ATOM     25  F   LIG    1       22.913 -18.845   3.530  0.00  0.00    -0.205 F 
ATOM     26  C   LIG    1       22.731 -19.947   5.602  0.00  0.00    +0.039 A 
ATOM     27  C   LIG    1       23.315 -20.725   6.604  0.00  0.00    +0.014 A 
ENDBRANCH  20  21
ENDBRANCH  18  20
ENDBRANCH  17  18
ENDBRANCH  16  17
ENDBRANCH   1  16
TORSDOF 7
ENDMDL
MODEL 2
REMARK VINA RESULT:      -9.2      5.692      8.048
REMARK  Name = *****
REMARK                            x       y       z     vdW  Elec       q    Type
REMARK                         _______ _______ _______ _____ _____    ______ ____
ROOT
ATOM      1  N   LIG    1       28.251 -20.677   6.887  0.00  0.00    -0.302 NA
ATOM      2  C   LIG    1       27.894 -21.590   7.991  0.00  0.00    +0.087 C 
ATOM      3  C   LIG    1       26.495 -21.367   8.569  0.00  0.00    +0.055 C 
ATOM      4  C   LIG    1       25.398 -21.429   7.486  0.00  0.00    +0.093 C 
ATOM      5  C   LIG    1       25.797 -20.457   6.358  0.00  0.00    +0.055 C 
ATOM      6  C   LIG    1       27.219 -20.707   5.845  0.00  0.00    +0.087 C 
ENDROOT
BRANCH   4   7
ATOM      7  C   LIG    1       25.060 -22.862   7.049  0.00  0.00    -0.016 A 
ATOM      8  C   LIG    1       26.088 -23.817   6.911  0.00  0.00    +0.008 A 
ATOM      9  C   LIG    1       25.815 -25.136   6.526  0.00  0.00    +0.020 A 
ATOM     10  C   LIG    1       24.506 -25.528   6.279  0.00  0.00    +0.041 A 
ATOM     11 CL   LIG    1       24.159 -27.147   5.813  0.00  0.00    -0.084 Cl
ATOM     12  C   LIG    1       23.469 -24.616   6.421  0.00  0.00    +0.020 A 
ATOM     13  C   LIG    1       23.745 -23.302   6.815  0.00  0.00    +0.008 A 
ENDBRANCH   4   7
BRANCH   4  14
ATOM     14  O   LIG    1       24.198 -20.926   8.100  0.00  0.00    -0.384 OA
ATOM     15  H   LIG    1       24.342 -19.990   8.314  0.00  0.00    +0.211 HD
ENDBRANCH   4  14
BRANCH   1  16
ATOM     16  C   LIG    1       28.549 -19.325   7.386  0.00  0.00    +0.085 C 
BRANCH  16  17
ATOM     17  C   LIG    1       29.603 -18.581   6.549  0.00  0.00    +0.023 C 
BRANCH  17  18
ATOM     18  C   LIG    1       30.983 -19.224   6.679  0.00  0.00    +0.081 C 
BRANCH  18  20
ATOM     19  O   LIG    1       31.408 -20.760   8.468  0.00  0.00    -0.292 OA
ATOM     20  C   LIG    1       31.300 -19.588   8.121  0.00  0.00    +0.163 C 
BRANCH  20  21
ATOM     21  C   LIG    1       31.436 -18.498   9.145  0.00  0.00    +0.018 A 
ATOM     22  C   LIG    1       30.632 -18.554  10.298  0.00  0.00    +0.014 A 
ATOM     23  C   LIG    1       30.734 -17.556  11.273  0.00  0.00    +0.039 A 
ATOM     24  C   LIG    1       31.620 -16.502  11.087  0.00  0.00    +0.123 A 
ATOM     25  F   LIG    1       31.713 -15.540  12.012  0.00  0.00    -0.205 F 
ATOM     26  C   LIG    1       32.412 -16.430   9.948  0.00  0.00    +0.039 A 
ATOM     27  C   LIG    1       32.317 -17.429   8.976  0.00  0.00    +0.014 A 
ENDBRANCH  20  21
ENDBRANCH  18  20
ENDBRANCH  17  18
ENDBRANCH  16  17
ENDBRANCH   1  16
TORSDOF 7
ENDMDL
MODEL 3
REMARK VINA RESULT:      -8.9      7.262      9.869
REMARK  Name = *****
REMARK                            x       y       z     vdW  Elec       q    Type
REMARK                         _______ _______ _______ _____ _____    ______ ____
ROOT
ATOM      1  N   LIG    1       27.645 -20.131   8.020  0.00  0.00    -0.302 NA
ATOM      2  C   LIG    1       27.684 -20.016   6.548  0.00  0.00    +0.087 C 
ATOM      3  C   LIG    1       27.169 -21.249   5.803  0.00  0.00    +0.055 C 
ATOM      4  C   LIG    1       25.745 -21.646   6.242  0.00  0.00    +0.093 C 
ATOM      5  C   LIG    1       25.745 -21.769   7.779  0.00  0.00    +0.055 C 
ATOM      6  C   LIG    1       26.303 -20.519   8.466  0.00  0.00    +0.087 C 
ENDROOT
BRANCH   4   7
ATOM      7  C   LIG    1       24.654 -20.748   5.642  0.00  0.00    -0.016 A 
ATOM      8  C   LIG    1       24.870 -20.110   4.403  0.00  0.00    +0.008 A 
ATOM      9  C   LIG    1       23.893 -19.294   3.819  0.00  0.00    +0.020 A 
ATOM     10  C   LIG    1       22.675 -19.105   4.460  0.00  0.00    +0.041 A 
ATOM     11 CL   LIG    1       21.466 -18.111   3.749  0.00  0.00    -0.084 Cl
ATOM     12  C   LIG    1       22.425 -19.732   5.673  0.00  0.00    +0.020 A 
ATOM     13  C   LIG    1       23.400 -20.554   6.249  0.00  0.00    +0.008 A 
ENDBRANCH   4   7
BRANCH   4  14
ATOM     14  O   LIG    1       25.505 -22.954   5.693  0.00  0.00    -0.384 OA
ATOM     15  H   LIG    1       25.618 -22.900   4.730  0.00  0.00    +0.211 HD
ENDBRANCH   4  14
BRANCH   1  16
ATOM     16  C   LIG    1       28.713 -21.016   8.515  0.00  0.00    +0.085 C 
BRANCH  16  17
ATOM     17  C   LIG    1       30.019 -20.906   7.711  0.00  0.00    +0.023 C 
BRANCH  17  18
ATOM     18  C   LIG    1       31.109 -20.182   8.503  0.00  0.00    +0.081 C 
BRANCH  18  20
ATOM     19  O   LIG    1       30.624 -18.181   7.278  0.00  0.00    -0.292 OA
ATOM     20  C   LIG    1       31.020 -18.674   8.330  0.00  0.00    +0.163 C 
BRANCH  20  21
ATOM     21  C   LIG    1       31.467 -17.774   9.447  0.00  0.00    +0.018 A 
ATOM     22  C   LIG    1       30.809 -17.863  10.686  0.00  0.00    +0.014 A 
ATOM     23  C   LIG    1       31.201 -17.040  11.748  0.00  0.00    +0.039 A 
ATOM     24  C   LIG    1       32.231 -16.126  11.564  0.00  0.00    +0.123 A 
ATOM     25  F   LIG    1       32.602 -15.331  12.575  0.00  0.00    -0.205 F 
ATOM     26  C   LIG    1       32.881 -16.022  10.342  0.00  0.00    +0.039 A 
ATOM     27  C   LIG    1       32.497 -16.847   9.282  0.00  0.00    +0.014 A 
ENDBRANCH  20  21
ENDBRANCH  18  20
ENDBRANCH  17  18
ENDBRANCH  16  17
ENDBRANCH   1  16
TORSDOF 7
ENDMDL
MODEL 4
REMARK VINA RESULT:      -8.8      3.398      4.481
REMARK  Name = *****
REMARK                            x       y       z     vdW  Elec       q    Type
REMARK                         _______ _______ _______ _____ _____    ______ ____
ROOT
ATOM      1  N   LIG    1       24.356 -23.669   6.883  0.00  0.00    -0.302 NA
ATOM      2  C   LIG    1       23.510 -24.805   6.465  0.00  0.00    +0.087 C 
ATOM      3  C   LIG    1       24.134 -25.696   5.390  0.00  0.00    +0.055 C 
ATOM      4  C   LIG    1       25.523 -26.225   5.802  0.00  0.00    +0.093 C 
ATOM      5  C   LIG    1       26.381 -25.015   6.219  0.00  0.00    +0.055 C 
ATOM      6  C   LIG    1       25.689 -24.142   7.272  0.00  0.00    +0.087 C 
ENDROOT
BRANCH   4   7
ATOM      7  C   LIG    1       25.456 -27.380   6.812  0.00  0.00    -0.016 A 
ATOM      8  C   LIG    1       24.517 -28.417   6.635  0.00  0.00    +0.008 A 
ATOM      9  C   LIG    1       24.436 -29.492   7.529  0.00  0.00    +0.020 A 
ATOM     10  C   LIG    1       25.298 -29.555   8.616  0.00  0.00    +0.041 A 
ATOM     11 CL   LIG    1       25.211 -30.874   9.716  0.00  0.00    -0.084 Cl
ATOM     12  C   LIG    1       26.245 -28.558   8.810  0.00  0.00    +0.020 A 
ATOM     13  C   LIG    1       26.328 -27.491   7.910  0.00  0.00    +0.008 A 
ENDBRANCH   4   7
BRANCH   4  14
ATOM     14  O   LIG    1       26.106 -26.792   4.615  0.00  0.00    -0.384 OA
ATOM     15  H   LIG    1       27.071 -26.701   4.683  0.00  0.00    +0.211 HD
ENDBRANCH   4  14
BRANCH   1  16
ATOM     16  C   LIG    1       24.377 -22.613   5.859  0.00  0.00    +0.085 C 
BRANCH  16  17
ATOM     17  C   LIG    1       24.233 -21.195   6.438  0.00  0.00    +0.023 C 
BRANCH  17  18
ATOM     18  C   LIG    1       25.542 -20.702   7.054  0.00  0.00    +0.081 C 
BRANCH  18  20
ATOM     19  O   LIG    1       26.179 -20.117   4.820  0.00  0.00    -0.292 OA
ATOM     20  C   LIG    1       26.528 -20.247   5.989  0.00  0.00    +0.163 C 
BRANCH  20  21
ATOM     21  C   LIG    1       27.961 -19.999   6.366  0.00  0.00    +0.018 A 
ATOM     22  C   LIG    1       28.684 -19.024   5.656  0.00  0.00    +0.014 A 
ATOM     23  C   LIG    1       30.020 -18.768   5.981  0.00  0.00    +0.039 A 
ATOM     24  C   LIG    1       30.631 -19.493   6.997  0.00  0.00    +0.123 A 
ATOM     25  F   LIG    1       31.912 -19.256   7.304  0.00  0.00    -0.205 F 
ATOM     26  C   LIG    1       29.931 -20.465   7.698  0.00  0.00    +0.039 A 
ATOM     27  C   LIG    1       28.595 -20.719   7.380  0.00  0.00    +0.014 A 
ENDBRANCH  20  21
ENDBRANCH  18  20
ENDBRANCH  17  18
ENDBRANCH  16  17
ENDBRANCH   1  16
TORSDOF 7
ENDMDL
MODEL 5
REMARK VINA RESULT:      -8.7      6.001      9.528
REMARK  Name = *****
REMARK                            x       y       z     vdW  Elec       q    Type
REMARK                         _______ _______ _______ _____ _____    ______ ____
ROOT
ATOM      1  N   LIG    1       27.914 -21.365   8.339  0.00  0.00    -0.302 NA
ATOM      2  C   LIG    1       29.368 -21.535   8.535  0.00  0.00    +0.087 C 
ATOM      3  C   LIG    1       30.233 -20.860   7.468  0.00  0.00    +0.055 C 
ATOM      4  C   LIG    1       29.915 -19.359   7.320  0.00  0.00    +0.093 C 
ATOM      5  C   LIG    1       28.395 -19.220   7.106  0.00  0.00    +0.055 C 
ATOM      6  C   LIG    1       27.583 -19.944   8.185  0.00  0.00    +0.087 C 
ENDROOT
BRANCH   4   7
ATOM      7  C   LIG    1       30.515 -18.500   8.442  0.00  0.00    -0.016 A 
ATOM      8  C   LIG    1       31.858 -18.077   8.365  0.00  0.00    +0.008 A 
ATOM      9  C   LIG    1       32.435 -17.282   9.364  0.00  0.00    +0.020 A 
ATOM     10  C   LIG    1       31.676 -16.887  10.458  0.00  0.00    +0.041 A 
ATOM     11 CL   LIG    1       32.372 -15.905  11.687  0.00  0.00    -0.084 Cl
ATOM     12  C   LIG    1       30.346 -17.272  10.557  0.00  0.00    +0.020 A 
ATOM     13  C   LIG    1       29.771 -18.059   9.552  0.00  0.00    +0.008 A 
ENDBRANCH   4   7
BRANCH   4  14
ATOM     14  O   LIG    1       30.573 -18.925   6.116  0.00  0.00    -0.384 OA
ATOM     15  H   LIG    1       31.335 -18.379   6.372  0.00  0.00    +0.211 HD
ENDBRANCH   4  14
BRANCH   1  16
ATOM     16  C   LIG    1       27.420 -22.211   7.241  0.00  0.00    +0.085 C 
BRANCH  16  17
ATOM     17  C   LIG    1       26.160 -23.013   7.606  0.00  0.00    +0.023 C 
BRANCH  17  18
ATOM     18  C   LIG    1       25.423 -23.503   6.359  0.00  0.00    +0.081 C 
BRANCH  18  20
ATOM     19  O   LIG    1       23.056 -23.515   6.730  0.00  0.00    -0.292 OA
ATOM     20  C   LIG    1       24.023 -22.917   6.269  0.00  0.00    +0.163 C 
BRANCH  20  21
ATOM     21  C   LIG    1       23.813 -21.608   5.562  0.00  0.00    +0.018 A 
ATOM     22  C   LIG    1       24.765 -21.197   4.611  0.00  0.00    +0.014 A 
ATOM     23  C   LIG    1       24.600 -19.985   3.934  0.00  0.00    +0.039 A 
ATOM     24  C   LIG    1       23.502 -19.182   4.218  0.00  0.00    +0.123 A 
ATOM     25  F   LIG    1       23.346 -18.017   3.579  0.00  0.00    -0.205 F 
ATOM     26  C   LIG    1       22.561 -19.572   5.162  0.00  0.00    +0.039 A 
ATOM     27  C   LIG    1       22.719 -20.786   5.835  0.00  0.00    +0.014 A 
ENDBRANCH  20  21
ENDBRANCH  18  20
ENDBRANCH  17  18
ENDBRANCH  16  17
ENDBRANCH   1  16
TORSDOF 7
ENDMDL
MODEL 6
REMARK VINA RESULT:      -8.7      1.773      2.341
REMARK  Name = *****
REMARK                            x       y       z     vdW  Elec       q    Type
REMARK                         _______ _______ _______ _____ _____    ______ ____
ROOT
ATOM      1  N   LIG    1       26.197 -26.329   5.990  0.00  0.00    -0.302 NA
ATOM      2  C   LIG    1       25.654 -27.035   7.169  0.00  0.00    +0.087 C 
ATOM      3  C   LIG    1       24.382 -27.839   6.894  0.00  0.00    +0.055 C 
ATOM      4  C   LIG    1       24.564 -28.847   5.742  0.00  0.00    +0.093 C 
ATOM      5  C   LIG    1       25.119 -28.076   4.528  0.00  0.00    +0.055 C 
ATOM      6  C   LIG    1       26.371 -27.263   4.872  0.00  0.00    +0.087 C 
ENDROOT
BRANCH   4   7
ATOM      7  C   LIG    1       25.347 -30.102   6.153  0.00  0.00    -0.016 A 
ATOM      8  C   LIG    1       25.534 -30.400   7.519  0.00  0.00    +0.008 A 
ATOM      9  C   LIG    1       26.231 -31.542   7.931  0.00  0.00    +0.020 A 
ATOM     10  C   LIG    1       26.751 -32.416   6.984  0.00  0.00    +0.041 A 
ATOM     11 CL   LIG    1       27.603 -33.825   7.479  0.00  0.00    -0.084 Cl
ATOM     12  C   LIG    1       26.571 -32.160   5.631  0.00  0.00    +0.020 A 
ATOM     13  C   LIG    1       25.865 -31.023   5.224  0.00  0.00    +0.008 A 
ENDBRANCH   4   7
BRANCH   4  14
ATOM     14  O   LIG    1       23.246 -29.315   5.404  0.00  0.00    -0.384 OA
ATOM     15  H   LIG    1       22.611 -28.623   5.652  0.00  0.00    +0.211 HD
ENDBRANCH   4  14
BRANCH   1  16
ATOM     16  C   LIG    1       25.386 -25.148   5.655  0.00  0.00    +0.085 C 
BRANCH  16  17
ATOM     17  C   LIG    1       25.118 -24.228   6.857  0.00  0.00    +0.023 C 
BRANCH  17  18
ATOM     18  C   LIG    1       23.991 -23.236   6.568  0.00  0.00    +0.081 C 
BRANCH  18  20
ATOM     19  O   LIG    1       23.380 -21.340   7.899  0.00  0.00    -0.292 OA
ATOM     20  C   LIG    1       24.247 -21.889   7.225  0.00  0.00    +0.163 C 
BRANCH  20  21
ATOM     21  C   LIG    1       25.563 -21.198   7.008  0.00  0.00    +0.018 A 
ATOM     22  C   LIG    1       26.425 -21.032   8.106  0.00  0.00    +0.014 A 
ATOM     23  C   LIG    1       27.658 -20.394   7.939  0.00  0.00    +0.039 A 
ATOM     24  C   LIG    1       28.018 -19.912   6.686  0.00  0.00    +0.123 A 
ATOM     25  F   LIG    1       29.193 -19.292   6.524  0.00  0.00    -0.205 F 
ATOM     26  C   LIG    1       27.171 -20.061   5.596  0.00  0.00    +0.039 A 
ATOM     27  C   LIG    1       25.942 -20.703   5.759  0.00  0.00    +0.014 A 
ENDBRANCH  20  21
ENDBRANCH  18  20
ENDBRANCH  17  18
ENDBRANCH  16  17
ENDBRANCH   1  16
TORSDOF 7
ENDMDL
MODEL 7
REMARK VINA RESULT:      -8.6      4.703      9.034
REMARK  Name = *****
REMARK                            x       y       z     vdW  Elec       q    Type
REMARK                         _______ _______ _______ _____ _____    ______ ____
ROOT
ATOM      1  N   LIG    1       25.249 -23.095   5.916  0.00  0.00    -0.302 NA
ATOM      2  C   LIG    1       25.348 -21.634   5.725  0.00  0.00    +0.087 C 
ATOM      3  C   LIG    1       25.247 -20.819   7.016  0.00  0.00    +0.055 C 
ATOM      4  C   LIG    1       26.281 -21.262   8.071  0.00  0.00    +0.093 C 
ATOM      5  C   LIG    1       26.142 -22.786   8.253  0.00  0.00    +0.055 C 
ATOM      6  C   LIG    1       26.216 -23.544   6.923  0.00  0.00    +0.087 C 
ENDROOT
BRANCH   4   7
ATOM      7  C   LIG    1       27.699 -20.748   7.781  0.00  0.00    -0.016 A 
ATOM      8  C   LIG    1       27.893 -19.694   6.866  0.00  0.00    +0.008 A 
ATOM      9  C   LIG    1       29.170 -19.191   6.586  0.00  0.00    +0.020 A 
ATOM     10  C   LIG    1       30.280 -19.729   7.225  0.00  0.00    +0.041 A 
ATOM     11 CL   LIG    1       31.852 -19.115   6.895  0.00  0.00    -0.084 Cl
ATOM     12  C   LIG    1       30.122 -20.758   8.144  0.00  0.00    +0.020 A 
ATOM     13  C   LIG    1       28.843 -21.251   8.426  0.00  0.00    +0.008 A 
ENDBRANCH   4   7
BRANCH   4  14
ATOM     14  O   LIG    1       25.893 -20.632   9.305  0.00  0.00    -0.384 OA
ATOM     15  H   LIG    1       25.093 -20.108   9.134  0.00  0.00    +0.211 HD
ENDBRANCH   4  14
BRANCH   1  16
ATOM     16  C   LIG    1       23.865 -23.504   6.200  0.00  0.00    +0.085 C 
BRANCH  16  17
ATOM     17  C   LIG    1       23.723 -25.001   6.525  0.00  0.00    +0.023 C 
BRANCH  17  18
ATOM     18  C   LIG    1       24.113 -25.876   5.334  0.00  0.00    +0.081 C 
BRANCH  18  20
ATOM     19  O   LIG    1       26.366 -26.596   4.953  0.00  0.00    -0.292 OA
ATOM     20  C   LIG    1       25.349 -26.710   5.631  0.00  0.00    +0.163 C 
BRANCH  20  21
ATOM     21  C   LIG    1       25.310 -27.722   6.740  0.00  0.00    +0.018 A 
ATOM     22  C   LIG    1       26.230 -27.598   7.796  0.00  0.00    +0.014 A 
ATOM     23  C   LIG    1       26.220 -28.523   8.846  0.00  0.00    +0.039 A 
ATOM     24  C   LIG    1       25.308 -29.572   8.829  0.00  0.00    +0.123 A 
ATOM     25  F   LIG    1       25.303 -30.463   9.827  0.00  0.00    -0.205 F 
ATOM     26  C   LIG    1       24.402 -29.711   7.786  0.00  0.00    +0.039 A 
ATOM     27  C   LIG    1       24.405 -28.785   6.740  0.00  0.00    +0.014 A 
ENDBRANCH  20  21
ENDBRANCH  18  20
ENDBRANCH  17  18
ENDBRANCH  16  17
ENDBRANCH   1  16
TORSDOF 7
ENDMDL
MODEL 8
REMARK VINA RESULT:      -8.6      5.829      9.648
REMARK  Name = *****
REMARK                            x       y       z     vdW  Elec       q    Type
REMARK                         _______ _______ _______ _____ _____    ______ ____
ROOT
ATOM      1  N   LIG    1       26.702 -20.127   6.482  0.00  0.00    -0.302 NA
ATOM      2  C   LIG    1       26.937 -20.180   7.940  0.00  0.00    +0.087 C 
ATOM      3  C   LIG    1       28.082 -21.103   8.363  0.00  0.00    +0.055 C 
ATOM      4  C   LIG    1       29.405 -20.757   7.650  0.00  0.00    +0.093 C 
ATOM      5  C   LIG    1       29.127 -20.722   6.135  0.00  0.00    +0.055 C 
ATOM      6  C   LIG    1       27.948 -19.810   5.777  0.00  0.00    +0.087 C 
ENDROOT
BRANCH   4   7
ATOM      7  C   LIG    1       30.101 -19.518   8.233  0.00  0.00    -0.016 A 
ATOM      8  C   LIG    1       31.375 -19.140   7.763  0.00  0.00    +0.008 A 
ATOM      9  C   LIG    1       32.034 -18.009   8.262  0.00  0.00    +0.020 A 
ATOM     10  C   LIG    1       31.427 -17.228   9.238  0.00  0.00    +0.041 A 
ATOM     11 CL   LIG    1       32.224 -15.834   9.852  0.00  0.00    -0.084 Cl
ATOM     12  C   LIG    1       30.165 -17.564   9.710  0.00  0.00    +0.020 A 
ATOM     13  C   LIG    1       29.506 -18.689   9.202  0.00  0.00    +0.008 A 
ENDBRANCH   4   7
BRANCH   4  14
ATOM     14  O   LIG    1       30.300 -21.853   7.910  0.00  0.00    -0.384 OA
ATOM     15  H   LIG    1       31.133 -21.485   8.249  0.00  0.00    +0.211 HD
ENDBRANCH   4  14
BRANCH   1  16
ATOM     16  C   LIG    1       26.044 -21.352   6.002  0.00  0.00    +0.085 C 
BRANCH  16  17
ATOM     17  C   LIG    1       24.582 -21.482   6.461  0.00  0.00    +0.023 C 
BRANCH  17  18
ATOM     18  C   LIG    1       24.404 -22.626   7.459  0.00  0.00    +0.081 C 
BRANCH  18  20
ATOM     19  O   LIG    1       22.428 -23.799   6.779  0.00  0.00    -0.292 OA
ATOM     20  C   LIG    1       23.654 -23.797   6.843  0.00  0.00    +0.163 C 
BRANCH  20  21
ATOM     21  C   LIG    1       24.421 -24.990   6.349  0.00  0.00    +0.018 A 
ATOM     22  C   LIG    1       25.808 -25.040   6.579  0.00  0.00    +0.014 A 
ATOM     23  C   LIG    1       26.553 -26.136   6.133  0.00  0.00    +0.039 A 
ATOM     24  C   LIG    1       25.919 -27.165   5.448  0.00  0.00    +0.123 A 
ATOM     25  F   LIG    1       26.630 -28.211   5.011  0.00  0.00    -0.205 F 
ATOM     26  C   LIG    1       24.552 -27.122   5.204  0.00  0.00    +0.039 A 
ATOM     27  C   LIG    1       23.804 -26.032   5.654  0.00  0.00    +0.014 A 
ENDBRANCH  20  21
ENDBRANCH  18  20
ENDBRANCH  17  18
ENDBRANCH  16  17
ENDBRANCH   1  16
TORSDOF 7
ENDMDL
MODEL 9
REMARK VINA RESULT:      -8.4      4.461      8.353
REMARK  Name = *****
REMARK                            x       y       z     vdW  Elec       q    Type
REMARK                         _______ _______ _______ _____ _____    ______ ____
ROOT
ATOM      1  N   LIG    1       24.155 -29.336   6.571  0.00  0.00    -0.302 NA
ATOM      2  C   LIG    1       24.739 -28.579   7.697  0.00  0.00    +0.087 C 
ATOM      3  C   LIG    1       26.062 -27.884   7.372  0.00  0.00    +0.055 C 
ATOM      4  C   LIG    1       25.951 -26.958   6.144  0.00  0.00    +0.093 C 
ATOM      5  C   LIG    1       25.350 -27.782   4.988  0.00  0.00    +0.055 C 
ATOM      6  C   LIG    1       24.046 -28.482   5.384  0.00  0.00    +0.087 C 
ENDROOT
BRANCH   4   7
ATOM      7  C   LIG    1       25.251 -25.626   6.451  0.00  0.00    -0.016 A 
ATOM      8  C   LIG    1       26.003 -24.525   6.909  0.00  0.00    +0.008 A 
ATOM      9  C   LIG    1       25.401 -23.291   7.188  0.00  0.00    +0.020 A 
ATOM     10  C   LIG    1       24.033 -23.132   7.006  0.00  0.00    +0.041 A 
ATOM     11 CL   LIG    1       23.284 -21.620   7.338  0.00  0.00    -0.084 Cl
ATOM     12  C   LIG    1       23.266 -24.192   6.540  0.00  0.00    +0.020 A 
ATOM     13  C   LIG    1       23.873 -25.420   6.255  0.00  0.00    +0.008 A 
ENDBRANCH   4   7
BRANCH   4  14
ATOM     14  O   LIG    1       27.298 -26.605   5.782  0.00  0.00    -0.384 OA
ATOM     15  H   LIG    1       27.430 -26.847   4.851  0.00  0.00    +0.211 HD
ENDBRANCH   4  14
BRANCH   1  16
ATOM     16  C   LIG    1       24.887 -30.591   6.334  0.00  0.00    +0.085 C 
BRANCH  16  17
ATOM     17  C   LIG    1       24.829 -31.567   7.521  0.00  0.00    +0.023 C 
BRANCH  17  18
ATOM     18  C   LIG    1       26.224 -31.883   8.060  0.00  0.00    +0.081 C 
BRANCH  18  20
ATOM     19  O   LIG    1       26.276 -32.961  10.199  0.00  0.00    -0.292 OA
ATOM     20  C   LIG    1       26.248 -31.901   9.580  0.00  0.00    +0.163 C 
BRANCH  20  21
ATOM     21  C   LIG    1       26.187 -30.605  10.337  0.00  0.00    +0.018 A 
ATOM     22  C   LIG    1       27.318 -29.768  10.328  0.00  0.00    +0.014 A 
ATOM     23  C   LIG    1       27.295 -28.554  11.021  0.00  0.00    +0.039 A 
ATOM     24  C   LIG    1       26.158 -28.188  11.730  0.00  0.00    +0.123 A 
ATOM     25  F   LIG    1       26.137 -27.031  12.402  0.00  0.00    -0.205 F 
ATOM     26  C   LIG    1       25.039 -29.010  11.755  0.00  0.00    +0.039 A 
ATOM     27  C   LIG    1       25.056 -30.221  11.058  0.00  0.00    +0.014 A 
ENDBRANCH  20  21
ENDBRANCH  18  20
ENDBRANCH  17  18
ENDBRANCH  16  17
ENDBRANCH   1  16
TORSDOF 7
ENDMDL
