MODEL 1
REMARK VINA RESULT:      -3.8      0.000      0.000
REMARK  Name = *****
REMARK                            x       y       z     vdW  Elec       q    Type
REMARK                         _______ _______ _______ _____ _____    ______ ____
ROOT
ATOM      1  C   LIG    1       26.537 -15.707   3.361  0.00  0.00    +0.258 A 
ATOM      2  N   LIG    1       25.522 -15.095   2.715  0.00  0.00    -0.175 NA
ATOM      3  C   LIG    1       25.668 -13.785   2.472  0.00  0.00    +0.219 A 
ATOM      4  C   LIG    1       26.768 -13.052   2.849  0.00  0.00    +0.090 A 
ATOM      5  C   LIG    1       27.752 -13.744   3.518  0.00  0.00    +0.047 A 
ATOM      6  C   LIG    1       28.978 -13.038   4.010  0.00  0.00    +0.066 C 
ATOM      7  N   LIG    1       27.655 -15.064   3.772  0.00  0.00    -0.216 NA
ENDROOT
BRANCH   1   9
ATOM      8  C   LIG    1       27.322 -17.961   4.266  0.00  0.00    +0.221 A 
ATOM      9  N   LIG    1       26.403 -17.119   3.633  0.00  0.00    -0.165 N 
ATOM     10  N   LIG    1       25.276 -17.808   3.257  0.00  0.00    -0.166 NA
ATOM     11  C   LIG    1       25.465 -19.051   3.698  0.00  0.00    +0.064 A 
ATOM     12  C   LIG    1       24.428 -20.085   3.470  0.00  0.00    +0.067 C 
ATOM     13  C   LIG    1       26.707 -19.197   4.344  0.00  0.00    +0.092 A 
BRANCH   8  15
ATOM     14  C   LIG    1       29.290 -18.388   5.474  0.00  0.00    +0.278 C 
ATOM     15  O   LIG    1       28.527 -17.522   4.648  0.00  0.00    -0.479 OA
ENDBRANCH   8  15
ENDBRANCH   1   9
BRANCH   3  16
ATOM     16  O   LIG    1       24.672 -13.093   1.812  0.00  0.00    -0.479 OA
ATOM     17  C   LIG    1       24.170 -11.991   2.565  0.00  0.00    +0.278 C 
ENDBRANCH   3  16
TORSDOF 3
ENDMDL
MODEL 2
REMARK VINA RESULT:      -3.7      1.212      2.367
REMARK  Name = *****
REMARK                            x       y       z     vdW  Elec       q    Type
REMARK                         _______ _______ _______ _____ _____    ______ ____
ROOT
ATOM      1  C   LIG    1       26.376 -15.845   3.541  0.00  0.00    +0.258 A 
ATOM      2  N   LIG    1       27.597 -15.292   3.697  0.00  0.00    -0.175 NA
ATOM      3  C   LIG    1       27.680 -13.965   3.530  0.00  0.00    +0.219 A 
ATOM      4  C   LIG    1       26.613 -13.162   3.205  0.00  0.00    +0.090 A 
ATOM      5  C   LIG    1       25.405 -13.803   3.047  0.00  0.00    +0.047 A 
ATOM      6  C   LIG    1       24.181 -13.033   2.655  0.00  0.00    +0.066 C 
ATOM      7  N   LIG    1       25.270 -15.133   3.218  0.00  0.00    -0.216 NA
ENDROOT
BRANCH   1   9
ATOM      8  C   LIG    1       27.203 -18.149   4.263  0.00  0.00    +0.221 A 
ATOM      9  N   LIG    1       26.260 -17.273   3.716  0.00  0.00    -0.165 N 
ATOM     10  N   LIG    1       25.129 -17.945   3.320  0.00  0.00    -0.166 NA
ATOM     11  C   LIG    1       25.340 -19.215   3.666  0.00  0.00    +0.064 A 
ATOM     12  C   LIG    1       24.306 -20.241   3.392  0.00  0.00    +0.067 C 
ATOM     13  C   LIG    1       26.600 -19.393   4.268  0.00  0.00    +0.092 A 
BRANCH   8  15
ATOM     14  C   LIG    1       29.146 -18.581   5.509  0.00  0.00    +0.278 C 
ATOM     15  O   LIG    1       28.414 -17.726   4.644  0.00  0.00    -0.479 OA
ENDBRANCH   8  15
ENDBRANCH   1   9
BRANCH   3  16
ATOM     16  O   LIG    1       28.898 -13.329   3.677  0.00  0.00    -0.479 OA
ATOM     17  C   LIG    1       28.850 -12.250   4.609  0.00  0.00    +0.278 C 
ENDBRANCH   3  16
TORSDOF 3
ENDMDL
MODEL 3
REMARK VINA RESULT:      -3.2      1.829      5.960
REMARK  Name = *****
REMARK                            x       y       z     vdW  Elec       q    Type
REMARK                         _______ _______ _______ _____ _____    ______ ____
ROOT
ATOM      1  C   LIG    1       25.312 -15.921   3.557  0.00  0.00    +0.258 A 
ATOM      2  N   LIG    1       25.875 -17.111   3.256  0.00  0.00    -0.175 NA
ATOM      3  C   LIG    1       25.113 -18.197   3.435  0.00  0.00    +0.219 A 
ATOM      4  C   LIG    1       23.823 -18.162   3.909  0.00  0.00    +0.090 A 
ATOM      5  C   LIG    1       23.327 -16.914   4.209  0.00  0.00    +0.047 A 
ATOM      6  C   LIG    1       21.946 -16.759   4.769  0.00  0.00    +0.066 C 
ATOM      7  N   LIG    1       24.052 -15.792   4.033  0.00  0.00    -0.216 NA
ENDROOT
BRANCH   1   9
ATOM      8  C   LIG    1       25.714 -13.501   2.851  0.00  0.00    +0.221 A 
ATOM      9  N   LIG    1       26.115 -14.735   3.373  0.00  0.00    -0.165 N 
ATOM     10  N   LIG    1       27.445 -14.721   3.713  0.00  0.00    -0.166 NA
ATOM     11  C   LIG    1       27.856 -13.479   3.459  0.00  0.00    +0.064 A 
ATOM     12  C   LIG    1       29.263 -13.094   3.719  0.00  0.00    +0.067 C 
ATOM     13  C   LIG    1       26.820 -12.678   2.940  0.00  0.00    +0.092 A 
BRANCH   8  15
ATOM     14  C   LIG    1       23.923 -12.013   2.545  0.00  0.00    +0.278 C 
ATOM     15  O   LIG    1       24.476 -13.309   2.379  0.00  0.00    -0.479 OA
ENDBRANCH   8  15
ENDBRANCH   1   9
BRANCH   3  16
ATOM     16  O   LIG    1       25.620 -19.449   3.143  0.00  0.00    -0.479 OA
ATOM     17  C   LIG    1       25.253 -20.434   4.107  0.00  0.00    +0.278 C 
ENDBRANCH   3  16
TORSDOF 3
ENDMDL
MODEL 4
REMARK VINA RESULT:      -2.9      2.178      3.613
REMARK  Name = *****
REMARK                            x       y       z     vdW  Elec       q    Type
REMARK                         _______ _______ _______ _____ _____    ______ ____
ROOT
ATOM      1  C   LIG    1       25.528 -15.188   3.344  0.00  0.00    +0.258 A 
ATOM      2  N   LIG    1       26.838 -15.067   3.648  0.00  0.00    -0.175 NA
ATOM      3  C   LIG    1       27.400 -13.874   3.415  0.00  0.00    +0.219 A 
ATOM      4  C   LIG    1       26.728 -12.798   2.885  0.00  0.00    +0.090 A 
ATOM      5  C   LIG    1       25.400 -13.006   2.586  0.00  0.00    +0.047 A 
ATOM      6  C   LIG    1       24.580 -11.916   1.968  0.00  0.00    +0.066 C 
ATOM      7  N   LIG    1       24.789 -14.185   2.815  0.00  0.00    -0.216 NA
ENDROOT
BRANCH   1   9
ATOM      8  C   LIG    1       23.606 -16.710   4.057  0.00  0.00    +0.221 A 
ATOM      9  N   LIG    1       24.900 -16.466   3.586  0.00  0.00    -0.165 N 
ATOM     10  N   LIG    1       25.577 -17.641   3.365  0.00  0.00    -0.166 NA
ATOM     11  C   LIG    1       24.700 -18.605   3.642  0.00  0.00    +0.064 A 
ATOM     12  C   LIG    1       25.092 -20.027   3.503  0.00  0.00    +0.067 C 
ATOM     13  C   LIG    1       23.460 -18.084   4.058  0.00  0.00    +0.092 A 
BRANCH   8  15
ATOM     14  C   LIG    1       22.102 -15.859   5.647  0.00  0.00    +0.278 C 
ATOM     15  O   LIG    1       22.792 -15.711   4.416  0.00  0.00    -0.479 OA
ENDBRANCH   8  15
ENDBRANCH   1   9
BRANCH   3  16
ATOM     16  O   LIG    1       28.735 -13.674   3.705  0.00  0.00    -0.479 OA
ATOM     17  C   LIG    1       28.996 -12.385   4.256  0.00  0.00    +0.278 C 
ENDBRANCH   3  16
TORSDOF 3
ENDMDL
MODEL 5
REMARK VINA RESULT:      -2.8      1.561      5.166
REMARK  Name = *****
REMARK                            x       y       z     vdW  Elec       q    Type
REMARK                         _______ _______ _______ _____ _____    ______ ____
ROOT
ATOM      1  C   LIG    1       26.524 -16.198   3.556  0.00  0.00    +0.258 A 
ATOM      2  N   LIG    1       25.602 -17.117   3.196  0.00  0.00    -0.175 NA
ATOM      3  C   LIG    1       25.855 -18.387   3.541  0.00  0.00    +0.219 A 
ATOM      4  C   LIG    1       26.982 -18.790   4.216  0.00  0.00    +0.090 A 
ATOM      5  C   LIG    1       27.881 -17.797   4.533  0.00  0.00    +0.047 A 
ATOM      6  C   LIG    1       29.162 -18.128   5.235  0.00  0.00    +0.066 C 
ATOM      7  N   LIG    1       27.663 -16.505   4.219  0.00  0.00    -0.216 NA
ENDROOT
BRANCH   1   9
ATOM      8  C   LIG    1       27.194 -13.772   3.134  0.00  0.00    +0.221 A 
ATOM      9  N   LIG    1       26.274 -14.823   3.195  0.00  0.00    -0.165 N 
ATOM     10  N   LIG    1       25.011 -14.396   2.864  0.00  0.00    -0.166 NA
ATOM     11  C   LIG    1       25.151 -13.109   2.548  0.00  0.00    +0.064 A 
ATOM     12  C   LIG    1       23.971 -12.316   2.127  0.00  0.00    +0.067 C 
ATOM     13  C   LIG    1       26.483 -12.676   2.681  0.00  0.00    +0.092 A 
BRANCH   8  15
ATOM     14  C   LIG    1       29.155 -12.791   3.976  0.00  0.00    +0.278 C 
ATOM     15  O   LIG    1       28.473 -13.938   3.493  0.00  0.00    -0.479 OA
ENDBRANCH   8  15
ENDBRANCH   1   9
BRANCH   3  16
ATOM     16  O   LIG    1       24.955 -19.381   3.209  0.00  0.00    -0.479 OA
ATOM     17  C   LIG    1       24.951 -20.459   4.143  0.00  0.00    +0.278 C 
ENDBRANCH   3  16
TORSDOF 3
ENDMDL
MODEL 6
REMARK VINA RESULT:      -2.6      2.010      3.001
REMARK  Name = *****
REMARK                            x       y       z     vdW  Elec       q    Type
REMARK                         _______ _______ _______ _____ _____    ______ ____
ROOT
ATOM      1  C   LIG    1       24.846 -15.631   3.804  0.00  0.00    +0.258 A 
ATOM      2  N   LIG    1       26.124 -15.522   3.382  0.00  0.00    -0.175 NA
ATOM      3  C   LIG    1       26.649 -14.290   3.369  0.00  0.00    +0.219 A 
ATOM      4  C   LIG    1       25.964 -13.159   3.745  0.00  0.00    +0.090 A 
ATOM      5  C   LIG    1       24.661 -13.350   4.146  0.00  0.00    +0.047 A 
ATOM      6  C   LIG    1       23.808 -12.183   4.540  0.00  0.00    +0.066 C 
ATOM      7  N   LIG    1       24.096 -14.572   4.188  0.00  0.00    -0.216 NA
ENDROOT
BRANCH   1   9
ATOM      8  C   LIG    1       24.905 -18.180   3.674  0.00  0.00    +0.221 A 
ATOM      9  N   LIG    1       24.258 -16.949   3.826  0.00  0.00    -0.165 N 
ATOM     10  N   LIG    1       22.906 -17.118   4.004  0.00  0.00    -0.166 NA
ATOM     11  C   LIG    1       22.720 -18.437   4.018  0.00  0.00    +0.064 A 
ATOM     12  C   LIG    1       21.358 -18.992   4.201  0.00  0.00    +0.067 C 
ATOM     13  C   LIG    1       23.925 -19.141   3.835  0.00  0.00    +0.092 A 
BRANCH   8  15
ATOM     14  C   LIG    1       27.024 -18.915   4.371  0.00  0.00    +0.278 C 
ATOM     15  O   LIG    1       26.215 -18.255   3.410  0.00  0.00    -0.479 OA
ENDBRANCH   8  15
ENDBRANCH   1   9
BRANCH   3  16
ATOM     16  O   LIG    1       27.953 -14.102   2.954  0.00  0.00    -0.479 OA
ATOM     17  C   LIG    1       28.649 -13.133   3.734  0.00  0.00    +0.278 C 
ENDBRANCH   3  16
TORSDOF 3
ENDMDL
MODEL 7
REMARK VINA RESULT:      -2.6      2.053      2.705
REMARK  Name = *****
REMARK                            x       y       z     vdW  Elec       q    Type
REMARK                         _______ _______ _______ _____ _____    ______ ____
ROOT
ATOM      1  C   LIG    1       25.758 -15.078   3.264  0.00  0.00    +0.258 A 
ATOM      2  N   LIG    1       24.967 -14.135   2.708  0.00  0.00    -0.175 NA
ATOM      3  C   LIG    1       25.524 -12.936   2.495  0.00  0.00    +0.219 A 
ATOM      4  C   LIG    1       26.823 -12.623   2.817  0.00  0.00    +0.090 A 
ATOM      5  C   LIG    1       27.559 -13.633   3.396  0.00  0.00    +0.047 A 
ATOM      6  C   LIG    1       28.975 -13.393   3.823  0.00  0.00    +0.066 C 
ATOM      7  N   LIG    1       27.046 -14.859   3.617  0.00  0.00    -0.216 NA
ENDROOT
BRANCH   1   9
ATOM      8  C   LIG    1       23.901 -16.676   3.985  0.00  0.00    +0.221 A 
ATOM      9  N   LIG    1       25.180 -16.380   3.503  0.00  0.00    -0.165 N 
ATOM     10  N   LIG    1       25.899 -17.527   3.266  0.00  0.00    -0.166 NA
ATOM     11  C   LIG    1       25.061 -18.525   3.544  0.00  0.00    +0.064 A 
ATOM     12  C   LIG    1       25.505 -19.931   3.392  0.00  0.00    +0.067 C 
ATOM     13  C   LIG    1       23.806 -18.054   3.977  0.00  0.00    +0.092 A 
BRANCH   8  15
ATOM     14  C   LIG    1       22.048 -16.070   5.294  0.00  0.00    +0.278 C 
ATOM     15  O   LIG    1       23.053 -15.710   4.359  0.00  0.00    -0.479 OA
ENDBRANCH   8  15
ENDBRANCH   1   9
BRANCH   3  16
ATOM     16  O   LIG    1       24.777 -11.923   1.926  0.00  0.00    -0.479 OA
ATOM     17  C   LIG    1       23.743 -11.448   2.785  0.00  0.00    +0.278 C 
ENDBRANCH   3  16
TORSDOF 3
ENDMDL
MODEL 8
REMARK VINA RESULT:      -2.5      1.743      5.626
REMARK  Name = *****
REMARK                            x       y       z     vdW  Elec       q    Type
REMARK                         _______ _______ _______ _____ _____    ______ ____
ROOT
ATOM      1  C   LIG    1       26.681 -17.042   3.935  0.00  0.00    +0.258 A 
ATOM      2  N   LIG    1       25.603 -17.627   3.372  0.00  0.00    -0.175 NA
ATOM      3  C   LIG    1       25.469 -18.947   3.561  0.00  0.00    +0.219 A 
ATOM      4  C   LIG    1       26.359 -19.715   4.273  0.00  0.00    +0.090 A 
ATOM      5  C   LIG    1       27.441 -19.048   4.802  0.00  0.00    +0.047 A 
ATOM      6  C   LIG    1       28.495 -19.792   5.564  0.00  0.00    +0.066 C 
ATOM      7  N   LIG    1       27.610 -17.720   4.649  0.00  0.00    -0.216 NA
ENDROOT
BRANCH   1   9
ATOM      8  C   LIG    1       25.857 -14.669   3.483  0.00  0.00    +0.221 A 
ATOM      9  N   LIG    1       26.847 -15.620   3.745  0.00  0.00    -0.165 N 
ATOM     10  N   LIG    1       28.091 -15.040   3.803  0.00  0.00    -0.166 NA
ATOM     11  C   LIG    1       27.873 -13.736   3.633  0.00  0.00    +0.064 A 
ATOM     12  C   LIG    1       29.011 -12.786   3.645  0.00  0.00    +0.067 C 
ATOM     13  C   LIG    1       26.508 -13.450   3.448  0.00  0.00    +0.092 A 
BRANCH   8  15
ATOM     14  C   LIG    1       23.652 -14.573   4.283  0.00  0.00    +0.278 C 
ATOM     15  O   LIG    1       24.578 -15.020   3.305  0.00  0.00    -0.479 OA
ENDBRANCH   8  15
ENDBRANCH   1   9
BRANCH   3  16
ATOM     16  O   LIG    1       24.388 -19.613   3.018  0.00  0.00    -0.479 OA
ATOM     17  C   LIG    1       24.055 -20.803   3.730  0.00  0.00    +0.278 C 
ENDBRANCH   3  16
TORSDOF 3
ENDMDL
MODEL 9
REMARK VINA RESULT:      -2.4      2.206      5.886
REMARK  Name = *****
REMARK                            x       y       z     vdW  Elec       q    Type
REMARK                         _______ _______ _______ _____ _____    ______ ____
ROOT
ATOM      1  C   LIG    1       24.198 -16.626   3.845  0.00  0.00    +0.258 A 
ATOM      2  N   LIG    1       25.186 -17.540   3.742  0.00  0.00    -0.175 NA
ATOM      3  C   LIG    1       24.816 -18.827   3.753  0.00  0.00    +0.219 A 
ATOM      4  C   LIG    1       23.514 -19.252   3.873  0.00  0.00    +0.090 A 
ATOM      5  C   LIG    1       22.567 -18.260   3.991  0.00  0.00    +0.047 A 
ATOM      6  C   LIG    1       21.120 -18.608   4.167  0.00  0.00    +0.066 C 
ATOM      7  N   LIG    1       22.891 -16.952   3.972  0.00  0.00    -0.216 NA
ENDROOT
BRANCH   1   9
ATOM      8  C   LIG    1       25.812 -14.678   3.500  0.00  0.00    +0.221 A 
ATOM      9  N   LIG    1       24.572 -15.231   3.836  0.00  0.00    -0.165 N 
ATOM     10  N   LIG    1       23.673 -14.255   4.191  0.00  0.00    -0.166 NA
ATOM     11  C   LIG    1       24.326 -13.105   4.027  0.00  0.00    +0.064 A 
ATOM     12  C   LIG    1       23.648 -11.819   4.316  0.00  0.00    +0.067 C 
ATOM     13  C   LIG    1       25.647 -13.309   3.585  0.00  0.00    +0.092 A 
BRANCH   8  15
ATOM     14  C   LIG    1       27.959 -15.417   4.099  0.00  0.00    +0.278 C 
ATOM     15  O   LIG    1       26.863 -15.448   3.197  0.00  0.00    -0.479 OA
ENDBRANCH   8  15
ENDBRANCH   1   9
BRANCH   3  16
ATOM     16  O   LIG    1       25.772 -19.818   3.647  0.00  0.00    -0.479 OA
ATOM     17  C   LIG    1       26.114 -20.396   4.905  0.00  0.00    +0.278 C 
ENDBRANCH   3  16
TORSDOF 3
ENDMDL
