MODEL 1
REMARK VINA RESULT:      13.0      0.000      0.000
REMARK  Name = *****
REMARK                            x       y       z     vdW  Elec       q    Type
REMARK                         _______ _______ _______ _____ _____    ______ ____
ROOT
ATOM      1  C   LIG    1       25.774 -19.528   4.795  0.00  0.00    +0.062 A 
ATOM      2  C   LIG    1       24.653 -20.163   5.378  0.00  0.00    +0.058 A 
ATOM      3  I   LIG    1       24.974 -21.451   7.061  0.00  0.00    -0.040 I 
ATOM      4  C   LIG    1       23.330 -19.860   4.951  0.00  0.00    +0.065 A 
ATOM      5  C   LIG    1       23.148 -18.712   4.136  0.00  0.00    +0.049 A 
ATOM      6  I   LIG    1       21.344 -18.345   3.048  0.00  0.00    -0.041 I 
ATOM      7  C   LIG    1       24.258 -17.948   3.750  0.00  0.00    +0.067 A 
ATOM      8  C   LIG    1       25.521 -18.525   3.854  0.00  0.00    +0.049 A 
ATOM      9  I   LIG    1       26.334 -18.903   1.813  0.00  0.00    -0.041 I 
ENDROOT
BRANCH   1  12
ATOM     10  C   LIG    1       29.472 -19.567   5.663  0.00  0.00    +0.109 C 
ATOM     11  C   LIG    1       28.175 -18.976   5.191  0.00  0.00    +0.214 C 
ATOM     12  N   LIG    1       27.100 -19.851   5.199  0.00  0.00    -0.284 N 
ATOM     13  H   LIG    1       27.223 -20.749   5.654  0.00  0.00    +0.155 HD
ATOM     14  O   LIG    1       28.129 -17.790   4.882  0.00  0.00    -0.276 OA
ENDBRANCH   1  12
BRANCH   4  15
ATOM     15  N   LIG    1       22.220 -20.691   5.333  0.00  0.00    -0.273 N 
ATOM     16  C   LIG    1       20.998 -20.526   4.669  0.00  0.00    +0.216 C 
ATOM     17  O   LIG    1       20.814 -19.698   3.776  0.00  0.00    -0.276 OA
ATOM     18  C   LIG    1       19.852 -21.397   5.136  0.00  0.00    +0.110 C 
ATOM     19  C   LIG    1       22.365 -21.559   6.497  0.00  0.00    +0.138 C 
ENDBRANCH   4  15
BRANCH   7  20
ATOM     20  C   LIG    1       24.182 -16.473   4.004  0.00  0.00    +0.247 C 
ATOM     21  N   LIG    1       25.160 -15.689   3.392  0.00  0.00    -0.301 N 
ATOM     22  H   LIG    1       25.570 -16.000   2.513  0.00  0.00    +0.150 HD
ATOM     23  O   LIG    1       23.365 -16.007   4.779  0.00  0.00    -0.270 OA
BRANCH  21  24
ATOM     24  C   LIG    1       25.229 -14.235   3.648  0.00  0.00    +0.160 C 
ATOM     25  C   LIG    1       26.028 -13.912   4.934  0.00  0.00    +0.270 C 
ATOM     26  O   LIG    1       27.432 -14.089   4.777  0.00  0.00    -0.341 OA
ATOM     27  C   LIG    1       28.007 -13.265   3.746  0.00  0.00    +0.178 C 
ATOM     28  C   LIG    1       27.336 -13.528   2.386  0.00  0.00    +0.176 C 
ATOM     29  C   LIG    1       25.801 -13.453   2.449  0.00  0.00    +0.170 C 
BRANCH  25  30
ATOM     30  O   LIG    1       25.606 -14.745   6.007  0.00  0.00    -0.365 OA
ATOM     31  H   LIG    1       26.213 -14.536   6.738  0.00  0.00    +0.212 HD
ENDBRANCH  25  30
BRANCH  28  32
ATOM     32  O   LIG    1       27.674 -14.853   1.954  0.00  0.00    -0.387 OA
ATOM     33  H   LIG    1       27.693 -14.870   0.981  0.00  0.00    +0.210 HD
ENDBRANCH  28  32
BRANCH  29  34
ATOM     34  O   LIG    1       25.393 -12.084   2.522  0.00  0.00    -0.387 OA
ATOM     35  H   LIG    1       24.749 -12.024   3.255  0.00  0.00    +0.210 HD
ENDBRANCH  29  34
BRANCH  27  36
ATOM     36  C   LIG    1       28.036 -11.785   4.160  0.00  0.00    +0.190 C 
BRANCH  36  37
ATOM     37  O   LIG    1       28.846 -11.630   5.327  0.00  0.00    -0.392 OA
ATOM     38  H   LIG    1       29.530 -12.328   5.284  0.00  0.00    +0.209 HD
ENDBRANCH  36  37
ENDBRANCH  27  36
ENDBRANCH  21  24
ENDBRANCH   7  20
TORSDOF 9
ENDMDL
MODEL 2
REMARK VINA RESULT:      13.5      0.846      1.013
REMARK  Name = *****
REMARK                            x       y       z     vdW  Elec       q    Type
REMARK                         _______ _______ _______ _____ _____    ______ ____
ROOT
ATOM      1  C   LIG    1       25.798 -19.706   4.770  0.00  0.00    +0.062 A 
ATOM      2  C   LIG    1       24.580 -20.207   5.286  0.00  0.00    +0.058 A 
ATOM      3  I   LIG    1       24.644 -21.407   7.062  0.00  0.00    -0.040 I 
ATOM      4  C   LIG    1       23.329 -19.822   4.727  0.00  0.00    +0.065 A 
ATOM      5  C   LIG    1       23.319 -18.717   3.836  0.00  0.00    +0.049 A 
ATOM      6  I   LIG    1       21.652 -18.272   2.573  0.00  0.00    -0.041 I 
ATOM      7  C   LIG    1       24.521 -18.075   3.507  0.00  0.00    +0.067 A 
ATOM      8  C   LIG    1       25.714 -18.747   3.755  0.00  0.00    +0.049 A 
ATOM      9  I   LIG    1       26.659 -19.322   1.820  0.00  0.00    -0.041 I 
ENDROOT
BRANCH   1  12
ATOM     10  C   LIG    1       29.382 -19.987   5.996  0.00  0.00    +0.109 C 
ATOM     11  C   LIG    1       28.184 -19.317   5.388  0.00  0.00    +0.214 C 
ATOM     12  N   LIG    1       27.052 -20.113   5.308  0.00  0.00    -0.284 N 
ATOM     13  H   LIG    1       27.064 -21.005   5.790  0.00  0.00    +0.155 HD
ATOM     14  O   LIG    1       28.255 -18.139   5.054  0.00  0.00    -0.276 OA
ENDBRANCH   1  12
BRANCH   4  15
ATOM     15  N   LIG    1       22.123 -20.531   5.055  0.00  0.00    -0.273 N 
ATOM     16  C   LIG    1       20.916 -20.101   4.489  0.00  0.00    +0.216 C 
ATOM     17  O   LIG    1       20.826 -19.138   3.726  0.00  0.00    -0.276 OA
ATOM     18  C   LIG    1       19.670 -20.857   4.897  0.00  0.00    +0.110 C 
ATOM     19  C   LIG    1       22.177 -21.566   6.083  0.00  0.00    +0.138 C 
ENDBRANCH   4  15
BRANCH   7  20
ATOM     20  C   LIG    1       24.555 -16.586   3.670  0.00  0.00    +0.247 C 
ATOM     21  N   LIG    1       25.479 -15.899   2.881  0.00  0.00    -0.301 N 
ATOM     22  H   LIG    1       25.748 -16.286   1.978  0.00  0.00    +0.150 HD
ATOM     23  O   LIG    1       23.877 -16.027   4.514  0.00  0.00    -0.270 OA
BRANCH  21  24
ATOM     24  C   LIG    1       25.655 -14.439   3.028  0.00  0.00    +0.160 C 
ATOM     25  C   LIG    1       25.172 -13.934   4.409  0.00  0.00    +0.270 C 
ATOM     26  O   LIG    1       26.055 -14.285   5.470  0.00  0.00    -0.341 OA
ATOM     27  C   LIG    1       27.388 -13.763   5.310  0.00  0.00    +0.178 C 
ATOM     28  C   LIG    1       28.015 -14.238   3.988  0.00  0.00    +0.176 C 
ATOM     29  C   LIG    1       27.108 -13.993   2.770  0.00  0.00    +0.170 C 
BRANCH  25  30
ATOM     30  O   LIG    1       23.892 -14.472   4.718  0.00  0.00    -0.365 OA
ATOM     31  H   LIG    1       23.772 -14.299   5.668  0.00  0.00    +0.212 HD
ENDBRANCH  25  30
BRANCH  28  32
ATOM     32  O   LIG    1       28.239 -15.651   4.066  0.00  0.00    -0.387 OA
ATOM     33  H   LIG    1       29.165 -15.836   3.827  0.00  0.00    +0.210 HD
ENDBRANCH  28  32
BRANCH  29  34
ATOM     34  O   LIG    1       27.137 -12.604   2.425  0.00  0.00    -0.387 OA
ATOM     35  H   LIG    1       26.286 -12.409   1.987  0.00  0.00    +0.210 HD
ENDBRANCH  29  34
BRANCH  27  36
ATOM     36  C   LIG    1       27.423 -12.239   5.515  0.00  0.00    +0.190 C 
BRANCH  36  37
ATOM     37  O   LIG    1       28.777 -11.807   5.660  0.00  0.00    -0.392 OA
ATOM     38  H   LIG    1       28.882 -11.536   6.595  0.00  0.00    +0.209 HD
ENDBRANCH  36  37
ENDBRANCH  27  36
ENDBRANCH  21  24
ENDBRANCH   7  20
TORSDOF 9
ENDMDL
