MODEL 1
REMARK VINA RESULT:      -9.2      0.000      0.000
REMARK  Name = *****
REMARK                            x       y       z     vdW  Elec       q    Type
REMARK                         _______ _______ _______ _____ _____    ______ ____
ROOT
ATOM      1  C   LIG    1       25.880 -22.931   6.610  0.00  0.00    +0.005 C 
ATOM      2  C   LIG    1       27.044 -22.649   7.235  0.00  0.00    -0.001 C 
ENDROOT
BRANCH   1   7
ATOM      3  C   LIG    1       24.981 -28.489   5.220  0.00  0.00    +0.044 C 
ATOM      4  C   LIG    1       25.216 -27.050   5.573  0.00  0.00    -0.050 A 
ATOM      5  C   LIG    1       24.864 -26.029   4.683  0.00  0.00    +0.004 A 
ATOM      6  C   LIG    1       25.072 -24.689   5.025  0.00  0.00    +0.009 A 
ATOM      7  C   LIG    1       25.626 -24.349   6.268  0.00  0.00    -0.016 A 
ATOM      8  C   LIG    1       25.951 -25.366   7.169  0.00  0.00    +0.009 A 
ATOM      9  C   LIG    1       25.744 -26.706   6.824  0.00  0.00    +0.004 A 
ENDBRANCH   1   7
BRANCH   1  10
ATOM     10  C   LIG    1       24.859 -21.890   6.392  0.00  0.00    +0.072 A 
ATOM     11  N   LIG    1       24.838 -21.300   5.163  0.00  0.00    -0.247 NA
ATOM     12  C   LIG    1       23.834 -20.424   4.928  0.00  0.00    +0.065 A 
ATOM     13  C   LIG    1       22.856 -20.121   5.878  0.00  0.00    +0.028 A 
ATOM     14  C   LIG    1       22.939 -20.691   7.146  0.00  0.00    +0.004 A 
ATOM     15  C   LIG    1       23.941 -21.614   7.400  0.00  0.00    +0.028 A 
BRANCH  12  16
ATOM     16  C   LIG    1       23.831 -19.745   3.625  0.00  0.00    +0.035 C 
ATOM     17  C   LIG    1       24.674 -18.852   3.075  0.00  0.00    +0.093 C 
BRANCH  17  18
ATOM     18  C   LIG    1       25.945 -18.216   3.488  0.00  0.00    +0.330 C 
ATOM     19  O   LIG    1       26.203 -17.077   3.155  0.00  0.00    -0.246 OA
BRANCH  18  20
ATOM     20  O   LIG    1       26.743 -18.947   4.285  0.00  0.00    -0.477 OA
ATOM     21  H   LIG    1       27.379 -19.511   3.789  0.00  0.00    +0.295 HD
ENDBRANCH  18  20
ENDBRANCH  17  18
ENDBRANCH  12  16
ENDBRANCH   1  10
BRANCH   2  22
ATOM     22  C   LIG    1       27.530 -21.321   7.749  0.00  0.00    +0.112 C 
BRANCH  22  23
ATOM     23  N   LIG    1       28.866 -20.980   7.239  0.00  0.00    -0.299 NA
ATOM     24  C   LIG    1       28.981 -19.582   6.808  0.00  0.00    +0.085 C 
ATOM     25  C   LIG    1       30.485 -19.385   6.725  0.00  0.00    +0.017 C 
ATOM     26  C   LIG    1       31.039 -20.223   7.867  0.00  0.00    +0.017 C 
ATOM     27  C   LIG    1       29.883 -21.123   8.291  0.00  0.00    +0.085 C 
ENDBRANCH  22  23
ENDBRANCH   2  22
TORSDOF 7
ENDMDL
MODEL 2
REMARK VINA RESULT:      -9.2      2.358      6.559
REMARK  Name = *****
REMARK                            x       y       z     vdW  Elec       q    Type
REMARK                         _______ _______ _______ _____ _____    ______ ____
ROOT
ATOM      1  C   LIG    1       25.322 -21.497   5.981  0.00  0.00    +0.005 C 
ATOM      2  C   LIG    1       25.105 -22.821   5.825  0.00  0.00    -0.001 C 
ENDROOT
BRANCH   1   7
ATOM      3  C   LIG    1       21.550 -17.810   3.571  0.00  0.00    +0.044 C 
ATOM      4  C   LIG    1       22.524 -18.761   4.201  0.00  0.00    -0.050 A 
ATOM      5  C   LIG    1       22.199 -19.441   5.380  0.00  0.00    +0.004 A 
ATOM      6  C   LIG    1       23.106 -20.337   5.953  0.00  0.00    +0.009 A 
ATOM      7  C   LIG    1       24.349 -20.576   5.350  0.00  0.00    -0.016 A 
ATOM      8  C   LIG    1       24.663 -19.919   4.157  0.00  0.00    +0.009 A 
ATOM      9  C   LIG    1       23.756 -19.021   3.586  0.00  0.00    +0.004 A 
ENDBRANCH   1   7
BRANCH   1  10
ATOM     10  C   LIG    1       26.409 -20.997   6.844  0.00  0.00    +0.072 A 
ATOM     11  N   LIG    1       27.596 -20.716   6.233  0.00  0.00    -0.247 NA
ATOM     12  C   LIG    1       28.556 -20.156   7.004  0.00  0.00    +0.065 A 
ATOM     13  C   LIG    1       28.368 -19.870   8.359  0.00  0.00    +0.028 A 
ATOM     14  C   LIG    1       27.168 -20.225   8.970  0.00  0.00    +0.004 A 
ATOM     15  C   LIG    1       26.159 -20.772   8.194  0.00  0.00    +0.028 A 
BRANCH  12  16
ATOM     16  C   LIG    1       29.855 -19.897   6.370  0.00  0.00    +0.035 C 
ATOM     17  C   LIG    1       30.986 -19.335   6.834  0.00  0.00    +0.093 C 
BRANCH  17  18
ATOM     18  C   LIG    1       31.430 -18.792   8.137  0.00  0.00    +0.330 C 
ATOM     19  O   LIG    1       31.265 -17.620   8.409  0.00  0.00    -0.246 OA
BRANCH  18  20
ATOM     20  O   LIG    1       31.961 -19.677   8.999  0.00  0.00    -0.477 OA
ATOM     21  H   LIG    1       32.880 -19.452   9.274  0.00  0.00    +0.295 HD
ENDBRANCH  18  20
ENDBRANCH  17  18
ENDBRANCH  12  16
ENDBRANCH   1  10
BRANCH   2  22
ATOM     22  C   LIG    1       25.888 -23.969   6.403  0.00  0.00    +0.112 C 
BRANCH  22  23
ATOM     23  N   LIG    1       25.610 -25.236   5.714  0.00  0.00    -0.299 NA
ATOM     24  C   LIG    1       26.509 -26.324   6.117  0.00  0.00    +0.085 C 
ATOM     25  C   LIG    1       25.785 -27.557   5.605  0.00  0.00    +0.017 C 
ATOM     26  C   LIG    1       24.311 -27.236   5.793  0.00  0.00    +0.017 C 
ATOM     27  C   LIG    1       24.266 -25.733   6.044  0.00  0.00    +0.085 C 
ENDBRANCH  22  23
ENDBRANCH   2  22
TORSDOF 7
ENDMDL
MODEL 3
REMARK VINA RESULT:      -9.1      2.040      4.615
REMARK  Name = *****
REMARK                            x       y       z     vdW  Elec       q    Type
REMARK                         _______ _______ _______ _____ _____    ______ ____
ROOT
ATOM      1  C   LIG    1       24.617 -22.837   6.666  0.00  0.00    +0.005 C 
ATOM      2  C   LIG    1       23.407 -22.359   6.303  0.00  0.00    -0.001 C 
ENDROOT
BRANCH   1   7
ATOM      3  C   LIG    1       25.633 -28.444   5.585  0.00  0.00    +0.044 C 
ATOM      4  C   LIG    1       25.365 -26.993   5.859  0.00  0.00    -0.050 A 
ATOM      5  C   LIG    1       24.057 -26.496   5.862  0.00  0.00    +0.004 A 
ATOM      6  C   LIG    1       23.814 -25.146   6.133  0.00  0.00    +0.009 A 
ATOM      7  C   LIG    1       24.875 -24.274   6.417  0.00  0.00    -0.016 A 
ATOM      8  C   LIG    1       26.179 -24.776   6.443  0.00  0.00    +0.009 A 
ATOM      9  C   LIG    1       26.421 -26.126   6.169  0.00  0.00    +0.004 A 
ENDBRANCH   1   7
BRANCH   1  10
ATOM     10  C   LIG    1       25.672 -21.940   7.171  0.00  0.00    +0.072 A 
ATOM     11  N   LIG    1       26.485 -21.365   6.240  0.00  0.00    -0.247 NA
ATOM     12  C   LIG    1       27.382 -20.459   6.695  0.00  0.00    +0.065 A 
ATOM     13  C   LIG    1       27.490 -20.113   8.044  0.00  0.00    +0.028 A 
ATOM     14  C   LIG    1       26.689 -20.761   8.980  0.00  0.00    +0.004 A 
ATOM     15  C   LIG    1       25.743 -21.671   8.534  0.00  0.00    +0.028 A 
BRANCH  12  16
ATOM     16  C   LIG    1       28.298 -19.872   5.708  0.00  0.00    +0.035 C 
ATOM     17  C   LIG    1       29.519 -19.322   5.830  0.00  0.00    +0.093 C 
BRANCH  17  18
ATOM     18  C   LIG    1       30.467 -19.110   6.947  0.00  0.00    +0.330 C 
ATOM     19  O   LIG    1       30.427 -18.093   7.609  0.00  0.00    -0.246 OA
BRANCH  18  20
ATOM     20  O   LIG    1       31.314 -20.121   7.206  0.00  0.00    -0.477 OA
ATOM     21  H   LIG    1       31.943 -19.926   7.939  0.00  0.00    +0.295 HD
ENDBRANCH  18  20
ENDBRANCH  17  18
ENDBRANCH  12  16
ENDBRANCH   1  10
BRANCH   2  22
ATOM     22  C   LIG    1       22.901 -20.944   6.381  0.00  0.00    +0.112 C 
BRANCH  22  23
ATOM     23  N   LIG    1       22.832 -20.303   5.060  0.00  0.00    -0.299 NA
ATOM     24  C   LIG    1       22.267 -18.950   5.102  0.00  0.00    +0.085 C 
ATOM     25  C   LIG    1       22.673 -18.380   3.753  0.00  0.00    +0.017 C 
ATOM     26  C   LIG    1       24.044 -18.981   3.487  0.00  0.00    +0.017 C 
ATOM     27  C   LIG    1       24.175 -20.120   4.492  0.00  0.00    +0.085 C 
ENDBRANCH  22  23
ENDBRANCH   2  22
TORSDOF 7
ENDMDL
MODEL 4
REMARK VINA RESULT:      -8.9      1.106      5.488
REMARK  Name = *****
REMARK                            x       y       z     vdW  Elec       q    Type
REMARK                         _______ _______ _______ _____ _____    ______ ____
ROOT
ATOM      1  C   LIG    1       26.668 -21.794   7.061  0.00  0.00    +0.005 C 
ATOM      2  C   LIG    1       26.737 -23.136   7.198  0.00  0.00    -0.001 C 
ENDROOT
BRANCH   1   7
ATOM      3  C   LIG    1       31.654 -18.885   7.614  0.00  0.00    +0.044 C 
ATOM      4  C   LIG    1       30.368 -19.644   7.470  0.00  0.00    -0.050 A 
ATOM      5  C   LIG    1       30.133 -20.801   8.222  0.00  0.00    +0.004 A 
ATOM      6  C   LIG    1       28.926 -21.494   8.095  0.00  0.00    +0.009 A 
ATOM      7  C   LIG    1       27.929 -21.035   7.222  0.00  0.00    -0.016 A 
ATOM      8  C   LIG    1       28.151 -19.864   6.493  0.00  0.00    +0.009 A 
ATOM      9  C   LIG    1       29.360 -19.172   6.619  0.00  0.00    +0.004 A 
ENDBRANCH   1   7
BRANCH   1  10
ATOM     10  C   LIG    1       25.416 -21.132   6.649  0.00  0.00    +0.072 A 
ATOM     11  N   LIG    1       25.357 -20.679   5.364  0.00  0.00    -0.247 NA
ATOM     12  C   LIG    1       24.173 -20.170   4.955  0.00  0.00    +0.065 A 
ATOM     13  C   LIG    1       23.052 -20.100   5.785  0.00  0.00    +0.028 A 
ATOM     14  C   LIG    1       23.159 -20.513   7.110  0.00  0.00    +0.004 A 
ATOM     15  C   LIG    1       24.354 -21.065   7.544  0.00  0.00    +0.028 A 
BRANCH  12  16
ATOM     16  C   LIG    1       24.112 -19.632   3.589  0.00  0.00    +0.035 C 
ATOM     17  C   LIG    1       24.805 -18.656   2.976  0.00  0.00    +0.093 C 
BRANCH  17  18
ATOM     18  C   LIG    1       25.916 -17.757   3.361  0.00  0.00    +0.330 C 
ATOM     19  O   LIG    1       25.859 -16.566   3.128  0.00  0.00    -0.246 OA
BRANCH  18  20
ATOM     20  O   LIG    1       26.939 -18.326   4.022  0.00  0.00    -0.477 OA
ATOM     21  H   LIG    1       27.554 -17.673   4.428  0.00  0.00    +0.295 HD
ENDBRANCH  18  20
ENDBRANCH  17  18
ENDBRANCH  12  16
ENDBRANCH   1  10
BRANCH   2  22
ATOM     22  C   LIG    1       25.637 -24.149   7.028  0.00  0.00    +0.112 C 
BRANCH  22  23
ATOM     23  N   LIG    1       26.046 -25.278   6.181  0.00  0.00    -0.299 NA
ATOM     24  C   LIG    1       25.832 -26.584   6.816  0.00  0.00    +0.085 C 
ATOM     25  C   LIG    1       25.933 -27.543   5.641  0.00  0.00    +0.017 C 
ATOM     26  C   LIG    1       25.316 -26.782   4.479  0.00  0.00    +0.017 C 
ATOM     27  C   LIG    1       25.241 -25.335   4.952  0.00  0.00    +0.085 C 
ENDBRANCH  22  23
ENDBRANCH   2  22
TORSDOF 7
ENDMDL
MODEL 5
REMARK VINA RESULT:      -8.7      2.561      6.758
REMARK  Name = *****
REMARK                            x       y       z     vdW  Elec       q    Type
REMARK                         _______ _______ _______ _____ _____    ______ ____
ROOT
ATOM      1  C   LIG    1       25.668 -21.372   5.926  0.00  0.00    +0.005 C 
ATOM      2  C   LIG    1       25.374 -22.636   6.298  0.00  0.00    -0.001 C 
ENDROOT
BRANCH   1   7
ATOM      3  C   LIG    1       21.368 -18.099   3.820  0.00  0.00    +0.044 C 
ATOM      4  C   LIG    1       22.480 -18.942   4.371  0.00  0.00    -0.050 A 
ATOM      5  C   LIG    1       22.339 -19.594   5.601  0.00  0.00    +0.004 A 
ATOM      6  C   LIG    1       23.373 -20.391   6.102  0.00  0.00    +0.009 A 
ATOM      7  C   LIG    1       24.560 -20.558   5.374  0.00  0.00    -0.016 A 
ATOM      8  C   LIG    1       24.690 -19.931   4.133  0.00  0.00    +0.009 A 
ATOM      9  C   LIG    1       23.656 -19.132   3.634  0.00  0.00    +0.004 A 
ENDBRANCH   1   7
BRANCH   1  10
ATOM     10  C   LIG    1       27.001 -20.792   6.175  0.00  0.00    +0.072 A 
ATOM     11  N   LIG    1       27.777 -21.417   7.106  0.00  0.00    -0.247 NA
ATOM     12  C   LIG    1       29.038 -20.951   7.255  0.00  0.00    +0.065 A 
ATOM     13  C   LIG    1       29.545 -19.887   6.506  0.00  0.00    +0.028 A 
ATOM     14  C   LIG    1       28.710 -19.228   5.607  0.00  0.00    +0.004 A 
ATOM     15  C   LIG    1       27.424 -19.705   5.416  0.00  0.00    +0.028 A 
BRANCH  12  16
ATOM     16  C   LIG    1       29.866 -21.584   8.290  0.00  0.00    +0.035 C 
ATOM     17  C   LIG    1       30.791 -21.086   9.130  0.00  0.00    +0.093 C 
BRANCH  17  18
ATOM     18  C   LIG    1       31.336 -19.738   9.411  0.00  0.00    +0.330 C 
ATOM     19  O   LIG    1       32.223 -19.273   8.724  0.00  0.00    -0.246 OA
BRANCH  18  20
ATOM     20  O   LIG    1       30.755 -19.061  10.417  0.00  0.00    -0.477 OA
ATOM     21  H   LIG    1       29.808 -19.297  10.551  0.00  0.00    +0.295 HD
ENDBRANCH  18  20
ENDBRANCH  17  18
ENDBRANCH  12  16
ENDBRANCH   1  10
BRANCH   2  22
ATOM     22  C   LIG    1       26.279 -23.654   6.940  0.00  0.00    +0.112 C 
BRANCH  22  23
ATOM     23  N   LIG    1       25.701 -25.005   6.919  0.00  0.00    -0.299 NA
ATOM     24  C   LIG    1       24.374 -25.057   6.295  0.00  0.00    +0.085 C 
ATOM     25  C   LIG    1       24.190 -26.542   6.033  0.00  0.00    +0.017 C 
ATOM     26  C   LIG    1       25.583 -27.038   5.677  0.00  0.00    +0.017 C 
ATOM     27  C   LIG    1       26.521 -25.917   6.109  0.00  0.00    +0.085 C 
ENDBRANCH  22  23
ENDBRANCH   2  22
TORSDOF 7
ENDMDL
MODEL 6
REMARK VINA RESULT:      -8.6      2.486      5.379
REMARK  Name = *****
REMARK                            x       y       z     vdW  Elec       q    Type
REMARK                         _______ _______ _______ _____ _____    ______ ____
ROOT
ATOM      1  C   LIG    1       25.420 -22.481   5.920  0.00  0.00    +0.005 C 
ATOM      2  C   LIG    1       24.900 -21.931   4.801  0.00  0.00    -0.001 C 
ENDROOT
BRANCH   1   7
ATOM      3  C   LIG    1       24.700 -28.181   6.715  0.00  0.00    +0.044 C 
ATOM      4  C   LIG    1       24.890 -26.706   6.516  0.00  0.00    -0.050 A 
ATOM      5  C   LIG    1       26.114 -26.096   6.812  0.00  0.00    +0.004 A 
ATOM      6  C   LIG    1       26.288 -24.724   6.609  0.00  0.00    +0.009 A 
ATOM      7  C   LIG    1       25.244 -23.941   6.096  0.00  0.00    -0.016 A 
ATOM      8  C   LIG    1       24.031 -24.554   5.773  0.00  0.00    +0.009 A 
ATOM      9  C   LIG    1       23.857 -25.927   5.979  0.00  0.00    +0.004 A 
ENDBRANCH   1   7
BRANCH   1  10
ATOM     10  C   LIG    1       26.232 -21.683   6.857  0.00  0.00    +0.072 A 
ATOM     11  N   LIG    1       27.471 -21.309   6.429  0.00  0.00    -0.247 NA
ATOM     12  C   LIG    1       28.171 -20.487   7.245  0.00  0.00    +0.065 A 
ATOM     13  C   LIG    1       27.673 -20.031   8.468  0.00  0.00    +0.028 A 
ATOM     14  C   LIG    1       26.430 -20.479   8.907  0.00  0.00    +0.004 A 
ATOM     15  C   LIG    1       25.683 -21.297   8.076  0.00  0.00    +0.028 A 
BRANCH  12  16
ATOM     16  C   LIG    1       29.528 -20.119   6.818  0.00  0.00    +0.035 C 
ATOM     17  C   LIG    1       30.677 -19.975   7.502  0.00  0.00    +0.093 C 
BRANCH  17  18
ATOM     18  C   LIG    1       31.089 -20.157   8.912  0.00  0.00    +0.330 C 
ATOM     19  O   LIG    1       30.592 -19.486   9.794  0.00  0.00    -0.246 OA
BRANCH  18  20
ATOM     20  O   LIG    1       31.986 -21.131   9.148  0.00  0.00    -0.477 OA
ATOM     21  H   LIG    1       32.494 -21.396   8.347  0.00  0.00    +0.295 HD
ENDBRANCH  18  20
ENDBRANCH  17  18
ENDBRANCH  12  16
ENDBRANCH   1  10
BRANCH   2  22
ATOM     22  C   LIG    1       24.984 -20.501   4.339  0.00  0.00    +0.112 C 
BRANCH  22  23
ATOM     23  N   LIG    1       23.670 -19.957   3.969  0.00  0.00    -0.299 NA
ATOM     24  C   LIG    1       22.616 -20.281   4.938  0.00  0.00    +0.085 C 
ATOM     25  C   LIG    1       21.513 -19.305   4.565  0.00  0.00    +0.017 C 
ATOM     26  C   LIG    1       22.251 -18.047   4.136  0.00  0.00    +0.017 C 
ATOM     27  C   LIG    1       23.697 -18.488   3.937  0.00  0.00    +0.085 C 
ENDBRANCH  22  23
ENDBRANCH   2  22
TORSDOF 7
ENDMDL
MODEL 7
REMARK VINA RESULT:      -8.6      2.964      6.622
REMARK  Name = *****
REMARK                            x       y       z     vdW  Elec       q    Type
REMARK                         _______ _______ _______ _____ _____    ______ ____
ROOT
ATOM      1  C   LIG    1       25.726 -21.067   5.360  0.00  0.00    +0.005 C 
ATOM      2  C   LIG    1       25.478 -20.321   4.261  0.00  0.00    -0.001 C 
ENDROOT
BRANCH   1   7
ATOM      3  C   LIG    1       30.577 -19.893   8.313  0.00  0.00    +0.044 C 
ATOM      4  C   LIG    1       29.323 -20.204   7.550  0.00  0.00    -0.050 A 
ATOM      5  C   LIG    1       28.443 -21.197   7.995  0.00  0.00    +0.004 A 
ATOM      6  C   LIG    1       27.269 -21.470   7.287  0.00  0.00    +0.009 A 
ATOM      7  C   LIG    1       26.951 -20.747   6.128  0.00  0.00    -0.016 A 
ATOM      8  C   LIG    1       27.815 -19.736   5.700  0.00  0.00    +0.009 A 
ATOM      9  C   LIG    1       28.990 -19.465   6.408  0.00  0.00    +0.004 A 
ENDBRANCH   1   7
BRANCH   1  10
ATOM     10  C   LIG    1       24.755 -22.069   5.838  0.00  0.00    +0.072 A 
ATOM     11  N   LIG    1       24.893 -23.336   5.353  0.00  0.00    -0.247 NA
ATOM     12  C   LIG    1       24.072 -24.277   5.873  0.00  0.00    +0.065 A 
ATOM     13  C   LIG    1       23.123 -23.992   6.858  0.00  0.00    +0.028 A 
ATOM     14  C   LIG    1       22.962 -22.679   7.289  0.00  0.00    +0.004 A 
ATOM     15  C   LIG    1       23.812 -21.703   6.792  0.00  0.00    +0.028 A 
BRANCH  12  16
ATOM     16  C   LIG    1       24.177 -25.634   5.321  0.00  0.00    +0.035 C 
ATOM     17  C   LIG    1       25.090 -26.607   5.494  0.00  0.00    +0.093 C 
BRANCH  17  18
ATOM     18  C   LIG    1       26.315 -26.763   6.310  0.00  0.00    +0.330 C 
ATOM     19  O   LIG    1       26.242 -26.946   7.508  0.00  0.00    -0.246 OA
BRANCH  18  20
ATOM     20  O   LIG    1       27.480 -26.749   5.640  0.00  0.00    -0.477 OA
ATOM     21  H   LIG    1       27.718 -27.622   5.251  0.00  0.00    +0.295 HD
ENDBRANCH  18  20
ENDBRANCH  17  18
ENDBRANCH  12  16
ENDBRANCH   1  10
BRANCH   2  22
ATOM     22  C   LIG    1       24.290 -20.384   3.340  0.00  0.00    +0.112 C 
BRANCH  22  23
ATOM     23  N   LIG    1       23.456 -19.176   3.422  0.00  0.00    -0.299 NA
ATOM     24  C   LIG    1       22.496 -19.211   4.531  0.00  0.00    +0.085 C 
ATOM     25  C   LIG    1       22.073 -17.757   4.648  0.00  0.00    +0.017 C 
ATOM     26  C   LIG    1       23.333 -16.970   4.321  0.00  0.00    +0.017 C 
ATOM     27  C   LIG    1       24.277 -17.986   3.688  0.00  0.00    +0.085 C 
ENDBRANCH  22  23
ENDBRANCH   2  22
TORSDOF 7
ENDMDL
MODEL 8
REMARK VINA RESULT:      -8.4      1.698      2.106
REMARK  Name = *****
REMARK                            x       y       z     vdW  Elec       q    Type
REMARK                         _______ _______ _______ _____ _____    ______ ____
ROOT
ATOM      1  C   LIG    1       25.650 -23.649   6.483  0.00  0.00    +0.005 C 
ATOM      2  C   LIG    1       26.729 -23.222   7.174  0.00  0.00    -0.001 C 
ENDROOT
BRANCH   1   7
ATOM      3  C   LIG    1       25.246 -29.320   5.338  0.00  0.00    +0.044 C 
ATOM      4  C   LIG    1       25.347 -27.854   5.641  0.00  0.00    -0.050 A 
ATOM      5  C   LIG    1       25.720 -27.412   6.915  0.00  0.00    +0.004 A 
ATOM      6  C   LIG    1       25.827 -26.044   7.185  0.00  0.00    +0.009 A 
ATOM      7  C   LIG    1       25.573 -25.097   6.182  0.00  0.00    -0.016 A 
ATOM      8  C   LIG    1       25.230 -25.539   4.902  0.00  0.00    +0.009 A 
ATOM      9  C   LIG    1       25.121 -26.907   4.633  0.00  0.00    +0.004 A 
ENDBRANCH   1   7
BRANCH   1  10
ATOM     10  C   LIG    1       24.543 -22.733   6.154  0.00  0.00    +0.072 A 
ATOM     11  N   LIG    1       24.813 -21.743   5.256  0.00  0.00    -0.247 NA
ATOM     12  C   LIG    1       23.770 -20.971   4.872  0.00  0.00    +0.065 A 
ATOM     13  C   LIG    1       22.473 -21.158   5.355  0.00  0.00    +0.028 A 
ATOM     14  C   LIG    1       22.238 -22.137   6.317  0.00  0.00    +0.004 A 
ATOM     15  C   LIG    1       23.285 -22.959   6.703  0.00  0.00    +0.028 A 
BRANCH  12  16
ATOM     16  C   LIG    1       24.060 -19.869   3.945  0.00  0.00    +0.035 C 
ATOM     17  C   LIG    1       23.401 -18.730   3.670  0.00  0.00    +0.093 C 
BRANCH  17  18
ATOM     18  C   LIG    1       22.173 -18.078   4.179  0.00  0.00    +0.330 C 
ATOM     19  O   LIG    1       22.242 -17.128   4.932  0.00  0.00    -0.246 OA
BRANCH  18  20
ATOM     20  O   LIG    1       21.008 -18.562   3.714  0.00  0.00    -0.477 OA
ATOM     21  H   LIG    1       20.280 -18.530   4.376  0.00  0.00    +0.295 HD
ENDBRANCH  18  20
ENDBRANCH  17  18
ENDBRANCH  12  16
ENDBRANCH   1  10
BRANCH   2  22
ATOM     22  C   LIG    1       27.032 -21.832   7.666  0.00  0.00    +0.112 C 
BRANCH  22  23
ATOM     23  N   LIG    1       28.113 -21.194   6.902  0.00  0.00    -0.299 NA
ATOM     24  C   LIG    1       27.716 -19.920   6.292  0.00  0.00    +0.085 C 
ATOM     25  C   LIG    1       29.053 -19.294   5.935  0.00  0.00    +0.017 C 
ATOM     26  C   LIG    1       29.983 -19.721   7.060  0.00  0.00    +0.017 C 
ATOM     27  C   LIG    1       29.241 -20.843   7.777  0.00  0.00    +0.085 C 
ENDBRANCH  22  23
ENDBRANCH   2  22
TORSDOF 7
ENDMDL
MODEL 9
REMARK VINA RESULT:      -8.1      2.405      6.842
REMARK  Name = *****
REMARK                            x       y       z     vdW  Elec       q    Type
REMARK                         _______ _______ _______ _____ _____    ______ ____
ROOT
ATOM      1  C   LIG    1       26.855 -20.260   5.759  0.00  0.00    +0.005 C 
ATOM      2  C   LIG    1       26.546 -19.770   4.538  0.00  0.00    -0.001 C 
ENDROOT
BRANCH   1   7
ATOM      3  C   LIG    1       31.801 -18.439   8.178  0.00  0.00    +0.044 C 
ATOM      4  C   LIG    1       30.522 -18.917   7.554  0.00  0.00    -0.050 A 
ATOM      5  C   LIG    1       29.621 -19.700   8.284  0.00  0.00    +0.004 A 
ATOM      6  C   LIG    1       28.424 -20.129   7.702  0.00  0.00    +0.009 A 
ATOM      7  C   LIG    1       28.105 -19.772   6.384  0.00  0.00    -0.016 A 
ATOM      8  C   LIG    1       28.991 -18.965   5.665  0.00  0.00    +0.009 A 
ATOM      9  C   LIG    1       30.189 -18.539   6.248  0.00  0.00    +0.004 A 
ENDBRANCH   1   7
BRANCH   1  10
ATOM     10  C   LIG    1       25.925 -21.146   6.483  0.00  0.00    +0.072 A 
ATOM     11  N   LIG    1       26.233 -22.474   6.503  0.00  0.00    -0.247 NA
ATOM     12  C   LIG    1       25.440 -23.269   7.257  0.00  0.00    +0.065 A 
ATOM     13  C   LIG    1       24.355 -22.780   7.989  0.00  0.00    +0.028 A 
ATOM     14  C   LIG    1       24.027 -21.430   7.902  0.00  0.00    +0.004 A 
ATOM     15  C   LIG    1       24.842 -20.591   7.158  0.00  0.00    +0.028 A 
BRANCH  12  16
ATOM     16  C   LIG    1       25.731 -24.709   7.244  0.00  0.00    +0.035 C 
ATOM     17  C   LIG    1       25.670 -25.630   6.266  0.00  0.00    +0.093 C 
BRANCH  17  18
ATOM     18  C   LIG    1       25.343 -25.607   4.822  0.00  0.00    +0.330 C 
ATOM     19  O   LIG    1       25.572 -26.571   4.120  0.00  0.00    -0.246 OA
BRANCH  18  20
ATOM     20  O   LIG    1       24.738 -24.496   4.368  0.00  0.00    -0.477 OA
ATOM     21  H   LIG    1       24.691 -24.450   3.385  0.00  0.00    +0.295 HD
ENDBRANCH  18  20
ENDBRANCH  17  18
ENDBRANCH  12  16
ENDBRANCH   1  10
BRANCH   2  22
ATOM     22  C   LIG    1       25.322 -20.041   3.706  0.00  0.00    +0.112 C 
BRANCH  22  23
ATOM     23  N   LIG    1       24.084 -19.642   4.391  0.00  0.00    -0.299 NA
ATOM     24  C   LIG    1       23.403 -18.515   3.743  0.00  0.00    +0.085 C 
ATOM     25  C   LIG    1       22.016 -18.567   4.361  0.00  0.00    +0.017 C 
ATOM     26  C   LIG    1       21.738 -20.052   4.539  0.00  0.00    +0.017 C 
ATOM     27  C   LIG    1       23.094 -20.728   4.367  0.00  0.00    +0.085 C 
ENDBRANCH  22  23
ENDBRANCH   2  22
TORSDOF 7
ENDMDL
