MODEL 1
REMARK VINA RESULT:      -8.6      0.000      0.000
REMARK  Name = *****
REMARK                            x       y       z     vdW  Elec       q    Type
REMARK                         _______ _______ _______ _____ _____    ______ ____
ROOT
ATOM      1  N   LIG    1       26.267 -21.369   6.820  0.00  0.00    -0.180 NA
ATOM      2  C   LIG    1       27.350 -21.842   7.346  0.00  0.00    +0.177 C 
ENDROOT
BRANCH   1   9
ATOM      3  O   LIG    1       23.285 -25.043   6.496  0.00  0.00    -0.274 OA
ATOM      4  C   LIG    1       23.745 -23.924   6.677  0.00  0.00    +0.240 C 
ATOM      5  N   LIG    1       23.036 -22.859   7.121  0.00  0.00    -0.237 N 
ATOM      6  H   LIG    1       22.061 -22.866   7.358  0.00  0.00    +0.159 HD
ATOM      7  C   LIG    1       23.827 -21.761   7.240  0.00  0.00    +0.328 C 
ATOM      8  O   LIG    1       23.418 -20.682   7.636  0.00  0.00    -0.250 OA
ATOM      9  N   LIG    1       25.125 -22.124   6.842  0.00  0.00    -0.168 N 
ATOM     10  C   LIG    1       25.181 -23.509   6.432  0.00  0.00    +0.232 C 
ENDBRANCH   1   9
BRANCH   2  11
ATOM     11  C   LIG    1       28.563 -21.074   7.333  0.00  0.00    +0.154 A 
ATOM     12  O   LIG    1       29.483 -21.335   8.314  0.00  0.00    -0.399 OA
ATOM     13  C   LIG    1       30.523 -20.489   8.097  0.00  0.00    +0.438 A 
ATOM     14  C   LIG    1       30.308 -19.692   6.999  0.00  0.00    +0.132 A 
ATOM     15  C   LIG    1       29.033 -20.070   6.504  0.00  0.00    +0.058 A 
BRANCH  13  16
ATOM     16  N   LIG    1       31.613 -20.576   9.017  0.00  0.00    +0.119 N 
ATOM     17  O   LIG    1       31.982 -21.702   9.372  0.00  0.00    -0.574 OA
ATOM     18  O   LIG    1       32.102 -19.501   9.389  0.00  0.00    +0.045 OA
ENDBRANCH  13  16
ENDBRANCH   2  11
TORSDOF 3
ENDMDL
MODEL 2
REMARK VINA RESULT:      -8.3      1.395      2.094
REMARK  Name = *****
REMARK                            x       y       z     vdW  Elec       q    Type
REMARK                         _______ _______ _______ _____ _____    ______ ____
ROOT
ATOM      1  N   LIG    1       26.814 -22.872   7.204  0.00  0.00    -0.180 NA
ATOM      2  C   LIG    1       26.975 -21.608   6.984  0.00  0.00    +0.177 C 
ENDROOT
BRANCH   1   9
ATOM      3  O   LIG    1       22.160 -23.661   6.742  0.00  0.00    -0.274 OA
ATOM      4  C   LIG    1       23.376 -23.781   6.690  0.00  0.00    +0.240 C 
ATOM      5  N   LIG    1       24.026 -24.803   6.085  0.00  0.00    -0.237 N 
ATOM      6  H   LIG    1       23.590 -25.571   5.608  0.00  0.00    +0.159 HD
ATOM      7  C   LIG    1       25.374 -24.647   6.176  0.00  0.00    +0.328 C 
ATOM      8  O   LIG    1       26.172 -25.433   5.693  0.00  0.00    -0.250 OA
ATOM      9  N   LIG    1       25.618 -23.460   6.889  0.00  0.00    -0.168 N 
ATOM     10  C   LIG    1       24.385 -22.826   7.294  0.00  0.00    +0.232 C 
ENDBRANCH   1   9
BRANCH   2  11
ATOM     11  C   LIG    1       28.215 -20.962   7.309  0.00  0.00    +0.154 A 
ATOM     12  O   LIG    1       29.028 -21.582   8.220  0.00  0.00    -0.399 OA
ATOM     13  C   LIG    1       30.119 -20.786   8.364  0.00  0.00    +0.438 A 
ATOM     14  C   LIG    1       30.040 -19.669   7.567  0.00  0.00    +0.132 A 
ATOM     15  C   LIG    1       28.802 -19.783   6.883  0.00  0.00    +0.058 A 
BRANCH  13  16
ATOM     16  N   LIG    1       31.114 -21.234   9.286  0.00  0.00    +0.119 N 
ATOM     17  O   LIG    1       32.209 -20.658   9.281  0.00  0.00    -0.574 OA
ATOM     18  O   LIG    1       30.793 -22.179  10.020  0.00  0.00    +0.045 OA
ENDBRANCH  13  16
ENDBRANCH   2  11
TORSDOF 3
ENDMDL
MODEL 3
REMARK VINA RESULT:      -8.1      1.686      7.051
REMARK  Name = *****
REMARK                            x       y       z     vdW  Elec       q    Type
REMARK                         _______ _______ _______ _____ _____    ______ ____
ROOT
ATOM      1  N   LIG    1       28.487 -21.490   8.084  0.00  0.00    -0.180 NA
ATOM      2  C   LIG    1       27.470 -20.768   7.743  0.00  0.00    +0.177 C 
ENDROOT
BRANCH   1   9
ATOM      3  O   LIG    1       32.101 -18.442   7.710  0.00  0.00    -0.274 OA
ATOM      4  C   LIG    1       31.405 -19.394   8.032  0.00  0.00    +0.240 C 
ATOM      5  N   LIG    1       31.761 -20.342   8.931  0.00  0.00    -0.237 N 
ATOM      6  H   LIG    1       32.627 -20.370   9.438  0.00  0.00    +0.159 HD
ATOM      7  C   LIG    1       30.769 -21.258   9.094  0.00  0.00    +0.328 C 
ATOM      8  O   LIG    1       30.851 -22.201   9.863  0.00  0.00    -0.250 OA
ATOM      9  N   LIG    1       29.709 -20.894   8.246  0.00  0.00    -0.168 N 
ATOM     10  C   LIG    1       30.026 -19.704   7.489  0.00  0.00    +0.232 C 
ENDBRANCH   1   9
BRANCH   2  11
ATOM     11  C   LIG    1       26.178 -21.366   7.561  0.00  0.00    +0.154 A 
ATOM     12  O   LIG    1       26.139 -22.648   7.082  0.00  0.00    -0.399 OA
ATOM     13  C   LIG    1       24.826 -22.983   6.990  0.00  0.00    +0.438 A 
ATOM     14  C   LIG    1       24.012 -21.956   7.402  0.00  0.00    +0.132 A 
ATOM     15  C   LIG    1       24.890 -20.904   7.771  0.00  0.00    +0.058 A 
BRANCH  13  16
ATOM     16  N   LIG    1       24.539 -24.293   6.498  0.00  0.00    +0.119 N 
ATOM     17  O   LIG    1       23.398 -24.738   6.667  0.00  0.00    -0.574 OA
ATOM     18  O   LIG    1       25.473 -24.883   5.937  0.00  0.00    +0.045 OA
ENDBRANCH  13  16
ENDBRANCH   2  11
TORSDOF 3
ENDMDL
MODEL 4
REMARK VINA RESULT:      -8.0      1.678      7.040
REMARK  Name = *****
REMARK                            x       y       z     vdW  Elec       q    Type
REMARK                         _______ _______ _______ _____ _____    ______ ____
ROOT
ATOM      1  N   LIG    1       28.125 -20.555   7.400  0.00  0.00    -0.180 NA
ATOM      2  C   LIG    1       27.406 -21.498   7.916  0.00  0.00    +0.177 C 
ENDROOT
BRANCH   1   9
ATOM      3  O   LIG    1       32.354 -21.437   9.357  0.00  0.00    -0.274 OA
ATOM      4  C   LIG    1       31.450 -20.929   8.709  0.00  0.00    +0.240 C 
ATOM      5  N   LIG    1       31.590 -19.851   7.901  0.00  0.00    -0.237 N 
ATOM      6  H   LIG    1       32.446 -19.352   7.736  0.00  0.00    +0.159 HD
ATOM      7  C   LIG    1       30.413 -19.535   7.300  0.00  0.00    +0.328 C 
ATOM      8  O   LIG    1       30.290 -18.609   6.515  0.00  0.00    -0.250 OA
ATOM      9  N   LIG    1       29.446 -20.452   7.748  0.00  0.00    -0.168 N 
ATOM     10  C   LIG    1       30.009 -21.392   8.689  0.00  0.00    +0.232 C 
ENDBRANCH   1   9
BRANCH   2  11
ATOM     11  C   LIG    1       26.018 -21.629   7.574  0.00  0.00    +0.154 A 
ATOM     12  O   LIG    1       25.541 -22.893   7.350  0.00  0.00    -0.399 OA
ATOM     13  C   LIG    1       24.226 -22.756   7.039  0.00  0.00    +0.438 A 
ATOM     14  C   LIG    1       23.835 -21.439   7.062  0.00  0.00    +0.132 A 
ATOM     15  C   LIG    1       25.000 -20.706   7.406  0.00  0.00    +0.058 A 
BRANCH  13  16
ATOM     16  N   LIG    1       23.513 -23.961   6.754  0.00  0.00    +0.119 N 
ATOM     17  O   LIG    1       22.278 -23.928   6.804  0.00  0.00    -0.574 OA
ATOM     18  O   LIG    1       24.203 -24.952   6.480  0.00  0.00    +0.045 OA
ENDBRANCH  13  16
ENDBRANCH   2  11
TORSDOF 3
ENDMDL
MODEL 5
REMARK VINA RESULT:      -8.0      2.549      7.061
REMARK  Name = *****
REMARK                            x       y       z     vdW  Elec       q    Type
REMARK                         _______ _______ _______ _____ _____    ______ ____
ROOT
ATOM      1  N   LIG    1       28.140 -20.282   6.929  0.00  0.00    -0.180 NA
ATOM      2  C   LIG    1       27.153 -20.704   7.649  0.00  0.00    +0.177 C 
ENDROOT
BRANCH   1   9
ATOM      3  O   LIG    1       31.988 -21.616   9.360  0.00  0.00    -0.274 OA
ATOM      4  C   LIG    1       31.222 -21.003   8.630  0.00  0.00    +0.240 C 
ATOM      5  N   LIG    1       31.556 -19.910   7.903  0.00  0.00    -0.237 N 
ATOM      6  H   LIG    1       32.464 -19.483   7.875  0.00  0.00    +0.159 HD
ATOM      7  C   LIG    1       30.498 -19.466   7.174  0.00  0.00    +0.328 C 
ATOM      8  O   LIG    1       30.557 -18.501   6.430  0.00  0.00    -0.250 OA
ATOM      9  N   LIG    1       29.408 -20.310   7.447  0.00  0.00    -0.168 N 
ATOM     10  C   LIG    1       29.762 -21.335   8.402  0.00  0.00    +0.232 C 
ENDBRANCH   1   9
BRANCH   2  11
ATOM     11  C   LIG    1       25.812 -20.681   7.134  0.00  0.00    +0.154 A 
ATOM     12  O   LIG    1       25.653 -20.396   5.804  0.00  0.00    -0.399 OA
ATOM     13  C   LIG    1       24.317 -20.425   5.564  0.00  0.00    +0.438 A 
ATOM     14  C   LIG    1       23.605 -20.728   6.699  0.00  0.00    +0.132 A 
ATOM     15  C   LIG    1       24.576 -20.892   7.720  0.00  0.00    +0.058 A 
BRANCH  13  16
ATOM     16  N   LIG    1       23.908 -20.144   4.224  0.00  0.00    +0.119 N 
ATOM     17  O   LIG    1       23.342 -19.065   4.006  0.00  0.00    -0.574 OA
ATOM     18  O   LIG    1       24.154 -21.018   3.383  0.00  0.00    +0.045 OA
ENDBRANCH  13  16
ENDBRANCH   2  11
TORSDOF 3
ENDMDL
MODEL 6
REMARK VINA RESULT:      -7.7      1.908      7.319
REMARK  Name = *****
REMARK                            x       y       z     vdW  Elec       q    Type
REMARK                         _______ _______ _______ _____ _____    ______ ____
ROOT
ATOM      1  N   LIG    1       28.854 -21.408   7.923  0.00  0.00    -0.180 NA
ATOM      2  C   LIG    1       27.888 -20.848   7.270  0.00  0.00    +0.177 C 
ENDROOT
BRANCH   1   9
ATOM      3  O   LIG    1       32.016 -17.877   8.101  0.00  0.00    -0.274 OA
ATOM      4  C   LIG    1       31.460 -18.955   8.251  0.00  0.00    +0.240 C 
ATOM      5  N   LIG    1       31.955 -19.985   8.979  0.00  0.00    -0.237 N 
ATOM      6  H   LIG    1       32.824 -19.980   9.481  0.00  0.00    +0.159 HD
ATOM      7  C   LIG    1       31.099 -21.041   8.976  0.00  0.00    +0.328 C 
ATOM      8  O   LIG    1       31.319 -22.081   9.574  0.00  0.00    -0.250 OA
ATOM      9  N   LIG    1       29.986 -20.687   8.194  0.00  0.00    -0.168 N 
ATOM     10  C   LIG    1       30.127 -19.354   7.652  0.00  0.00    +0.232 C 
ENDBRANCH   1   9
BRANCH   2  11
ATOM     11  C   LIG    1       26.691 -21.581   6.967  0.00  0.00    +0.154 A 
ATOM     12  O   LIG    1       25.805 -21.007   6.095  0.00  0.00    -0.399 OA
ATOM     13  C   LIG    1       24.767 -21.874   5.978  0.00  0.00    +0.438 A 
ATOM     14  C   LIG    1       24.957 -22.998   6.745  0.00  0.00    +0.132 A 
ATOM     15  C   LIG    1       26.206 -22.806   7.390  0.00  0.00    +0.058 A 
BRANCH  13  16
ATOM     16  N   LIG    1       23.702 -21.475   5.112  0.00  0.00    +0.119 N 
ATOM     17  O   LIG    1       22.579 -21.324   5.607  0.00  0.00    -0.574 OA
ATOM     18  O   LIG    1       23.998 -21.316   3.920  0.00  0.00    +0.045 OA
ENDBRANCH  13  16
ENDBRANCH   2  11
TORSDOF 3
ENDMDL
MODEL 7
REMARK VINA RESULT:      -7.7      2.199      2.730
REMARK  Name = *****
REMARK                            x       y       z     vdW  Elec       q    Type
REMARK                         _______ _______ _______ _____ _____    ______ ____
ROOT
ATOM      1  N   LIG    1       27.585 -20.395   7.332  0.00  0.00    -0.180 NA
ATOM      2  C   LIG    1       28.819 -20.434   6.948  0.00  0.00    +0.177 C 
ENDROOT
BRANCH   1   9
ATOM      3  O   LIG    1       24.649 -23.968   6.279  0.00  0.00    -0.274 OA
ATOM      4  C   LIG    1       25.265 -22.912   6.241  0.00  0.00    +0.240 C 
ATOM      5  N   LIG    1       25.090 -21.949   5.304  0.00  0.00    -0.237 N 
ATOM      6  H   LIG    1       24.437 -21.988   4.543  0.00  0.00    +0.159 HD
ATOM      7  C   LIG    1       25.902 -20.885   5.540  0.00  0.00    +0.328 C 
ATOM      8  O   LIG    1       25.916 -19.887   4.839  0.00  0.00    -0.250 OA
ATOM      9  N   LIG    1       26.658 -21.172   6.690  0.00  0.00    -0.168 N 
ATOM     10  C   LIG    1       26.340 -22.479   7.217  0.00  0.00    +0.232 C 
ENDBRANCH   1   9
BRANCH   2  11
ATOM     11  C   LIG    1       29.813 -19.627   7.599  0.00  0.00    +0.154 A 
ATOM     12  O   LIG    1       29.493 -19.100   8.822  0.00  0.00    -0.399 OA
ATOM     13  C   LIG    1       30.573 -18.380   9.222  0.00  0.00    +0.438 A 
ATOM     14  C   LIG    1       31.587 -18.431   8.296  0.00  0.00    +0.132 A 
ATOM     15  C   LIG    1       31.092 -19.239   7.240  0.00  0.00    +0.058 A 
BRANCH  13  16
ATOM     16  N   LIG    1       30.464 -17.723  10.486  0.00  0.00    +0.119 N 
ATOM     17  O   LIG    1       30.105 -16.539  10.493  0.00  0.00    -0.574 OA
ATOM     18  O   LIG    1       30.745 -18.403  11.481  0.00  0.00    +0.045 OA
ENDBRANCH  13  16
ENDBRANCH   2  11
TORSDOF 3
ENDMDL
MODEL 8
REMARK VINA RESULT:      -7.4      3.889      5.705
REMARK  Name = *****
REMARK                            x       y       z     vdW  Elec       q    Type
REMARK                         _______ _______ _______ _____ _____    ______ ____
ROOT
ATOM      1  N   LIG    1       25.169 -25.384   6.410  0.00  0.00    -0.180 NA
ATOM      2  C   LIG    1       24.040 -24.757   6.470  0.00  0.00    +0.177 C 
ENDROOT
BRANCH   1   9
ATOM      3  O   LIG    1       23.905 -29.938   6.011  0.00  0.00    -0.274 OA
ATOM      4  C   LIG    1       24.518 -28.885   5.922  0.00  0.00    +0.240 C 
ATOM      5  N   LIG    1       25.676 -28.719   5.238  0.00  0.00    -0.237 N 
ATOM      6  H   LIG    1       26.156 -29.435   4.723  0.00  0.00    +0.159 HD
ATOM      7  C   LIG    1       26.104 -27.431   5.305  0.00  0.00    +0.328 C 
ATOM      8  O   LIG    1       27.118 -27.034   4.755  0.00  0.00    -0.250 OA
ATOM      9  N   LIG    1       25.180 -26.715   6.087  0.00  0.00    -0.168 N 
ATOM     10  C   LIG    1       24.117 -27.571   6.561  0.00  0.00    +0.232 C 
ENDBRANCH   1   9
BRANCH   2  11
ATOM     11  C   LIG    1       23.996 -23.363   6.811  0.00  0.00    +0.154 A 
ATOM     12  O   LIG    1       25.122 -22.815   7.364  0.00  0.00    -0.399 OA
ATOM     13  C   LIG    1       24.834 -21.509   7.603  0.00  0.00    +0.438 A 
ATOM     14  C   LIG    1       23.555 -21.193   7.214  0.00  0.00    +0.132 A 
ATOM     15  C   LIG    1       23.009 -22.399   6.702  0.00  0.00    +0.058 A 
BRANCH  13  16
ATOM     16  N   LIG    1       25.874 -20.729   8.195  0.00  0.00    +0.119 N 
ATOM     17  O   LIG    1       25.877 -20.607   9.427  0.00  0.00    -0.574 OA
ATOM     18  O   LIG    1       26.695 -20.230   7.415  0.00  0.00    +0.045 OA
ENDBRANCH  13  16
ENDBRANCH   2  11
TORSDOF 3
ENDMDL
MODEL 9
REMARK VINA RESULT:      -7.3      2.138      2.641
REMARK  Name = *****
REMARK                            x       y       z     vdW  Elec       q    Type
REMARK                         _______ _______ _______ _____ _____    ______ ____
ROOT
ATOM      1  N   LIG    1       26.747 -20.862   7.114  0.00  0.00    -0.180 NA
ATOM      2  C   LIG    1       27.745 -20.078   6.872  0.00  0.00    +0.177 C 
ENDROOT
BRANCH   1   9
ATOM      3  O   LIG    1       23.632 -20.006   3.641  0.00  0.00    -0.274 OA
ATOM      4  C   LIG    1       24.126 -20.270   4.728  0.00  0.00    +0.240 C 
ATOM      5  N   LIG    1       23.422 -20.591   5.840  0.00  0.00    -0.237 N 
ATOM      6  H   LIG    1       22.422 -20.656   5.898  0.00  0.00    +0.159 HD
ATOM      7  C   LIG    1       24.250 -20.852   6.885  0.00  0.00    +0.328 C 
ATOM      8  O   LIG    1       23.850 -21.178   7.990  0.00  0.00    -0.250 OA
ATOM      9  N   LIG    1       25.571 -20.682   6.435  0.00  0.00    -0.168 N 
ATOM     10  C   LIG    1       25.607 -20.280   5.048  0.00  0.00    +0.232 C 
ENDBRANCH   1   9
BRANCH   2  11
ATOM     11  C   LIG    1       28.988 -20.239   7.572  0.00  0.00    +0.154 A 
ATOM     12  O   LIG    1       29.696 -19.105   7.868  0.00  0.00    -0.399 OA
ATOM     13  C   LIG    1       30.820 -19.513   8.513  0.00  0.00    +0.438 A 
ATOM     14  C   LIG    1       30.857 -20.879   8.650  0.00  0.00    +0.132 A 
ATOM     15  C   LIG    1       29.669 -21.352   8.036  0.00  0.00    +0.058 A 
BRANCH  13  16
ATOM     16  N   LIG    1       31.727 -18.485   8.916  0.00  0.00    +0.119 N 
ATOM     17  O   LIG    1       32.129 -17.696   8.052  0.00  0.00    -0.574 OA
ATOM     18  O   LIG    1       32.041 -18.473  10.113  0.00  0.00    +0.045 OA
ENDBRANCH  13  16
ENDBRANCH   2  11
TORSDOF 3
ENDMDL
