MODEL 1
REMARK VINA RESULT:      -8.2      0.000      0.000
REMARK  Name = *****
REMARK                            x       y       z     vdW  Elec       q    Type
REMARK                         _______ _______ _______ _____ _____    ______ ____
ROOT
ATOM      1  C   LIG    1       25.393 -28.317   7.890  0.00  0.00    +0.107 C 
ENDROOT
BRANCH   1   2
ATOM      2  N   LIG    1       26.227 -27.899   6.742  0.00  0.00    -0.308 N 
ATOM      3  H   LIG    1       26.811 -28.593   6.287  0.00  0.00    +0.149 HD
ATOM      4  C   LIG    1       26.391 -26.655   6.197  0.00  0.00    +0.234 C 
ATOM      5  O   LIG    1       27.250 -26.503   5.328  0.00  0.00    -0.274 OA
BRANCH   4   6
ATOM      6  C   LIG    1       25.588 -25.479   6.798  0.00  0.00    +0.168 C 
BRANCH   6   7
ATOM      7  N   LIG    1       26.342 -24.246   6.552  0.00  0.00    -0.298 N 
ATOM      8  H   LIG    1       27.003 -24.170   5.804  0.00  0.00    +0.150 HD
ATOM      9  C   LIG    1       26.238 -23.167   7.429  0.00  0.00    +0.263 C 
ATOM     10  O   LIG    1       25.539 -23.177   8.421  0.00  0.00    -0.269 OA
BRANCH   9  11
ATOM     11  C   LIG    1       27.070 -21.972   7.090  0.00  0.00    +0.126 A 
ATOM     12  N   LIG    1       28.271 -21.855   7.704  0.00  0.00    -0.242 NA
ATOM     13  C   LIG    1       29.022 -20.781   7.396  0.00  0.00    +0.072 A 
ATOM     14  C   LIG    1       28.586 -19.779   6.494  0.00  0.00    +0.000 A 
ATOM     15  C   LIG    1       29.397 -18.663   6.222  0.00  0.00    +0.010 A 
ATOM     16  C   LIG    1       30.640 -18.530   6.836  0.00  0.00    +0.001 A 
ATOM     17  C   LIG    1       31.076 -19.509   7.721  0.00  0.00    +0.002 A 
ATOM     18  C   LIG    1       27.331 -19.930   5.896  0.00  0.00    +0.012 A 
ATOM     19  C   LIG    1       30.268 -20.622   7.985  0.00  0.00    +0.028 A 
ATOM     20  C   LIG    1       26.559 -21.048   6.187  0.00  0.00    +0.034 A 
ENDBRANCH   9  11
ENDBRANCH   6   7
BRANCH   6  21
ATOM     21  C   LIG    1       24.167 -25.419   6.255  0.00  0.00    +0.127 C 
BRANCH  21  22
ATOM     22  C   LIG    1       23.839 -24.020   5.754  0.00  0.00    +0.213 C 
ATOM     23  O   LIG    1       24.337 -23.485   4.787  0.00  0.00    -0.276 OA
ATOM     24  N   LIG    1       22.864 -23.395   6.485  0.00  0.00    -0.329 N 
ATOM     25  H   LIG    1       22.626 -22.453   6.217  0.00  0.00    +0.145 HD
ATOM     26  H   LIG    1       22.444 -23.805   7.299  0.00  0.00    +0.145 HD
ENDBRANCH  21  22
ENDBRANCH   6  21
ENDBRANCH   4   6
ENDBRANCH   1   2
BRANCH   1  27
ATOM     27  C   LIG    1       26.339 -28.824   9.020  0.00  0.00    +0.149 C 
BRANCH  27  28
ATOM     28  O   LIG    1       26.517 -27.776   9.967  0.00  0.00    -0.389 OA
ATOM     29  H   LIG    1       27.474 -27.712  10.144  0.00  0.00    +0.210 HD
ENDBRANCH  27  28
BRANCH  27  30
ATOM     30  C   LIG    1       25.869 -30.156   9.694  0.00  0.00    +0.118 C 
BRANCH  30  32
ATOM     31  C   LIG    1       23.701 -29.943  10.927  0.00  0.00    +0.143 C 
ATOM     32  N   LIG    1       25.175 -30.073  11.015  0.00  0.00    -0.289 NA
ATOM     33  C   LIG    1       25.575 -31.189  11.908  0.00  0.00    +0.089 C 
ATOM     34  C   LIG    1       24.806 -32.541  11.891  0.00  0.00    +0.006 C 
ATOM     35  C   LIG    1       23.338 -32.483  11.441  0.00  0.00    -0.005 C 
ATOM     36  C   LIG    1       22.285 -32.769  12.524  0.00  0.00    +0.004 C 
ATOM     37  C   LIG    1       22.709 -32.433  13.939  0.00  0.00    +0.000 C 
ATOM     38  C   LIG    1       24.011 -33.100  14.342  0.00  0.00    +0.000 C 
ATOM     39  C   LIG    1       25.014 -33.334  13.209  0.00  0.00    +0.005 C 
ATOM     40  C   LIG    1       23.015 -31.267  10.560  0.00  0.00    +0.032 C 
BRANCH  31  43
ATOM     41  N   LIG    1       23.778 -28.176  12.701  0.00  0.00    -0.309 N 
ATOM     42  H   LIG    1       24.760 -28.129  12.420  0.00  0.00    +0.149 HD
ATOM     43  C   LIG    1       23.050 -29.161  12.084  0.00  0.00    +0.231 C 
ATOM     44  O   LIG    1       21.875 -29.395  12.310  0.00  0.00    -0.274 OA
BRANCH  41  46
ATOM     45  C   LIG    1       21.955 -26.497  13.246  0.00  0.00    +0.031 C 
ATOM     46  C   LIG    1       23.282 -27.159  13.677  0.00  0.00    +0.026 C 
ATOM     47  C   LIG    1       23.051 -27.764  15.076  0.00  0.00    +0.031 C 
ATOM     48  C   LIG    1       24.321 -26.027  13.786  0.00  0.00    +0.031 C 
ENDBRANCH  41  46
ENDBRANCH  31  43
ENDBRANCH  30  32
ENDBRANCH  27  30
ENDBRANCH   1  27
BRANCH   1  49
ATOM     49  C   LIG    1       24.280 -29.276   7.389  0.00  0.00    +0.060 C 
BRANCH  49  50
ATOM     50  C   LIG    1       24.563 -30.541   6.591  0.00  0.00    -0.045 A 
ATOM     51  C   LIG    1       25.456 -30.662   5.520  0.00  0.00    +0.003 A 
ATOM     52  C   LIG    1       25.505 -31.823   4.738  0.00  0.00    +0.000 A 
ATOM     53  C   LIG    1       24.779 -32.946   5.110  0.00  0.00    +0.000 A 
ATOM     54  C   LIG    1       23.988 -32.896   6.253  0.00  0.00    +0.000 A 
ATOM     55  C   LIG    1       23.867 -31.702   6.971  0.00  0.00    +0.003 A 
ENDBRANCH  49  50
ENDBRANCH   1  49
TORSDOF 14
ENDMDL
MODEL 2
REMARK VINA RESULT:      -7.9      2.236      3.857
REMARK  Name = *****
REMARK                            x       y       z     vdW  Elec       q    Type
REMARK                         _______ _______ _______ _____ _____    ______ ____
ROOT
ATOM      1  C   LIG    1       26.213 -31.893   8.323  0.00  0.00    +0.107 C 
ENDROOT
BRANCH   1   2
ATOM      2  N   LIG    1       26.819 -30.640   8.824  0.00  0.00    -0.308 N 
ATOM      3  H   LIG    1       27.628 -30.701   9.433  0.00  0.00    +0.149 HD
ATOM      4  C   LIG    1       26.417 -29.346   8.634  0.00  0.00    +0.234 C 
ATOM      5  O   LIG    1       26.988 -28.455   9.265  0.00  0.00    -0.274 OA
BRANCH   4   6
ATOM      6  C   LIG    1       25.178 -29.085   7.748  0.00  0.00    +0.168 C 
BRANCH   6   7
ATOM      7  N   LIG    1       24.934 -27.640   7.729  0.00  0.00    -0.298 N 
ATOM      8  H   LIG    1       24.345 -27.193   8.404  0.00  0.00    +0.150 HD
ATOM      9  C   LIG    1       25.434 -26.853   6.692  0.00  0.00    +0.263 C 
ATOM     10  O   LIG    1       26.083 -27.297   5.768  0.00  0.00    -0.269 OA
BRANCH   9  11
ATOM     11  C   LIG    1       25.102 -25.396   6.764  0.00  0.00    +0.126 A 
ATOM     12  N   LIG    1       26.099 -24.547   7.108  0.00  0.00    -0.242 NA
ATOM     13  C   LIG    1       25.801 -23.236   7.168  0.00  0.00    +0.072 A 
ATOM     14  C   LIG    1       24.499 -22.737   6.919  0.00  0.00    +0.000 A 
ATOM     15  C   LIG    1       24.233 -21.359   7.018  0.00  0.00    +0.010 A 
ATOM     16  C   LIG    1       25.247 -20.469   7.362  0.00  0.00    +0.001 A 
ATOM     17  C   LIG    1       26.528 -20.951   7.606  0.00  0.00    +0.002 A 
ATOM     18  C   LIG    1       23.495 -23.650   6.584  0.00  0.00    +0.012 A 
ATOM     19  C   LIG    1       26.791 -22.321   7.502  0.00  0.00    +0.028 A 
ATOM     20  C   LIG    1       23.797 -25.003   6.493  0.00  0.00    +0.034 A 
ENDBRANCH   9  11
ENDBRANCH   6   7
BRANCH   6  21
ATOM     21  C   LIG    1       25.338 -29.675   6.354  0.00  0.00    +0.127 C 
BRANCH  21  22
ATOM     22  C   LIG    1       23.980 -29.967   5.732  0.00  0.00    +0.213 C 
ATOM     23  O   LIG    1       23.278 -30.921   5.992  0.00  0.00    -0.276 OA
ATOM     24  N   LIG    1       23.568 -29.007   4.846  0.00  0.00    -0.329 N 
ATOM     25  H   LIG    1       22.689 -29.162   4.380  0.00  0.00    +0.145 HD
ATOM     26  H   LIG    1       24.132 -28.214   4.599  0.00  0.00    +0.145 HD
ENDBRANCH  21  22
ENDBRANCH   6  21
ENDBRANCH   4   6
ENDBRANCH   1   2
BRANCH   1  27
ATOM     27  C   LIG    1       25.603 -32.658   9.536  0.00  0.00    +0.149 C 
BRANCH  27  28
ATOM     28  O   LIG    1       26.352 -32.332  10.701  0.00  0.00    -0.389 OA
ATOM     29  H   LIG    1       25.781 -31.772  11.259  0.00  0.00    +0.210 HD
ENDBRANCH  27  28
BRANCH  27  30
ATOM     30  C   LIG    1       24.069 -32.419   9.732  0.00  0.00    +0.118 C 
BRANCH  30  32
ATOM     31  C   LIG    1       22.809 -30.585  10.878  0.00  0.00    +0.143 C 
ATOM     32  N   LIG    1       23.606 -31.827  11.024  0.00  0.00    -0.289 NA
ATOM     33  C   LIG    1       22.907 -32.832  11.862  0.00  0.00    +0.089 C 
ATOM     34  C   LIG    1       21.374 -33.059  11.726  0.00  0.00    +0.006 C 
ATOM     35  C   LIG    1       20.552 -31.866  11.216  0.00  0.00    -0.005 C 
ATOM     36  C   LIG    1       19.597 -31.216  12.231  0.00  0.00    +0.004 C 
ATOM     37  C   LIG    1       20.013 -31.349  13.682  0.00  0.00    +0.000 C 
ATOM     38  C   LIG    1       20.259 -32.785  14.100  0.00  0.00    +0.000 C 
ATOM     39  C   LIG    1       20.779 -33.716  13.000  0.00  0.00    +0.005 C 
ATOM     40  C   LIG    1       21.377 -30.860  10.399  0.00  0.00    +0.032 C 
BRANCH  31  43
ATOM     41  N   LIG    1       21.962 -28.639  12.210  0.00  0.00    -0.309 N 
ATOM     42  H   LIG    1       21.289 -28.582  11.443  0.00  0.00    +0.149 HD
ATOM     43  C   LIG    1       22.934 -29.595  12.052  0.00  0.00    +0.231 C 
ATOM     44  O   LIG    1       23.841 -29.793  12.842  0.00  0.00    -0.274 OA
BRANCH  41  46
ATOM     45  C   LIG    1       20.432 -26.955  13.332  0.00  0.00    +0.031 C 
ATOM     46  C   LIG    1       21.764 -27.734  13.383  0.00  0.00    +0.026 C 
ATOM     47  C   LIG    1       21.787 -28.504  14.718  0.00  0.00    +0.031 C 
ATOM     48  C   LIG    1       22.888 -26.680  13.391  0.00  0.00    +0.031 C 
ENDBRANCH  41  46
ENDBRANCH  31  43
ENDBRANCH  30  32
ENDBRANCH  27  30
ENDBRANCH   1  27
BRANCH   1  49
ATOM     49  C   LIG    1       27.246 -32.639   7.436  0.00  0.00    +0.060 C 
BRANCH  49  50
ATOM     50  C   LIG    1       26.939 -33.129   6.027  0.00  0.00    -0.045 A 
ATOM     51  C   LIG    1       27.877 -33.439   5.035  0.00  0.00    +0.003 A 
ATOM     52  C   LIG    1       27.484 -33.703   3.717  0.00  0.00    +0.000 A 
ATOM     53  C   LIG    1       26.137 -33.823   3.401  0.00  0.00    +0.000 A 
ATOM     54  C   LIG    1       25.186 -33.656   4.401  0.00  0.00    +0.000 A 
ATOM     55  C   LIG    1       25.582 -33.293   5.692  0.00  0.00    +0.003 A 
ENDBRANCH  49  50
ENDBRANCH   1  49
TORSDOF 14
ENDMDL
MODEL 3
REMARK VINA RESULT:      -7.5      1.819      2.846
REMARK  Name = *****
REMARK                            x       y       z     vdW  Elec       q    Type
REMARK                         _______ _______ _______ _____ _____    ______ ____
ROOT
ATOM      1  C   LIG    1       24.189 -30.406   7.415  0.00  0.00    +0.107 C 
ENDROOT
BRANCH   1   2
ATOM      2  N   LIG    1       25.403 -29.724   7.913  0.00  0.00    -0.308 N 
ATOM      3  H   LIG    1       26.020 -30.227   8.542  0.00  0.00    +0.149 HD
ATOM      4  C   LIG    1       25.827 -28.441   7.698  0.00  0.00    +0.234 C 
ATOM      5  O   LIG    1       26.801 -28.029   8.330  0.00  0.00    -0.274 OA
BRANCH   4   6
ATOM      6  C   LIG    1       24.977 -27.533   6.781  0.00  0.00    +0.168 C 
BRANCH   6   7
ATOM      7  N   LIG    1       25.418 -26.149   6.983  0.00  0.00    -0.298 N 
ATOM      8  H   LIG    1       26.323 -25.929   7.352  0.00  0.00    +0.150 HD
ATOM      9  C   LIG    1       24.539 -25.088   6.767  0.00  0.00    +0.263 C 
ATOM     10  O   LIG    1       23.389 -25.236   6.407  0.00  0.00    -0.269 OA
BRANCH   9  11
ATOM     11  C   LIG    1       25.090 -23.723   7.027  0.00  0.00    +0.126 A 
ATOM     12  N   LIG    1       26.437 -23.582   7.007  0.00  0.00    -0.242 NA
ATOM     13  C   LIG    1       26.933 -22.352   7.237  0.00  0.00    +0.072 A 
ATOM     14  C   LIG    1       26.107 -21.237   7.525  0.00  0.00    +0.000 A 
ATOM     15  C   LIG    1       26.675 -19.977   7.782  0.00  0.00    +0.010 A 
ATOM     16  C   LIG    1       28.057 -19.809   7.756  0.00  0.00    +0.001 A 
ATOM     17  C   LIG    1       28.875 -20.897   7.473  0.00  0.00    +0.002 A 
ATOM     18  C   LIG    1       24.723 -21.431   7.554  0.00  0.00    +0.012 A 
ATOM     19  C   LIG    1       28.306 -22.149   7.212  0.00  0.00    +0.028 A 
ATOM     20  C   LIG    1       24.198 -22.691   7.292  0.00  0.00    +0.034 A 
ENDBRANCH   9  11
ENDBRANCH   6   7
BRANCH   6  21
ATOM     21  C   LIG    1       25.048 -27.965   5.323  0.00  0.00    +0.127 C 
BRANCH  21  22
ATOM     22  C   LIG    1       26.064 -27.128   4.559  0.00  0.00    +0.213 C 
ATOM     23  O   LIG    1       25.806 -26.173   3.860  0.00  0.00    -0.276 OA
ATOM     24  N   LIG    1       27.359 -27.526   4.763  0.00  0.00    -0.329 N 
ATOM     25  H   LIG    1       28.075 -27.027   4.259  0.00  0.00    +0.145 HD
ATOM     26  H   LIG    1       27.605 -28.321   5.324  0.00  0.00    +0.145 HD
ENDBRANCH  21  22
ENDBRANCH   6  21
ENDBRANCH   4   6
ENDBRANCH   1   2
BRANCH   1  27
ATOM     27  C   LIG    1       23.581 -31.235   8.586  0.00  0.00    +0.149 C 
BRANCH  27  28
ATOM     28  O   LIG    1       22.908 -32.364   8.042  0.00  0.00    -0.389 OA
ATOM     29  H   LIG    1       23.313 -33.156   8.441  0.00  0.00    +0.210 HD
ENDBRANCH  27  28
BRANCH  27  30
ATOM     30  C   LIG    1       24.618 -31.638   9.687  0.00  0.00    +0.118 C 
BRANCH  30  32
ATOM     31  C   LIG    1       23.296 -30.448  11.449  0.00  0.00    +0.143 C 
ATOM     32  N   LIG    1       24.636 -30.857  10.961  0.00  0.00    -0.289 NA
ATOM     33  C   LIG    1       25.413 -31.556  12.014  0.00  0.00    +0.089 C 
ATOM     34  C   LIG    1       24.729 -32.581  12.965  0.00  0.00    +0.006 C 
ATOM     35  C   LIG    1       23.224 -32.388  13.203  0.00  0.00    -0.005 C 
ATOM     36  C   LIG    1       22.812 -31.951  14.619  0.00  0.00    +0.004 C 
ATOM     37  C   LIG    1       23.858 -31.160  15.378  0.00  0.00    +0.000 C 
ATOM     38  C   LIG    1       25.195 -31.870  15.461  0.00  0.00    +0.000 C 
ATOM     39  C   LIG    1       25.540 -32.775  14.274  0.00  0.00    +0.005 C 
ATOM     40  C   LIG    1       22.520 -31.613  12.079  0.00  0.00    +0.032 C 
BRANCH  31  43
ATOM     41  N   LIG    1       22.061 -28.537  12.496  0.00  0.00    -0.309 N 
ATOM     42  H   LIG    1       21.269 -28.960  12.009  0.00  0.00    +0.149 HD
ATOM     43  C   LIG    1       23.273 -29.130  12.246  0.00  0.00    +0.231 C 
ATOM     44  O   LIG    1       24.336 -28.750  12.707  0.00  0.00    -0.274 OA
BRANCH  41  46
ATOM     45  C   LIG    1       21.603 -27.835  14.891  0.00  0.00    +0.031 C 
ATOM     46  C   LIG    1       21.785 -27.396  13.422  0.00  0.00    +0.026 C 
ATOM     47  C   LIG    1       22.914 -26.347  13.400  0.00  0.00    +0.031 C 
ATOM     48  C   LIG    1       20.466 -26.723  12.999  0.00  0.00    +0.031 C 
ENDBRANCH  41  46
ENDBRANCH  31  43
ENDBRANCH  30  32
ENDBRANCH  27  30
ENDBRANCH   1  27
BRANCH   1  49
ATOM     49  C   LIG    1       24.528 -31.151   6.096  0.00  0.00    +0.060 C 
BRANCH  49  50
ATOM     50  C   LIG    1       25.745 -32.052   5.934  0.00  0.00    -0.045 A 
ATOM     51  C   LIG    1       26.693 -32.347   6.920  0.00  0.00    +0.003 A 
ATOM     52  C   LIG    1       27.873 -33.038   6.613  0.00  0.00    +0.000 A 
ATOM     53  C   LIG    1       28.051 -33.589   5.351  0.00  0.00    +0.000 A 
ATOM     54  C   LIG    1       27.058 -33.428   4.392  0.00  0.00    +0.000 A 
ATOM     55  C   LIG    1       25.929 -32.652   4.675  0.00  0.00    +0.003 A 
ENDBRANCH  49  50
ENDBRANCH   1  49
TORSDOF 14
ENDMDL
MODEL 4
REMARK VINA RESULT:      -7.4      1.457      2.331
REMARK  Name = *****
REMARK                            x       y       z     vdW  Elec       q    Type
REMARK                         _______ _______ _______ _____ _____    ______ ____
ROOT
ATOM      1  C   LIG    1       25.364 -28.331   7.866  0.00  0.00    +0.107 C 
ENDROOT
BRANCH   1   2
ATOM      2  N   LIG    1       26.204 -27.896   6.730  0.00  0.00    -0.308 N 
ATOM      3  H   LIG    1       26.767 -28.588   6.248  0.00  0.00    +0.149 HD
ATOM      4  C   LIG    1       26.401 -26.638   6.229  0.00  0.00    +0.234 C 
ATOM      5  O   LIG    1       27.261 -26.478   5.362  0.00  0.00    -0.274 OA
BRANCH   4   6
ATOM      6  C   LIG    1       25.633 -25.463   6.876  0.00  0.00    +0.168 C 
BRANCH   6   7
ATOM      7  N   LIG    1       26.402 -24.237   6.640  0.00  0.00    -0.298 N 
ATOM      8  H   LIG    1       27.127 -24.191   5.950  0.00  0.00    +0.150 HD
ATOM      9  C   LIG    1       26.219 -23.119   7.453  0.00  0.00    +0.263 C 
ATOM     10  O   LIG    1       25.435 -23.088   8.379  0.00  0.00    -0.269 OA
BRANCH   9  11
ATOM     11  C   LIG    1       27.074 -21.935   7.133  0.00  0.00    +0.126 A 
ATOM     12  N   LIG    1       28.271 -21.845   7.759  0.00  0.00    -0.242 NA
ATOM     13  C   LIG    1       29.043 -20.781   7.468  0.00  0.00    +0.072 A 
ATOM     14  C   LIG    1       28.633 -19.764   6.572  0.00  0.00    +0.000 A 
ATOM     15  C   LIG    1       29.466 -18.659   6.317  0.00  0.00    +0.010 A 
ATOM     16  C   LIG    1       30.704 -18.553   6.945  0.00  0.00    +0.001 A 
ATOM     17  C   LIG    1       31.115 -19.548   7.824  0.00  0.00    +0.002 A 
ATOM     18  C   LIG    1       27.381 -19.887   5.960  0.00  0.00    +0.012 A 
ATOM     19  C   LIG    1       30.286 -20.649   8.070  0.00  0.00    +0.028 A 
ATOM     20  C   LIG    1       26.588 -20.994   6.234  0.00  0.00    +0.034 A 
ENDBRANCH   9  11
ENDBRANCH   6   7
BRANCH   6  21
ATOM     21  C   LIG    1       24.201 -25.366   6.369  0.00  0.00    +0.127 C 
BRANCH  21  22
ATOM     22  C   LIG    1       23.995 -24.084   5.576  0.00  0.00    +0.213 C 
ATOM     23  O   LIG    1       24.582 -23.783   4.560  0.00  0.00    -0.276 OA
ATOM     24  N   LIG    1       23.019 -23.274   6.095  0.00  0.00    -0.329 N 
ATOM     25  H   LIG    1       22.858 -22.396   5.628  0.00  0.00    +0.145 HD
ATOM     26  H   LIG    1       22.525 -23.487   6.942  0.00  0.00    +0.145 HD
ENDBRANCH  21  22
ENDBRANCH   6  21
ENDBRANCH   4   6
ENDBRANCH   1   2
BRANCH   1  27
ATOM     27  C   LIG    1       26.300 -28.896   8.977  0.00  0.00    +0.149 C 
BRANCH  27  28
ATOM     28  O   LIG    1       26.486 -27.892   9.968  0.00  0.00    -0.389 OA
ATOM     29  H   LIG    1       26.620 -28.352  10.817  0.00  0.00    +0.210 HD
ENDBRANCH  27  28
BRANCH  27  30
ATOM     30  C   LIG    1       25.813 -30.251   9.591  0.00  0.00    +0.118 C 
BRANCH  30  32
ATOM     31  C   LIG    1       23.666 -31.307  10.327  0.00  0.00    +0.143 C 
ATOM     32  N   LIG    1       24.656 -30.223  10.536  0.00  0.00    -0.289 NA
ATOM     33  C   LIG    1       25.110 -30.160  11.947  0.00  0.00    +0.089 C 
ATOM     34  C   LIG    1       25.393 -31.460  12.754  0.00  0.00    +0.006 C 
ATOM     35  C   LIG    1       24.629 -32.717  12.310  0.00  0.00    -0.005 C 
ATOM     36  C   LIG    1       23.568 -33.247  13.288  0.00  0.00    +0.004 C 
ATOM     37  C   LIG    1       22.946 -32.202  14.192  0.00  0.00    +0.000 C 
ATOM     38  C   LIG    1       23.974 -31.409  14.976  0.00  0.00    +0.000 C 
ATOM     39  C   LIG    1       25.326 -31.209  14.284  0.00  0.00    +0.005 C 
ATOM     40  C   LIG    1       24.162 -32.663  10.847  0.00  0.00    +0.032 C 
BRANCH  31  43
ATOM     41  N   LIG    1       21.301 -31.954  10.836  0.00  0.00    -0.309 N 
ATOM     42  H   LIG    1       21.631 -32.874  10.538  0.00  0.00    +0.149 HD
ATOM     43  C   LIG    1       22.218 -30.943  10.706  0.00  0.00    +0.231 C 
ATOM     44  O   LIG    1       22.001 -29.775  10.979  0.00  0.00    -0.274 OA
BRANCH  41  46
ATOM     45  C   LIG    1       19.329 -33.228  11.802  0.00  0.00    +0.031 C 
ATOM     46  C   LIG    1       19.921 -31.858  11.404  0.00  0.00    +0.026 C 
ATOM     47  C   LIG    1       19.872 -30.963  12.658  0.00  0.00    +0.031 C 
ATOM     48  C   LIG    1       18.983 -31.271  10.331  0.00  0.00    +0.031 C 
ENDBRANCH  41  46
ENDBRANCH  31  43
ENDBRANCH  30  32
ENDBRANCH  27  30
ENDBRANCH   1  27
BRANCH   1  49
ATOM     49  C   LIG    1       24.227 -29.248   7.337  0.00  0.00    +0.060 C 
BRANCH  49  50
ATOM     50  C   LIG    1       24.483 -30.531   6.559  0.00  0.00    -0.045 A 
ATOM     51  C   LIG    1       23.931 -31.789   6.831  0.00  0.00    +0.003 A 
ATOM     52  C   LIG    1       24.376 -32.940   6.167  0.00  0.00    +0.000 A 
ATOM     53  C   LIG    1       25.262 -32.833   5.104  0.00  0.00    +0.000 A 
ATOM     54  C   LIG    1       25.719 -31.577   4.723  0.00  0.00    +0.000 A 
ATOM     55  C   LIG    1       25.350 -30.444   5.455  0.00  0.00    +0.003 A 
ENDBRANCH  49  50
ENDBRANCH   1  49
TORSDOF 14
ENDMDL
MODEL 5
REMARK VINA RESULT:      -7.3      2.029      3.712
REMARK  Name = *****
REMARK                            x       y       z     vdW  Elec       q    Type
REMARK                         _______ _______ _______ _____ _____    ______ ____
ROOT
ATOM      1  C   LIG    1       25.704 -28.682   7.151  0.00  0.00    +0.107 C 
ENDROOT
BRANCH   1   2
ATOM      2  N   LIG    1       25.969 -28.030   5.850  0.00  0.00    -0.308 N 
ATOM      3  H   LIG    1       26.288 -28.602   5.075  0.00  0.00    +0.149 HD
ATOM      4  C   LIG    1       25.902 -26.705   5.514  0.00  0.00    +0.234 C 
ATOM      5  O   LIG    1       26.306 -26.359   4.404  0.00  0.00    -0.274 OA
BRANCH   4   6
ATOM      6  C   LIG    1       25.456 -25.697   6.597  0.00  0.00    +0.168 C 
BRANCH   6   7
ATOM      7  N   LIG    1       26.197 -24.450   6.384  0.00  0.00    -0.298 N 
ATOM      8  H   LIG    1       26.823 -24.331   5.612  0.00  0.00    +0.150 HD
ATOM      9  C   LIG    1       26.134 -23.421   7.323  0.00  0.00    +0.263 C 
ATOM     10  O   LIG    1       25.482 -23.486   8.344  0.00  0.00    -0.269 OA
BRANCH   9  11
ATOM     11  C   LIG    1       26.949 -22.206   7.012  0.00  0.00    +0.126 A 
ATOM     12  N   LIG    1       28.153 -22.092   7.622  0.00  0.00    -0.242 NA
ATOM     13  C   LIG    1       28.888 -21.000   7.338  0.00  0.00    +0.072 A 
ATOM     14  C   LIG    1       28.435 -19.980   6.467  0.00  0.00    +0.000 A 
ATOM     15  C   LIG    1       29.230 -18.847   6.220  0.00  0.00    +0.010 A 
ATOM     16  C   LIG    1       30.475 -18.715   6.831  0.00  0.00    +0.001 A 
ATOM     17  C   LIG    1       30.928 -19.712   7.686  0.00  0.00    +0.002 A 
ATOM     18  C   LIG    1       27.178 -20.129   5.872  0.00  0.00    +0.012 A 
ATOM     19  C   LIG    1       30.136 -20.841   7.925  0.00  0.00    +0.028 A 
ATOM     20  C   LIG    1       26.421 -21.264   6.137  0.00  0.00    +0.034 A 
ENDBRANCH   9  11
ENDBRANCH   6   7
BRANCH   6  21
ATOM     21  C   LIG    1       23.948 -25.491   6.602  0.00  0.00    +0.127 C 
BRANCH  21  22
ATOM     22  C   LIG    1       23.582 -24.159   5.962  0.00  0.00    +0.213 C 
ATOM     23  O   LIG    1       24.052 -23.720   4.935  0.00  0.00    -0.276 OA
ATOM     24  N   LIG    1       22.605 -23.480   6.641  0.00  0.00    -0.329 N 
ATOM     25  H   LIG    1       22.343 -22.576   6.281  0.00  0.00    +0.145 HD
ATOM     26  H   LIG    1       22.207 -23.810   7.501  0.00  0.00    +0.145 HD
ENDBRANCH  21  22
ENDBRANCH   6  21
ENDBRANCH   4   6
ENDBRANCH   1   2
BRANCH   1  27
ATOM     27  C   LIG    1       24.220 -29.159   7.165  0.00  0.00    +0.149 C 
BRANCH  27  28
ATOM     28  O   LIG    1       23.665 -28.953   5.871  0.00  0.00    -0.389 OA
ATOM     29  H   LIG    1       23.510 -27.995   5.777  0.00  0.00    +0.210 HD
ENDBRANCH  27  28
BRANCH  27  30
ATOM     30  C   LIG    1       24.029 -30.630   7.663  0.00  0.00    +0.118 C 
BRANCH  30  32
ATOM     31  C   LIG    1       22.897 -32.309   9.134  0.00  0.00    +0.143 C 
ATOM     32  N   LIG    1       23.033 -30.884   8.748  0.00  0.00    -0.289 NA
ATOM     33  C   LIG    1       23.282 -30.018   9.927  0.00  0.00    +0.089 C 
ATOM     34  C   LIG    1       24.238 -30.474  11.066  0.00  0.00    +0.006 C 
ATOM     35  C   LIG    1       24.399 -31.990  11.253  0.00  0.00    -0.005 C 
ATOM     36  C   LIG    1       23.811 -32.580  12.545  0.00  0.00    +0.004 C 
ATOM     37  C   LIG    1       22.640 -31.815  13.128  0.00  0.00    +0.000 C 
ATOM     38  C   LIG    1       22.948 -30.349  13.362  0.00  0.00    +0.000 C 
ATOM     39  C   LIG    1       23.950 -29.718  12.390  0.00  0.00    +0.005 C 
ATOM     40  C   LIG    1       24.073 -32.801   9.989  0.00  0.00    +0.032 C 
BRANCH  31  43
ATOM     41  N   LIG    1       20.848 -31.870  10.506  0.00  0.00    -0.309 N 
ATOM     42  H   LIG    1       21.411 -31.090  10.851  0.00  0.00    +0.149 HD
ATOM     43  C   LIG    1       21.499 -32.712   9.641  0.00  0.00    +0.231 C 
ATOM     44  O   LIG    1       21.005 -33.713   9.149  0.00  0.00    -0.274 OA
BRANCH  41  46
ATOM     45  C   LIG    1       18.423 -31.513   9.846  0.00  0.00    +0.031 C 
ATOM     46  C   LIG    1       19.420 -31.947  10.943  0.00  0.00    +0.026 C 
ATOM     47  C   LIG    1       19.023 -33.372  11.376  0.00  0.00    +0.031 C 
ATOM     48  C   LIG    1       19.212 -30.985  12.129  0.00  0.00    +0.031 C 
ENDBRANCH  41  46
ENDBRANCH  31  43
ENDBRANCH  30  32
ENDBRANCH  27  30
ENDBRANCH   1  27
BRANCH   1  49
ATOM     49  C   LIG    1       26.178 -27.746   8.296  0.00  0.00    +0.060 C 
BRANCH  49  50
ATOM     50  C   LIG    1       26.663 -28.256   9.646  0.00  0.00    -0.045 A 
ATOM     51  C   LIG    1       26.592 -27.571  10.864  0.00  0.00    +0.003 A 
ATOM     52  C   LIG    1       27.234 -28.055  12.012  0.00  0.00    +0.000 A 
ATOM     53  C   LIG    1       27.820 -29.314  12.005  0.00  0.00    +0.000 A 
ATOM     54  C   LIG    1       27.782 -30.075  10.843  0.00  0.00    +0.000 A 
ATOM     55  C   LIG    1       27.229 -29.544   9.673  0.00  0.00    +0.003 A 
ENDBRANCH  49  50
ENDBRANCH   1  49
TORSDOF 14
ENDMDL
MODEL 6
REMARK VINA RESULT:      -7.2      2.453      9.984
REMARK  Name = *****
REMARK                            x       y       z     vdW  Elec       q    Type
REMARK                         _______ _______ _______ _____ _____    ______ ____
ROOT
ATOM      1  C   LIG    1       25.286 -27.641   7.411  0.00  0.00    +0.107 C 
ENDROOT
BRANCH   1   2
ATOM      2  N   LIG    1       24.525 -28.537   6.513  0.00  0.00    -0.308 N 
ATOM      3  H   LIG    1       24.218 -28.179   5.614  0.00  0.00    +0.149 HD
ATOM      4  C   LIG    1       24.097 -29.819   6.725  0.00  0.00    +0.234 C 
ATOM      5  O   LIG    1       23.349 -30.335   5.894  0.00  0.00    -0.274 OA
BRANCH   4   6
ATOM      6  C   LIG    1       24.462 -30.501   8.064  0.00  0.00    +0.168 C 
BRANCH   6   7
ATOM      7  N   LIG    1       23.496 -30.056   9.073  0.00  0.00    -0.298 N 
ATOM      8  H   LIG    1       22.725 -29.459   8.843  0.00  0.00    +0.150 HD
ATOM      9  C   LIG    1       23.686 -30.367  10.419  0.00  0.00    +0.263 C 
ATOM     10  O   LIG    1       24.632 -31.007  10.830  0.00  0.00    -0.269 OA
BRANCH   9  11
ATOM     11  C   LIG    1       22.650 -29.842  11.360  0.00  0.00    +0.126 A 
ATOM     12  N   LIG    1       22.954 -28.723  12.060  0.00  0.00    -0.242 NA
ATOM     13  C   LIG    1       22.019 -28.248  12.904  0.00  0.00    +0.072 A 
ATOM     14  C   LIG    1       20.771 -28.888  13.099  0.00  0.00    +0.000 A 
ATOM     15  C   LIG    1       19.836 -28.365  14.010  0.00  0.00    +0.010 A 
ATOM     16  C   LIG    1       20.127 -27.211  14.732  0.00  0.00    +0.001 A 
ATOM     17  C   LIG    1       21.349 -26.575  14.545  0.00  0.00    +0.002 A 
ATOM     18  C   LIG    1       20.504 -30.051  12.370  0.00  0.00    +0.012 A 
ATOM     19  C   LIG    1       22.275 -27.095  13.633  0.00  0.00    +0.028 A 
ATOM     20  C   LIG    1       21.451 -30.536  11.476  0.00  0.00    +0.034 A 
ENDBRANCH   9  11
ENDBRANCH   6   7
BRANCH   6  21
ATOM     21  C   LIG    1       24.524 -32.016   7.936  0.00  0.00    +0.127 C 
BRANCH  21  22
ATOM     22  C   LIG    1       25.960 -32.509   8.044  0.00  0.00    +0.213 C 
ATOM     23  O   LIG    1       26.349 -33.386   8.784  0.00  0.00    -0.276 OA
ATOM     24  N   LIG    1       26.816 -31.887   7.173  0.00  0.00    -0.329 N 
ATOM     25  H   LIG    1       27.787 -32.152   7.220  0.00  0.00    +0.145 HD
ATOM     26  H   LIG    1       26.528 -31.148   6.559  0.00  0.00    +0.145 HD
ENDBRANCH  21  22
ENDBRANCH   6  21
ENDBRANCH   4   6
ENDBRANCH   1   2
BRANCH   1  27
ATOM     27  C   LIG    1       25.590 -26.322   6.640  0.00  0.00    +0.149 C 
BRANCH  27  28
ATOM     28  O   LIG    1       26.207 -26.652   5.400  0.00  0.00    -0.389 OA
ATOM     29  H   LIG    1       26.547 -27.562   5.485  0.00  0.00    +0.210 HD
ENDBRANCH  27  28
BRANCH  27  30
ATOM     30  C   LIG    1       24.345 -25.393   6.452  0.00  0.00    +0.118 C 
BRANCH  30  32
ATOM     31  C   LIG    1       23.649 -22.992   6.585  0.00  0.00    +0.143 C 
ATOM     32  N   LIG    1       24.573 -23.989   5.993  0.00  0.00    -0.289 NA
ATOM     33  C   LIG    1       25.992 -23.588   6.160  0.00  0.00    +0.089 C 
ATOM     34  C   LIG    1       26.492 -22.951   7.488  0.00  0.00    +0.006 C 
ATOM     35  C   LIG    1       25.440 -22.202   8.321  0.00  0.00    -0.005 C 
ATOM     36  C   LIG    1       25.608 -20.676   8.413  0.00  0.00    +0.004 C 
ATOM     37  C   LIG    1       26.311 -20.034   7.235  0.00  0.00    +0.000 C 
ATOM     38  C   LIG    1       27.664 -20.653   6.943  0.00  0.00    +0.000 C 
ATOM     39  C   LIG    1       27.799 -22.142   7.278  0.00  0.00    +0.005 C 
ATOM     40  C   LIG    1       24.000 -22.658   8.041  0.00  0.00    +0.032 C 
BRANCH  31  43
ATOM     41  N   LIG    1       24.387 -21.142   5.065  0.00  0.00    -0.309 N 
ATOM     42  H   LIG    1       25.315 -21.452   5.362  0.00  0.00    +0.149 HD
ATOM     43  C   LIG    1       23.342 -21.780   5.684  0.00  0.00    +0.231 C 
ATOM     44  O   LIG    1       22.166 -21.527   5.488  0.00  0.00    -0.274 OA
BRANCH  41  46
ATOM     45  C   LIG    1       23.225 -19.036   4.258  0.00  0.00    +0.031 C 
ATOM     46  C   LIG    1       24.308 -20.105   3.992  0.00  0.00    +0.026 C 
ATOM     47  C   LIG    1       25.644 -19.358   3.808  0.00  0.00    +0.031 C 
ATOM     48  C   LIG    1       23.929 -20.791   2.665  0.00  0.00    +0.031 C 
ENDBRANCH  41  46
ENDBRANCH  31  43
ENDBRANCH  30  32
ENDBRANCH  27  30
ENDBRANCH   1  27
BRANCH   1  49
ATOM     49  C   LIG    1       26.484 -28.424   8.015  0.00  0.00    +0.060 C 
BRANCH  49  50
ATOM     50  C   LIG    1       26.753 -28.514   9.511  0.00  0.00    -0.045 A 
ATOM     51  C   LIG    1       26.325 -27.605  10.486  0.00  0.00    +0.003 A 
ATOM     52  C   LIG    1       26.784 -27.683  11.808  0.00  0.00    +0.000 A 
ATOM     53  C   LIG    1       27.549 -28.767  12.218  0.00  0.00    +0.000 A 
ATOM     54  C   LIG    1       27.872 -29.758  11.298  0.00  0.00    +0.000 A 
ATOM     55  C   LIG    1       27.496 -29.622   9.958  0.00  0.00    +0.003 A 
ENDBRANCH  49  50
ENDBRANCH   1  49
TORSDOF 14
ENDMDL
MODEL 7
REMARK VINA RESULT:      -7.1      1.541      2.181
REMARK  Name = *****
REMARK                            x       y       z     vdW  Elec       q    Type
REMARK                         _______ _______ _______ _____ _____    ______ ____
ROOT
ATOM      1  C   LIG    1       24.979 -27.914   7.198  0.00  0.00    +0.107 C 
ENDROOT
BRANCH   1   2
ATOM      2  N   LIG    1       25.261 -27.297   5.883  0.00  0.00    -0.308 N 
ATOM      3  H   LIG    1       25.499 -27.901   5.103  0.00  0.00    +0.149 HD
ATOM      4  C   LIG    1       25.310 -25.974   5.538  0.00  0.00    +0.234 C 
ATOM      5  O   LIG    1       25.708 -25.674   4.412  0.00  0.00    -0.274 OA
BRANCH   4   6
ATOM      6  C   LIG    1       24.999 -24.921   6.626  0.00  0.00    +0.168 C 
BRANCH   6   7
ATOM      7  N   LIG    1       25.926 -23.800   6.447  0.00  0.00    -0.298 N 
ATOM      8  H   LIG    1       26.434 -23.663   5.594  0.00  0.00    +0.150 HD
ATOM      9  C   LIG    1       26.214 -22.943   7.509  0.00  0.00    +0.263 C 
ATOM     10  O   LIG    1       25.730 -23.064   8.615  0.00  0.00    -0.269 OA
BRANCH   9  11
ATOM     11  C   LIG    1       27.190 -21.849   7.216  0.00  0.00    +0.126 A 
ATOM     12  N   LIG    1       28.319 -21.806   7.963  0.00  0.00    -0.242 NA
ATOM     13  C   LIG    1       29.200 -20.824   7.696  0.00  0.00    +0.072 A 
ATOM     14  C   LIG    1       28.970 -19.842   6.702  0.00  0.00    +0.000 A 
ATOM     15  C   LIG    1       29.911 -18.821   6.476  0.00  0.00    +0.010 A 
ATOM     16  C   LIG    1       31.081 -18.765   7.228  0.00  0.00    +0.001 A 
ATOM     17  C   LIG    1       31.316 -19.726   8.204  0.00  0.00    +0.002 A 
ATOM     18  C   LIG    1       27.783 -19.913   5.965  0.00  0.00    +0.012 A 
ATOM     19  C   LIG    1       30.380 -20.744   8.422  0.00  0.00    +0.028 A 
ATOM     20  C   LIG    1       26.878 -20.938   6.215  0.00  0.00    +0.034 A 
ENDBRANCH   9  11
ENDBRANCH   6   7
BRANCH   6  21
ATOM     21  C   LIG    1       23.540 -24.488   6.603  0.00  0.00    +0.127 C 
BRANCH  21  22
ATOM     22  C   LIG    1       23.424 -22.993   6.340  0.00  0.00    +0.213 C 
ATOM     23  O   LIG    1       23.729 -22.435   5.309  0.00  0.00    -0.276 OA
ATOM     24  N   LIG    1       22.885 -22.297   7.390  0.00  0.00    -0.329 N 
ATOM     25  H   LIG    1       22.812 -21.297   7.284  0.00  0.00    +0.145 HD
ATOM     26  H   LIG    1       22.637 -22.727   8.261  0.00  0.00    +0.145 HD
ENDBRANCH  21  22
ENDBRANCH   6  21
ENDBRANCH   4   6
ENDBRANCH   1   2
BRANCH   1  27
ATOM     27  C   LIG    1       26.293 -27.899   8.035  0.00  0.00    +0.149 C 
BRANCH  27  28
ATOM     28  O   LIG    1       26.495 -26.584   8.540  0.00  0.00    -0.389 OA
ATOM     29  H   LIG    1       27.280 -26.223   8.088  0.00  0.00    +0.210 HD
ENDBRANCH  27  28
BRANCH  27  30
ATOM     30  C   LIG    1       26.340 -28.981   9.165  0.00  0.00    +0.118 C 
BRANCH  30  32
ATOM     31  C   LIG    1       24.994 -29.383  11.237  0.00  0.00    +0.143 C 
ATOM     32  N   LIG    1       26.024 -28.556  10.563  0.00  0.00    -0.289 NA
ATOM     33  C   LIG    1       27.253 -28.434  11.384  0.00  0.00    +0.089 C 
ATOM     34  C   LIG    1       27.815 -29.655  12.168  0.00  0.00    +0.006 C 
ATOM     35  C   LIG    1       26.797 -30.732  12.571  0.00  0.00    -0.005 C 
ATOM     36  C   LIG    1       26.509 -30.864  14.075  0.00  0.00    +0.004 C 
ATOM     37  C   LIG    1       26.705 -29.597  14.882  0.00  0.00    +0.000 C 
ATOM     38  C   LIG    1       28.083 -28.988  14.705  0.00  0.00    +0.000 C 
ATOM     39  C   LIG    1       28.734 -29.210  13.336  0.00  0.00    +0.005 C 
ATOM     40  C   LIG    1       25.539 -30.745  11.689  0.00  0.00    +0.032 C 
BRANCH  31  43
ATOM     41  N   LIG    1       24.703 -27.572  12.942  0.00  0.00    -0.309 N 
ATOM     42  H   LIG    1       25.704 -27.444  12.778  0.00  0.00    +0.149 HD
ATOM     43  C   LIG    1       24.143 -28.634  12.280  0.00  0.00    +0.231 C 
ATOM     44  O   LIG    1       22.973 -28.966  12.372  0.00  0.00    -0.274 OA
BRANCH  41  46
ATOM     45  C   LIG    1       23.836 -27.062  15.272  0.00  0.00    +0.031 C 
ATOM     46  C   LIG    1       24.006 -26.579  13.816  0.00  0.00    +0.026 C 
ATOM     47  C   LIG    1       24.753 -25.231  13.871  0.00  0.00    +0.031 C 
ATOM     48  C   LIG    1       22.587 -26.343  13.264  0.00  0.00    +0.031 C 
ENDBRANCH  41  46
ENDBRANCH  31  43
ENDBRANCH  30  32
ENDBRANCH  27  30
ENDBRANCH   1  27
BRANCH   1  49
ATOM     49  C   LIG    1       24.271 -29.278   6.979  0.00  0.00    +0.060 C 
BRANCH  49  50
ATOM     50  C   LIG    1       24.976 -30.505   6.415  0.00  0.00    -0.045 A 
ATOM     51  C   LIG    1       25.324 -30.717   5.076  0.00  0.00    +0.003 A 
ATOM     52  C   LIG    1       25.803 -31.958   4.635  0.00  0.00    +0.000 A 
ATOM     53  C   LIG    1       26.098 -32.958   5.552  0.00  0.00    +0.000 A 
ATOM     54  C   LIG    1       25.892 -32.722   6.906  0.00  0.00    +0.000 A 
ATOM     55  C   LIG    1       25.318 -31.518   7.329  0.00  0.00    +0.003 A 
ENDBRANCH  49  50
ENDBRANCH   1  49
TORSDOF 14
ENDMDL
MODEL 8
REMARK VINA RESULT:      -6.6      4.211      9.977
REMARK  Name = *****
REMARK                            x       y       z     vdW  Elec       q    Type
REMARK                         _______ _______ _______ _____ _____    ______ ____
ROOT
ATOM      1  C   LIG    1       26.163 -28.220  13.864  0.00  0.00    +0.107 C 
ENDROOT
BRANCH   1   2
ATOM      2  N   LIG    1       27.335 -27.435  14.309  0.00  0.00    -0.308 N 
ATOM      3  H   LIG    1       27.372 -26.446  14.084  0.00  0.00    +0.149 HD
ATOM      4  C   LIG    1       28.463 -27.854  14.961  0.00  0.00    +0.234 C 
ATOM      5  O   LIG    1       29.387 -27.053  15.110  0.00  0.00    -0.274 OA
BRANCH   4   6
ATOM      6  C   LIG    1       28.573 -29.345  15.350  0.00  0.00    +0.168 C 
BRANCH   6   7
ATOM      7  N   LIG    1       27.347 -30.017  14.911  0.00  0.00    -0.298 N 
ATOM      8  H   LIG    1       26.548 -29.506  14.588  0.00  0.00    +0.150 HD
ATOM      9  C   LIG    1       27.215 -31.400  15.035  0.00  0.00    +0.263 C 
ATOM     10  O   LIG    1       28.079 -32.115  15.498  0.00  0.00    -0.269 OA
BRANCH   9  11
ATOM     11  C   LIG    1       25.912 -31.973  14.577  0.00  0.00    +0.126 A 
ATOM     12  N   LIG    1       24.789 -31.542  15.200  0.00  0.00    -0.242 NA
ATOM     13  C   LIG    1       23.616 -32.054  14.784  0.00  0.00    +0.072 A 
ATOM     14  C   LIG    1       23.529 -33.031  13.761  0.00  0.00    +0.000 A 
ATOM     15  C   LIG    1       22.281 -33.553  13.378  0.00  0.00    +0.010 A 
ATOM     16  C   LIG    1       21.115 -33.116  14.000  0.00  0.00    +0.001 A 
ATOM     17  C   LIG    1       21.190 -32.157  15.003  0.00  0.00    +0.002 A 
ATOM     18  C   LIG    1       24.715 -33.462  13.157  0.00  0.00    +0.012 A 
ATOM     19  C   LIG    1       22.434 -31.635  15.378  0.00  0.00    +0.028 A 
ATOM     20  C   LIG    1       25.929 -32.920  13.560  0.00  0.00    +0.034 A 
ENDBRANCH   9  11
ENDBRANCH   6   7
BRANCH   6  21
ATOM     21  C   LIG    1       29.832 -29.992  14.788  0.00  0.00    +0.127 C 
BRANCH  21  22
ATOM     22  C   LIG    1       29.986 -29.676  13.307  0.00  0.00    +0.213 C 
ATOM     23  O   LIG    1       29.094 -29.695  12.488  0.00  0.00    -0.276 OA
ATOM     24  N   LIG    1       31.260 -29.312  12.959  0.00  0.00    -0.329 N 
ATOM     25  H   LIG    1       31.429 -29.120  11.984  0.00  0.00    +0.145 HD
ATOM     26  H   LIG    1       32.023 -29.301  13.610  0.00  0.00    +0.145 HD
ENDBRANCH  21  22
ENDBRANCH   6  21
ENDBRANCH   4   6
ENDBRANCH   1   2
BRANCH   1  27
ATOM     27  C   LIG    1       26.132 -28.210  12.306  0.00  0.00    +0.149 C 
BRANCH  27  28
ATOM     28  O   LIG    1       27.323 -27.591  11.832  0.00  0.00    -0.389 OA
ATOM     29  H   LIG    1       27.184 -26.627  11.888  0.00  0.00    +0.210 HD
ENDBRANCH  27  28
BRANCH  27  30
ATOM     30  C   LIG    1       25.903 -29.619  11.665  0.00  0.00    +0.118 C 
BRANCH  30  32
ATOM     31  C   LIG    1       25.845 -29.627   9.162  0.00  0.00    +0.143 C 
ATOM     32  N   LIG    1       25.072 -29.704  10.425  0.00  0.00    -0.289 NA
ATOM     33  C   LIG    1       24.180 -30.889  10.451  0.00  0.00    +0.089 C 
ATOM     34  C   LIG    1       24.660 -32.263   9.901  0.00  0.00    +0.006 C 
ATOM     35  C   LIG    1       25.752 -32.220   8.821  0.00  0.00    -0.005 C 
ATOM     36  C   LIG    1       25.328 -32.662   7.410  0.00  0.00    +0.004 C 
ATOM     37  C   LIG    1       23.863 -32.458   7.085  0.00  0.00    +0.000 C 
ATOM     38  C   LIG    1       22.935 -33.107   8.094  0.00  0.00    +0.000 C 
ATOM     39  C   LIG    1       23.464 -33.180   9.530  0.00  0.00    +0.005 C 
ATOM     40  C   LIG    1       26.590 -30.933   8.849  0.00  0.00    +0.032 C 
BRANCH  31  43
ATOM     41  N   LIG    1       25.774 -28.167   7.128  0.00  0.00    -0.309 N 
ATOM     42  H   LIG    1       26.719 -27.927   7.433  0.00  0.00    +0.149 HD
ATOM     43  C   LIG    1       25.088 -28.999   7.977  0.00  0.00    +0.231 C 
ATOM     44  O   LIG    1       23.940 -29.370   7.801  0.00  0.00    -0.274 OA
BRANCH  41  46
ATOM     45  C   LIG    1       24.248 -26.519   5.946  0.00  0.00    +0.031 C 
ATOM     46  C   LIG    1       25.308 -27.634   5.811  0.00  0.00    +0.026 C 
ATOM     47  C   LIG    1       26.469 -27.055   4.978  0.00  0.00    +0.031 C 
ATOM     48  C   LIG    1       24.644 -28.777   5.020  0.00  0.00    +0.031 C 
ENDBRANCH  41  46
ENDBRANCH  31  43
ENDBRANCH  30  32
ENDBRANCH  27  30
ENDBRANCH   1  27
BRANCH   1  49
ATOM     49  C   LIG    1       24.901 -27.724  14.620  0.00  0.00    +0.060 C 
BRANCH  49  50
ATOM     50  C   LIG    1       23.537 -27.574  13.960  0.00  0.00    -0.045 A 
ATOM     51  C   LIG    1       22.863 -26.372  13.717  0.00  0.00    +0.003 A 
ATOM     52  C   LIG    1       21.534 -26.357  13.273  0.00  0.00    +0.000 A 
ATOM     53  C   LIG    1       20.907 -27.541  12.908  0.00  0.00    +0.000 A 
ATOM     54  C   LIG    1       21.605 -28.739  13.009  0.00  0.00    +0.000 A 
ATOM     55  C   LIG    1       22.896 -28.756  13.548  0.00  0.00    +0.003 A 
ENDBRANCH  49  50
ENDBRANCH   1  49
TORSDOF 14
ENDMDL
MODEL 9
REMARK VINA RESULT:      -6.3      5.045     10.625
REMARK  Name = *****
REMARK                            x       y       z     vdW  Elec       q    Type
REMARK                         _______ _______ _______ _____ _____    ______ ____
ROOT
ATOM      1  C   LIG    1       24.194 -30.527  12.062  0.00  0.00    +0.107 C 
ENDROOT
BRANCH   1   2
ATOM      2  N   LIG    1       24.092 -31.232  13.358  0.00  0.00    -0.308 N 
ATOM      3  H   LIG    1       24.808 -31.071  14.058  0.00  0.00    +0.149 HD
ATOM      4  C   LIG    1       23.172 -32.157  13.771  0.00  0.00    +0.234 C 
ATOM      5  O   LIG    1       23.356 -32.730  14.846  0.00  0.00    -0.274 OA
BRANCH   4   6
ATOM      6  C   LIG    1       22.026 -32.535  12.805  0.00  0.00    +0.168 C 
BRANCH   6   7
ATOM      7  N   LIG    1       20.956 -31.546  12.966  0.00  0.00    -0.298 N 
ATOM      8  H   LIG    1       20.994 -30.647  12.527  0.00  0.00    +0.150 HD
ATOM      9  C   LIG    1       19.892 -31.791  13.834  0.00  0.00    +0.263 C 
ATOM     10  O   LIG    1       19.785 -32.806  14.490  0.00  0.00    -0.269 OA
BRANCH   9  11
ATOM     11  C   LIG    1       18.872 -30.703  13.935  0.00  0.00    +0.126 A 
ATOM     12  N   LIG    1       19.327 -29.433  14.057  0.00  0.00    -0.242 NA
ATOM     13  C   LIG    1       18.408 -28.453  14.143  0.00  0.00    +0.072 A 
ATOM     14  C   LIG    1       17.015 -28.710  14.144  0.00  0.00    +0.000 A 
ATOM     15  C   LIG    1       16.094 -27.653  14.260  0.00  0.00    +0.010 A 
ATOM     16  C   LIG    1       16.543 -26.340  14.377  0.00  0.00    +0.001 A 
ATOM     17  C   LIG    1       17.907 -26.078  14.376  0.00  0.00    +0.002 A 
ATOM     18  C   LIG    1       16.589 -30.038  14.035  0.00  0.00    +0.012 A 
ATOM     19  C   LIG    1       18.821 -27.132  14.254  0.00  0.00    +0.028 A 
ATOM     20  C   LIG    1       17.528 -31.055  13.918  0.00  0.00    +0.034 A 
ENDBRANCH   9  11
ENDBRANCH   6   7
BRANCH   6  21
ATOM     21  C   LIG    1       22.508 -32.651  11.365  0.00  0.00    +0.127 C 
BRANCH  21  22
ATOM     22  C   LIG    1       21.374 -32.363  10.391  0.00  0.00    +0.213 C 
ATOM     23  O   LIG    1       21.144 -31.289   9.878  0.00  0.00    -0.276 OA
ATOM     24  N   LIG    1       20.622 -33.467  10.090  0.00  0.00    -0.329 N 
ATOM     25  H   LIG    1       19.837 -33.331   9.472  0.00  0.00    +0.145 HD
ATOM     26  H   LIG    1       20.777 -34.366  10.509  0.00  0.00    +0.145 HD
ENDBRANCH  21  22
ENDBRANCH   6  21
ENDBRANCH   4   6
ENDBRANCH   1   2
BRANCH   1  27
ATOM     27  C   LIG    1       25.686 -30.547  11.612  0.00  0.00    +0.149 C 
BRANCH  27  28
ATOM     28  O   LIG    1       26.510 -30.491  12.771  0.00  0.00    -0.389 OA
ATOM     29  H   LIG    1       25.956 -30.150  13.498  0.00  0.00    +0.210 HD
ENDBRANCH  27  28
BRANCH  27  30
ATOM     30  C   LIG    1       26.054 -31.751  10.682  0.00  0.00    +0.118 C 
BRANCH  30  32
ATOM     31  C   LIG    1       25.491 -32.063   8.263  0.00  0.00    +0.143 C 
ATOM     32  N   LIG    1       26.409 -31.461   9.259  0.00  0.00    -0.289 NA
ATOM     33  C   LIG    1       26.590 -30.006   9.031  0.00  0.00    +0.089 C 
ATOM     34  C   LIG    1       25.386 -29.104   8.633  0.00  0.00    +0.006 C 
ATOM     35  C   LIG    1       24.228 -29.799   7.901  0.00  0.00    -0.005 C 
ATOM     36  C   LIG    1       24.027 -29.411   6.427  0.00  0.00    +0.004 C 
ATOM     37  C   LIG    1       25.278 -28.952   5.706  0.00  0.00    +0.000 C 
ATOM     38  C   LIG    1       25.986 -27.813   6.414  0.00  0.00    +0.000 C 
ATOM     39  C   LIG    1       25.856 -27.798   7.940  0.00  0.00    +0.005 C 
ATOM     40  C   LIG    1       24.156 -31.311   8.166  0.00  0.00    +0.032 C 
BRANCH  31  43
ATOM     41  N   LIG    1       25.340 -32.851   5.890  0.00  0.00    -0.309 N 
ATOM     42  H   LIG    1       24.367 -33.022   6.152  0.00  0.00    +0.149 HD
ATOM     43  C   LIG    1       26.144 -32.424   6.915  0.00  0.00    +0.231 C 
ATOM     44  O   LIG    1       27.338 -32.199   6.808  0.00  0.00    -0.274 OA
BRANCH  41  46
ATOM     45  C   LIG    1       27.052 -33.801   4.275  0.00  0.00    +0.031 C 
ATOM     46  C   LIG    1       25.721 -33.039   4.457  0.00  0.00    +0.026 C 
ATOM     47  C   LIG    1       24.646 -33.812   3.668  0.00  0.00    +0.031 C 
ATOM     48  C   LIG    1       25.918 -31.654   3.811  0.00  0.00    +0.031 C 
ENDBRANCH  41  46
ENDBRANCH  31  43
ENDBRANCH  30  32
ENDBRANCH  27  30
ENDBRANCH   1  27
BRANCH   1  49
ATOM     49  C   LIG    1       23.486 -29.149  12.174  0.00  0.00    +0.060 C 
BRANCH  49  50
ATOM     50  C   LIG    1       23.926 -28.061  13.145  0.00  0.00    -0.045 A 
ATOM     51  C   LIG    1       23.323 -27.751  14.369  0.00  0.00    +0.003 A 
ATOM     52  C   LIG    1       23.693 -26.612  15.097  0.00  0.00    +0.000 A 
ATOM     53  C   LIG    1       24.784 -25.852  14.696  0.00  0.00    +0.000 A 
ATOM     54  C   LIG    1       25.488 -26.222  13.556  0.00  0.00    +0.000 A 
ATOM     55  C   LIG    1       25.051 -27.300  12.780  0.00  0.00    +0.003 A 
ENDBRANCH  49  50
ENDBRANCH   1  49
TORSDOF 14
ENDMDL
