MODEL 1
REMARK VINA RESULT:      -7.7      0.000      0.000
REMARK  Name = *****
REMARK                            x       y       z     vdW  Elec       q    Type
REMARK                         _______ _______ _______ _____ _____    ______ ____
ROOT
ATOM      1  C   LIG    1       29.675 -21.447   8.190  0.00  0.00    +0.261 C 
ENDROOT
BRANCH   1   2
ATOM      2  O   LIG    1       28.626 -20.475   8.304  0.00  0.00    -0.488 OA
BRANCH   2   6
ATOM      3  C   LIG    1       23.959 -21.927   7.543  0.00  0.00    +0.044 C 
ATOM      4  C   LIG    1       25.211 -21.259   7.054  0.00  0.00    -0.047 A 
ATOM      5  C   LIG    1       26.327 -21.216   7.894  0.00  0.00    +0.050 A 
ATOM      6  C   LIG    1       27.521 -20.602   7.502  0.00  0.00    +0.139 A 
ATOM      7  C   LIG    1       27.584 -20.031   6.220  0.00  0.00    +0.083 A 
ATOM      8 CL   LIG    1       29.011 -19.229   5.661  0.00  0.00    -0.080 Cl
ATOM      9  C   LIG    1       26.480 -20.080   5.368  0.00  0.00    +0.024 A 
ATOM     10  C   LIG    1       25.296 -20.694   5.778  0.00  0.00    +0.005 A 
ENDBRANCH   2   6
ENDBRANCH   1   2
BRANCH   1  11
ATOM     11  C   LIG    1       30.944 -20.973   8.918  0.00  0.00    +0.166 C 
BRANCH  11  12
ATOM     12  O   LIG    1       32.067 -21.837   8.695  0.00  0.00    -0.387 OA
ATOM     13  H   LIG    1       31.853 -22.352   7.895  0.00  0.00    +0.210 HD
ENDBRANCH  11  12
BRANCH  11  14
ATOM     14  C   LIG    1       31.350 -19.545   8.509  0.00  0.00    +0.116 C 
BRANCH  14  15
ATOM     15  N   LIG    1       32.026 -18.815   9.595  0.00  0.00    -0.309 NA
ATOM     16  H   LIG    1       32.002 -19.416  10.425  0.00  0.00    +0.122 HD
BRANCH  15  17
ATOM     17  C   LIG    1       31.440 -17.499   9.923  0.00  0.00    +0.011 C 
ATOM     18  C   LIG    1       30.135 -17.367   9.112  0.00  0.00    +0.027 C 
ATOM     19  C   LIG    1       32.372 -16.340   9.525  0.00  0.00    +0.027 C 
ATOM     20  C   LIG    1       31.085 -17.402  11.416  0.00  0.00    +0.027 C 
ENDBRANCH  15  17
ENDBRANCH  14  15
ENDBRANCH  11  14
ENDBRANCH   1  11
TORSDOF 7
ENDMDL
MODEL 2
REMARK VINA RESULT:      -7.6      3.247      7.026
REMARK  Name = *****
REMARK                            x       y       z     vdW  Elec       q    Type
REMARK                         _______ _______ _______ _____ _____    ______ ____
ROOT
ATOM      1  C   LIG    1       26.387 -20.425   6.549  0.00  0.00    +0.261 C 
ENDROOT
BRANCH   1   2
ATOM      2  O   LIG    1       27.664 -20.752   5.985  0.00  0.00    -0.488 OA
BRANCH   2   6
ATOM      3  C   LIG    1       30.979 -22.015   9.432  0.00  0.00    +0.044 C 
ATOM      4  C   LIG    1       30.490 -21.059   8.383  0.00  0.00    -0.047 A 
ATOM      5  C   LIG    1       29.298 -21.342   7.712  0.00  0.00    +0.050 A 
ATOM      6  C   LIG    1       28.793 -20.496   6.719  0.00  0.00    +0.139 A 
ATOM      7  C   LIG    1       29.512 -19.329   6.413  0.00  0.00    +0.083 A 
ATOM      8 CL   LIG    1       28.975 -18.238   5.182  0.00  0.00    -0.080 Cl
ATOM      9  C   LIG    1       30.697 -19.029   7.087  0.00  0.00    +0.024 A 
ATOM     10  C   LIG    1       31.187 -19.888   8.072  0.00  0.00    +0.005 A 
ENDBRANCH   2   6
ENDBRANCH   1   2
BRANCH   1  11
ATOM     11  C   LIG    1       25.287 -20.454   5.474  0.00  0.00    +0.166 C 
BRANCH  11  12
ATOM     12  O   LIG    1       25.817 -20.501   4.141  0.00  0.00    -0.387 OA
ATOM     13  H   LIG    1       26.259 -21.367   4.060  0.00  0.00    +0.210 HD
ENDBRANCH  11  12
BRANCH  11  14
ATOM     14  C   LIG    1       24.331 -21.648   5.651  0.00  0.00    +0.116 C 
BRANCH  14  15
ATOM     15  N   LIG    1       24.837 -22.879   5.020  0.00  0.00    -0.309 NA
ATOM     16  H   LIG    1       24.258 -23.055   4.192  0.00  0.00    +0.122 HD
BRANCH  15  17
ATOM     17  C   LIG    1       24.833 -24.074   5.888  0.00  0.00    +0.011 C 
ATOM     18  C   LIG    1       25.098 -25.294   4.984  0.00  0.00    +0.027 C 
ATOM     19  C   LIG    1       23.473 -24.275   6.580  0.00  0.00    +0.027 C 
ATOM     20  C   LIG    1       25.955 -24.006   6.937  0.00  0.00    +0.027 C 
ENDBRANCH  15  17
ENDBRANCH  14  15
ENDBRANCH  11  14
ENDBRANCH   1  11
TORSDOF 7
ENDMDL
MODEL 3
REMARK VINA RESULT:      -7.5      2.994      4.408
REMARK  Name = *****
REMARK                            x       y       z     vdW  Elec       q    Type
REMARK                         _______ _______ _______ _____ _____    ______ ____
ROOT
ATOM      1  C   LIG    1       25.907 -22.804   7.544  0.00  0.00    +0.261 C 
ENDROOT
BRANCH   1   2
ATOM      2  O   LIG    1       25.555 -22.827   6.153  0.00  0.00    -0.488 OA
BRANCH   2   6
ATOM      3  C   LIG    1       24.807 -18.698   3.534  0.00  0.00    +0.044 C 
ATOM      4  C   LIG    1       24.273 -19.827   4.366  0.00  0.00    -0.047 A 
ATOM      5  C   LIG    1       25.168 -20.764   4.889  0.00  0.00    +0.050 A 
ATOM      6  C   LIG    1       24.734 -21.843   5.666  0.00  0.00    +0.139 A 
ATOM      7  C   LIG    1       23.358 -21.962   5.928  0.00  0.00    +0.083 A 
ATOM      8 CL   LIG    1       22.730 -23.279   6.858  0.00  0.00    -0.080 Cl
ATOM      9  C   LIG    1       22.457 -21.024   5.422  0.00  0.00    +0.024 A 
ATOM     10  C   LIG    1       22.909 -19.956   4.646  0.00  0.00    +0.005 A 
ENDBRANCH   2   6
ENDBRANCH   1   2
BRANCH   1  11
ATOM     11  C   LIG    1       26.350 -21.395   7.975  0.00  0.00    +0.166 C 
BRANCH  11  12
ATOM     12  O   LIG    1       25.935 -21.067   9.308  0.00  0.00    -0.387 OA
ATOM     13  H   LIG    1       26.048 -21.882   9.832  0.00  0.00    +0.210 HD
ENDBRANCH  11  12
BRANCH  11  14
ATOM     14  C   LIG    1       27.878 -21.216   7.892  0.00  0.00    +0.116 C 
BRANCH  14  15
ATOM     15  N   LIG    1       28.318 -19.885   8.345  0.00  0.00    -0.309 NA
ATOM     16  H   LIG    1       27.643 -19.204   7.983  0.00  0.00    +0.122 HD
BRANCH  15  17
ATOM     17  C   LIG    1       29.681 -19.501   7.923  0.00  0.00    +0.011 C 
ATOM     18  C   LIG    1       30.090 -18.276   8.766  0.00  0.00    +0.027 C 
ATOM     19  C   LIG    1       29.730 -19.100   6.438  0.00  0.00    +0.027 C 
ATOM     20  C   LIG    1       30.690 -20.628   8.200  0.00  0.00    +0.027 C 
ENDBRANCH  15  17
ENDBRANCH  14  15
ENDBRANCH  11  14
ENDBRANCH   1  11
TORSDOF 7
ENDMDL
MODEL 4
REMARK VINA RESULT:      -7.5      2.804      4.093
REMARK  Name = *****
REMARK                            x       y       z     vdW  Elec       q    Type
REMARK                         _______ _______ _______ _____ _____    ______ ____
ROOT
ATOM      1  C   LIG    1       26.322 -20.403   7.102  0.00  0.00    +0.261 C 
ENDROOT
BRANCH   1   2
ATOM      2  O   LIG    1       25.985 -21.498   7.967  0.00  0.00    -0.488 OA
BRANCH   2   6
ATOM      3  C   LIG    1       25.943 -26.222   6.504  0.00  0.00    +0.044 C 
ATOM      4  C   LIG    1       25.231 -24.918   6.717  0.00  0.00    -0.047 A 
ATOM      5  C   LIG    1       25.952 -23.825   7.205  0.00  0.00    +0.050 A 
ATOM      6  C   LIG    1       25.346 -22.586   7.433  0.00  0.00    +0.139 A 
ATOM      7  C   LIG    1       23.977 -22.453   7.144  0.00  0.00    +0.083 A 
ATOM      8 CL   LIG    1       23.140 -20.964   7.418  0.00  0.00    -0.080 Cl
ATOM      9  C   LIG    1       23.250 -23.534   6.643  0.00  0.00    +0.024 A 
ATOM     10  C   LIG    1       23.873 -24.764   6.426  0.00  0.00    +0.005 A 
ENDBRANCH   2   6
ENDBRANCH   1   2
BRANCH   1  11
ATOM     11  C   LIG    1       27.457 -20.793   6.140  0.00  0.00    +0.166 C 
BRANCH  11  12
ATOM     12  O   LIG    1       27.664 -19.821   5.105  0.00  0.00    -0.387 OA
ATOM     13  H   LIG    1       26.893 -19.893   4.512  0.00  0.00    +0.210 HD
ENDBRANCH  11  12
BRANCH  11  14
ATOM     14  C   LIG    1       28.794 -21.005   6.873  0.00  0.00    +0.116 C 
BRANCH  14  15
ATOM     15  N   LIG    1       28.915 -20.175   8.084  0.00  0.00    -0.309 NA
ATOM     16  H   LIG    1       28.151 -19.491   8.060  0.00  0.00    +0.122 HD
BRANCH  15  17
ATOM     17  C   LIG    1       30.204 -19.470   8.233  0.00  0.00    +0.011 C 
ATOM     18  C   LIG    1       30.712 -19.144   6.814  0.00  0.00    +0.027 C 
ATOM     19  C   LIG    1       31.260 -20.345   8.932  0.00  0.00    +0.027 C 
ATOM     20  C   LIG    1       30.030 -18.144   8.993  0.00  0.00    +0.027 C 
ENDBRANCH  15  17
ENDBRANCH  14  15
ENDBRANCH  11  14
ENDBRANCH   1  11
TORSDOF 7
ENDMDL
MODEL 5
REMARK VINA RESULT:      -7.4      4.381      6.468
REMARK  Name = *****
REMARK                            x       y       z     vdW  Elec       q    Type
REMARK                         _______ _______ _______ _____ _____    ______ ____
ROOT
ATOM      1  C   LIG    1       27.306 -21.785   7.269  0.00  0.00    +0.261 C 
ENDROOT
BRANCH   1   2
ATOM      2  O   LIG    1       25.970 -22.126   7.665  0.00  0.00    -0.488 OA
BRANCH   2   6
ATOM      3  C   LIG    1       26.275 -26.703   5.814  0.00  0.00    +0.044 C 
ATOM      4  C   LIG    1       25.452 -25.521   6.236  0.00  0.00    -0.047 A 
ATOM      5  C   LIG    1       26.102 -24.380   6.714  0.00  0.00    +0.050 A 
ATOM      6  C   LIG    1       25.392 -23.249   7.130  0.00  0.00    +0.139 A 
ATOM      7  C   LIG    1       23.990 -23.275   7.043  0.00  0.00    +0.083 A 
ATOM      8 CL   LIG    1       23.031 -21.931   7.559  0.00  0.00    -0.080 Cl
ATOM      9  C   LIG    1       23.331 -24.404   6.555  0.00  0.00    +0.024 A 
ATOM     10  C   LIG    1       24.057 -25.525   6.147  0.00  0.00    +0.005 A 
ENDBRANCH   2   6
ENDBRANCH   1   2
BRANCH   1  11
ATOM     11  C   LIG    1       27.350 -20.381   6.641  0.00  0.00    +0.166 C 
BRANCH  11  12
ATOM     12  O   LIG    1       28.679 -19.973   6.289  0.00  0.00    -0.387 OA
ATOM     13  H   LIG    1       28.674 -19.848   5.322  0.00  0.00    +0.210 HD
ENDBRANCH  11  12
BRANCH  11  14
ATOM     14  C   LIG    1       26.470 -20.279   5.381  0.00  0.00    +0.116 C 
BRANCH  14  15
ATOM     15  N   LIG    1       25.046 -20.076   5.699  0.00  0.00    -0.309 NA
ATOM     16  H   LIG    1       24.759 -20.847   6.312  0.00  0.00    +0.122 HD
BRANCH  15  17
ATOM     17  C   LIG    1       24.146 -20.016   4.529  0.00  0.00    +0.011 C 
ATOM     18  C   LIG    1       24.749 -18.995   3.543  0.00  0.00    +0.027 C 
ATOM     19  C   LIG    1       22.735 -19.537   4.913  0.00  0.00    +0.027 C 
ATOM     20  C   LIG    1       24.067 -21.376   3.815  0.00  0.00    +0.027 C 
ENDBRANCH  15  17
ENDBRANCH  14  15
ENDBRANCH  11  14
ENDBRANCH   1  11
TORSDOF 7
ENDMDL
MODEL 6
REMARK VINA RESULT:      -7.1      3.249      6.481
REMARK  Name = *****
REMARK                            x       y       z     vdW  Elec       q    Type
REMARK                         _______ _______ _______ _____ _____    ______ ____
ROOT
ATOM      1  C   LIG    1       26.869 -22.126   7.621  0.00  0.00    +0.261 C 
ENDROOT
BRANCH   1   2
ATOM      2  O   LIG    1       28.044 -21.738   8.347  0.00  0.00    -0.488 OA
BRANCH   2   6
ATOM      3  C   LIG    1       29.064 -18.066   5.194  0.00  0.00    +0.044 C 
ATOM      4  C   LIG    1       29.507 -19.038   6.248  0.00  0.00    -0.047 A 
ATOM      5  C   LIG    1       28.577 -19.944   6.767  0.00  0.00    +0.050 A 
ATOM      6  C   LIG    1       28.925 -20.869   7.757  0.00  0.00    +0.139 A 
ATOM      7  C   LIG    1       30.252 -20.882   8.218  0.00  0.00    +0.083 A 
ATOM      8 CL   LIG    1       30.763 -21.976   9.457  0.00  0.00    -0.080 Cl
ATOM      9  C   LIG    1       31.191 -19.992   7.697  0.00  0.00    +0.024 A 
ATOM     10  C   LIG    1       30.825 -19.073   6.712  0.00  0.00    +0.005 A 
ENDBRANCH   2   6
ENDBRANCH   1   2
BRANCH   1  11
ATOM     11  C   LIG    1       25.595 -21.671   8.354  0.00  0.00    +0.166 C 
BRANCH  11  12
ATOM     12  O   LIG    1       25.862 -20.710   9.385  0.00  0.00    -0.387 OA
ATOM     13  H   LIG    1       25.781 -19.835   8.962  0.00  0.00    +0.210 HD
ENDBRANCH  11  12
BRANCH  11  14
ATOM     14  C   LIG    1       24.556 -21.065   7.392  0.00  0.00    +0.116 C 
BRANCH  14  15
ATOM     15  N   LIG    1       24.563 -21.711   6.068  0.00  0.00    -0.309 NA
ATOM     16  H   LIG    1       25.472 -22.175   5.963  0.00  0.00    +0.122 HD
BRANCH  15  17
ATOM     17  C   LIG    1       24.340 -20.799   4.927  0.00  0.00    +0.011 C 
ATOM     18  C   LIG    1       23.146 -19.895   5.293  0.00  0.00    +0.027 C 
ATOM     19  C   LIG    1       23.987 -21.565   3.641  0.00  0.00    +0.027 C 
ATOM     20  C   LIG    1       25.563 -19.897   4.686  0.00  0.00    +0.027 C 
ENDBRANCH  15  17
ENDBRANCH  14  15
ENDBRANCH  11  14
ENDBRANCH   1  11
TORSDOF 7
ENDMDL
MODEL 7
REMARK VINA RESULT:      -7.1      4.557      7.979
REMARK  Name = *****
REMARK                            x       y       z     vdW  Elec       q    Type
REMARK                         _______ _______ _______ _____ _____    ______ ____
ROOT
ATOM      1  C   LIG    1       25.915 -23.426   6.826  0.00  0.00    +0.261 C 
ENDROOT
BRANCH   1   2
ATOM      2  O   LIG    1       25.948 -22.083   7.333  0.00  0.00    -0.488 OA
BRANCH   2   6
ATOM      3  C   LIG    1       30.615 -20.822   8.377  0.00  0.00    +0.044 C 
ATOM      4  C   LIG    1       29.380 -20.664   7.540  0.00  0.00    -0.047 A 
ATOM      5  C   LIG    1       28.247 -21.419   7.855  0.00  0.00    +0.050 A 
ATOM      6  C   LIG    1       27.068 -21.324   7.110  0.00  0.00    +0.139 A 
ATOM      7  C   LIG    1       27.037 -20.429   6.027  0.00  0.00    +0.083 A 
ATOM      8 CL   LIG    1       25.629 -20.266   5.036  0.00  0.00    -0.080 Cl
ATOM      9  C   LIG    1       28.157 -19.660   5.712  0.00  0.00    +0.024 A 
ATOM     10  C   LIG    1       29.327 -19.772   6.465  0.00  0.00    +0.005 A 
ENDBRANCH   2   6
ENDBRANCH   1   2
BRANCH   1  11
ATOM     11  C   LIG    1       24.609 -23.689   6.055  0.00  0.00    +0.166 C 
BRANCH  11  12
ATOM     12  O   LIG    1       24.806 -23.742   4.636  0.00  0.00    -0.387 OA
ATOM     13  H   LIG    1       25.771 -23.730   4.498  0.00  0.00    +0.210 HD
ENDBRANCH  11  12
BRANCH  11  14
ATOM     14  C   LIG    1       23.929 -24.999   6.494  0.00  0.00    +0.116 C 
BRANCH  14  15
ATOM     15  N   LIG    1       23.890 -26.005   5.419  0.00  0.00    -0.309 NA
ATOM     16  H   LIG    1       22.937 -26.383   5.393  0.00  0.00    +0.122 HD
BRANCH  15  17
ATOM     17  C   LIG    1       24.856 -27.113   5.565  0.00  0.00    +0.011 C 
ATOM     18  C   LIG    1       25.427 -27.034   6.995  0.00  0.00    +0.027 C 
ATOM     19  C   LIG    1       26.025 -26.990   4.573  0.00  0.00    +0.027 C 
ATOM     20  C   LIG    1       24.167 -28.479   5.403  0.00  0.00    +0.027 C 
ENDBRANCH  15  17
ENDBRANCH  14  15
ENDBRANCH  11  14
ENDBRANCH   1  11
TORSDOF 7
ENDMDL
MODEL 8
REMARK VINA RESULT:      -7.0      3.048      6.619
REMARK  Name = *****
REMARK                            x       y       z     vdW  Elec       q    Type
REMARK                         _______ _______ _______ _____ _____    ______ ____
ROOT
ATOM      1  C   LIG    1       26.443 -20.370   7.107  0.00  0.00    +0.261 C 
ENDROOT
BRANCH   1   2
ATOM      2  O   LIG    1       27.617 -20.607   6.318  0.00  0.00    -0.488 OA
BRANCH   2   6
ATOM      3  C   LIG    1       31.256 -22.019   9.355  0.00  0.00    +0.044 C 
ATOM      4  C   LIG    1       30.703 -21.057   8.345  0.00  0.00    -0.047 A 
ATOM      5  C   LIG    1       29.417 -21.270   7.842  0.00  0.00    +0.050 A 
ATOM      6  C   LIG    1       28.847 -20.415   6.893  0.00  0.00    +0.139 A 
ATOM      7  C   LIG    1       29.598 -19.310   6.458  0.00  0.00    +0.083 A 
ATOM      8 CL   LIG    1       28.982 -18.215   5.269  0.00  0.00    -0.080 Cl
ATOM      9  C   LIG    1       30.878 -19.080   6.965  0.00  0.00    +0.024 A 
ATOM     10  C   LIG    1       31.431 -19.947   7.908  0.00  0.00    +0.005 A 
ENDBRANCH   2   6
ENDBRANCH   1   2
BRANCH   1  11
ATOM     11  C   LIG    1       26.399 -21.314   8.322  0.00  0.00    +0.166 C 
BRANCH  11  12
ATOM     12  O   LIG    1       25.703 -20.745   9.440  0.00  0.00    -0.387 OA
ATOM     13  H   LIG    1       25.598 -19.797   9.236  0.00  0.00    +0.210 HD
ENDBRANCH  11  12
BRANCH  11  14
ATOM     14  C   LIG    1       25.742 -22.665   7.986  0.00  0.00    +0.116 C 
BRANCH  14  15
ATOM     15  N   LIG    1       26.002 -23.094   6.601  0.00  0.00    -0.309 NA
ATOM     16  H   LIG    1       26.514 -22.334   6.140  0.00  0.00    +0.122 HD
BRANCH  15  17
ATOM     17  C   LIG    1       24.797 -23.426   5.813  0.00  0.00    +0.011 C 
ATOM     18  C   LIG    1       25.072 -24.767   5.104  0.00  0.00    +0.027 C 
ATOM     19  C   LIG    1       24.505 -22.365   4.737  0.00  0.00    +0.027 C 
ATOM     20  C   LIG    1       23.570 -23.610   6.721  0.00  0.00    +0.027 C 
ENDBRANCH  15  17
ENDBRANCH  14  15
ENDBRANCH  11  14
ENDBRANCH   1  11
TORSDOF 7
ENDMDL
MODEL 9
REMARK VINA RESULT:      -7.0      2.619      3.541
REMARK  Name = *****
REMARK                            x       y       z     vdW  Elec       q    Type
REMARK                         _______ _______ _______ _____ _____    ______ ____
ROOT
ATOM      1  C   LIG    1       27.540 -20.669   7.184  0.00  0.00    +0.261 C 
ENDROOT
BRANCH   1   2
ATOM      2  O   LIG    1       26.913 -21.919   6.862  0.00  0.00    -0.488 OA
BRANCH   2   6
ATOM      3  C   LIG    1       22.643 -19.721   5.676  0.00  0.00    +0.044 C 
ATOM      4  C   LIG    1       23.408 -20.946   6.086  0.00  0.00    -0.047 A 
ATOM      5  C   LIG    1       24.783 -20.841   6.312  0.00  0.00    +0.050 A 
ATOM      6  C   LIG    1       25.553 -21.946   6.688  0.00  0.00    +0.139 A 
ATOM      7  C   LIG    1       24.906 -23.183   6.850  0.00  0.00    +0.083 A 
ATOM      8 CL   LIG    1       25.784 -24.607   7.289  0.00  0.00    -0.080 Cl
ATOM      9  C   LIG    1       23.531 -23.296   6.641  0.00  0.00    +0.024 A 
ATOM     10  C   LIG    1       22.780 -22.182   6.263  0.00  0.00    +0.005 A 
ENDBRANCH   2   6
ENDBRANCH   1   2
BRANCH   1  11
ATOM     11  C   LIG    1       28.458 -20.205   6.040  0.00  0.00    +0.166 C 
BRANCH  11  12
ATOM     12  O   LIG    1       27.738 -19.924   4.832  0.00  0.00    -0.387 OA
ATOM     13  H   LIG    1       28.397 -19.572   4.204  0.00  0.00    +0.210 HD
ENDBRANCH  11  12
BRANCH  11  14
ATOM     14  C   LIG    1       29.269 -18.951   6.417  0.00  0.00    +0.116 C 
BRANCH  14  15
ATOM     15  N   LIG    1       30.653 -19.267   6.810  0.00  0.00    -0.309 NA
ATOM     16  H   LIG    1       30.824 -20.246   6.554  0.00  0.00    +0.122 HD
BRANCH  15  17
ATOM     17  C   LIG    1       30.955 -19.072   8.243  0.00  0.00    +0.011 C 
ATOM     18  C   LIG    1       29.724 -18.397   8.880  0.00  0.00    +0.027 C 
ATOM     19  C   LIG    1       32.170 -18.152   8.453  0.00  0.00    +0.027 C 
ATOM     20  C   LIG    1       31.181 -20.417   8.954  0.00  0.00    +0.027 C 
ENDBRANCH  15  17
ENDBRANCH  14  15
ENDBRANCH  11  14
ENDBRANCH   1  11
TORSDOF 7
ENDMDL
