MODEL 1
REMARK VINA RESULT:       4.1      0.000      0.000
REMARK  Name = *****
REMARK                            x       y       z     vdW  Elec       q    Type
REMARK                         _______ _______ _______ _____ _____    ______ ____
ROOT
ATOM      1  C   LIG    1       22.629 -19.127   4.723  0.00  0.00    +0.130 C 
ATOM      2  C   LIG    1       23.847 -18.914   3.795  0.00  0.00    +0.011 C 
ATOM      3  C   LIG    1       24.925 -20.018   3.984  0.00  0.00    +0.007 C 
ATOM      4  C   LIG    1       26.117 -19.593   4.865  0.00  0.00    +0.088 C 
ATOM      5  N   LIG    1       26.639 -18.257   4.615  0.00  0.00    -0.293 NA
ATOM      6  C   LIG    1       25.942 -17.494   3.565  0.00  0.00    +0.104 C 
ATOM      7  C   LIG    1       26.537 -16.120   3.501  0.00  0.00    +0.038 C 
ATOM      8  C   LIG    1       27.789 -15.767   3.968  0.00  0.00    -0.016 C 
ATOM      9  C   LIG    1       27.995 -14.394   3.677  0.00  0.00    +0.003 C 
ATOM     10  C   LIG    1       26.847 -13.942   3.020  0.00  0.00    +0.047 C 
ATOM     11  C   LIG    1       26.700 -12.620   2.584  0.00  0.00    +0.026 C 
ATOM     12  C   LIG    1       27.756 -11.736   2.827  0.00  0.00    +0.002 C 
ATOM     13  C   LIG    1       28.913 -12.159   3.478  0.00  0.00    +0.001 C 
ATOM     14  C   LIG    1       29.045 -13.484   3.908  0.00  0.00    +0.010 C 
ATOM     15  C   LIG    1       28.656 -16.755   4.671  0.00  0.00    +0.053 C 
ATOM     16  N   LIG    1       25.982 -15.013   2.917  0.00  0.00    -0.356 NA
ATOM     17  H   LIG    1       25.073 -14.969   2.479  0.00  0.00    +0.166 HD
ATOM     18  C   LIG    1       28.108 -18.195   4.499  0.00  0.00    +0.090 C 
ATOM     19  C   LIG    1       24.347 -21.345   4.507  0.00  0.00    +0.007 C 
ATOM     20  C   LIG    1       22.939 -21.572   3.985  0.00  0.00    +0.032 C 
ATOM     21  C   LIG    1       24.451 -17.496   3.909  0.00  0.00    +0.029 C 
ATOM     22  C   LIG    1       21.970 -20.508   4.511  0.00  0.00    +0.129 C 
ENDROOT
BRANCH   1  23
ATOM     23  C   LIG    1       21.586 -18.037   4.560  0.00  0.00    +0.313 C 
ATOM     24  O   LIG    1       20.705 -18.048   3.709  0.00  0.00    -0.250 OA
BRANCH  23  26
ATOM     25  C   LIG    1       22.303 -15.849   4.981  0.00  0.00    +0.280 C 
ATOM     26  O   LIG    1       21.767 -17.068   5.500  0.00  0.00    -0.468 OA
ENDBRANCH  23  26
ENDBRANCH   1  23
BRANCH  22  27
ATOM     27  O   LIG    1       20.854 -20.480   3.623  0.00  0.00    -0.391 OA
ATOM     28  H   LIG    1       20.075 -20.139   4.099  0.00  0.00    +0.210 HD
ENDBRANCH  22  27
TORSDOF 3
ENDMDL
MODEL 2
REMARK VINA RESULT:       6.1      3.460      7.646
REMARK  Name = *****
REMARK                            x       y       z     vdW  Elec       q    Type
REMARK                         _______ _______ _______ _____ _____    ______ ____
ROOT
ATOM      1  C   LIG    1       26.668 -12.910   3.838  0.00  0.00    +0.130 C 
ATOM      2  C   LIG    1       25.857 -13.979   3.069  0.00  0.00    +0.011 C 
ATOM      3  C   LIG    1       24.526 -13.408   2.506  0.00  0.00    +0.007 C 
ATOM      4  C   LIG    1       23.283 -13.752   3.351  0.00  0.00    +0.088 C 
ATOM      5  N   LIG    1       23.211 -15.124   3.834  0.00  0.00    -0.293 NA
ATOM      6  C   LIG    1       24.346 -15.985   3.459  0.00  0.00    +0.104 C 
ATOM      7  C   LIG    1       24.164 -17.323   4.108  0.00  0.00    +0.038 C 
ATOM      8  C   LIG    1       22.964 -17.834   4.566  0.00  0.00    -0.016 C 
ATOM      9  C   LIG    1       23.205 -19.139   5.066  0.00  0.00    +0.003 C 
ATOM     10  C   LIG    1       24.568 -19.396   4.888  0.00  0.00    +0.047 C 
ATOM     11  C   LIG    1       25.164 -20.602   5.276  0.00  0.00    +0.026 C 
ATOM     12  C   LIG    1       24.343 -21.571   5.862  0.00  0.00    +0.002 C 
ATOM     13  C   LIG    1       22.982 -21.343   6.051  0.00  0.00    +0.001 C 
ATOM     14  C   LIG    1       22.401 -20.132   5.658  0.00  0.00    +0.010 C 
ATOM     15  C   LIG    1       21.713 -17.027   4.513  0.00  0.00    +0.053 C 
ATOM     16  N   LIG    1       25.124 -18.280   4.295  0.00  0.00    -0.356 NA
ATOM     17  H   LIG    1       26.100 -18.195   4.048  0.00  0.00    +0.166 HD
ATOM     18  C   LIG    1       21.901 -15.769   3.627  0.00  0.00    +0.090 C 
ATOM     19  C   LIG    1       24.575 -11.889   2.259  0.00  0.00    +0.007 C 
ATOM     20  C   LIG    1       25.966 -11.448   1.842  0.00  0.00    +0.032 C 
ATOM     21  C   LIG    1       25.628 -15.267   3.889  0.00  0.00    +0.029 C 
ATOM     22  C   LIG    1       26.985 -11.678   2.963  0.00  0.00    +0.129 C 
ENDROOT
BRANCH   1  23
ATOM     23  C   LIG    1       27.957 -13.471   4.411  0.00  0.00    +0.313 C 
ATOM     24  O   LIG    1       28.830 -14.010   3.744  0.00  0.00    -0.250 OA
BRANCH  23  26
ATOM     25  C   LIG    1       26.712 -13.228   6.378  0.00  0.00    +0.280 C 
ATOM     26  O   LIG    1       27.998 -13.272   5.759  0.00  0.00    -0.468 OA
ENDBRANCH  23  26
ENDBRANCH   1  23
BRANCH  22  27
ATOM     27  O   LIG    1       28.275 -11.724   2.355  0.00  0.00    -0.391 OA
ATOM     28  H   LIG    1       28.862 -12.288   2.892  0.00  0.00    +0.210 HD
ENDBRANCH  22  27
TORSDOF 3
ENDMDL
MODEL 3
REMARK VINA RESULT:       6.2      1.965      3.605
REMARK  Name = *****
REMARK                            x       y       z     vdW  Elec       q    Type
REMARK                         _______ _______ _______ _____ _____    ______ ____
ROOT
ATOM      1  C   LIG    1       23.628 -19.576   3.538  0.00  0.00    +0.130 C 
ATOM      2  C   LIG    1       23.685 -18.283   4.383  0.00  0.00    +0.011 C 
ATOM      3  C   LIG    1       22.307 -17.569   4.452  0.00  0.00    +0.007 C 
ATOM      4  C   LIG    1       22.166 -16.373   3.490  0.00  0.00    +0.088 C 
ATOM      5  N   LIG    1       23.318 -15.485   3.417  0.00  0.00    -0.293 NA
ATOM      6  C   LIG    1       24.462 -15.866   4.263  0.00  0.00    +0.104 C 
ATOM      7  C   LIG    1       25.587 -14.911   4.001  0.00  0.00    +0.038 C 
ATOM      8  C   LIG    1       25.454 -13.648   3.457  0.00  0.00    -0.016 C 
ATOM      9  C   LIG    1       26.740 -13.049   3.417  0.00  0.00    +0.003 C 
ATOM     10  C   LIG    1       27.635 -13.978   3.956  0.00  0.00    +0.047 C 
ATOM     11  C   LIG    1       29.007 -13.722   4.071  0.00  0.00    +0.026 C 
ATOM     12  C   LIG    1       29.475 -12.482   3.622  0.00  0.00    +0.002 C 
ATOM     13  C   LIG    1       28.605 -11.538   3.082  0.00  0.00    +0.001 C 
ATOM     14  C   LIG    1       27.236 -11.809   2.973  0.00  0.00    +0.010 C 
ATOM     15  C   LIG    1       24.129 -13.141   3.000  0.00  0.00    +0.053 C 
ATOM     16  N   LIG    1       26.907 -15.096   4.312  0.00  0.00    -0.356 NA
ATOM     17  H   LIG    1       27.305 -15.923   4.732  0.00  0.00    +0.166 HD
ATOM     18  C   LIG    1       22.982 -14.052   3.508  0.00  0.00    +0.090 C 
ATOM     19  C   LIG    1       21.118 -18.527   4.258  0.00  0.00    +0.007 C 
ATOM     20  C   LIG    1       21.425 -19.902   4.826  0.00  0.00    +0.032 C 
ATOM     21  C   LIG    1       24.809 -17.321   3.937  0.00  0.00    +0.029 C 
ATOM     22  C   LIG    1       22.576 -20.574   4.071  0.00  0.00    +0.129 C 
ENDROOT
BRANCH   1  23
ATOM     23  C   LIG    1       24.978 -20.263   3.447  0.00  0.00    +0.313 C 
ATOM     24  O   LIG    1       25.615 -20.395   2.409  0.00  0.00    -0.250 OA
BRANCH  23  26
ATOM     25  C   LIG    1       26.638 -20.173   5.095  0.00  0.00    +0.280 C 
ATOM     26  O   LIG    1       25.373 -20.691   4.679  0.00  0.00    -0.468 OA
ENDBRANCH  23  26
ENDBRANCH   1  23
BRANCH  22  27
ATOM     27  O   LIG    1       23.119 -21.572   4.934  0.00  0.00    -0.391 OA
ATOM     28  H   LIG    1       23.984 -21.858   4.587  0.00  0.00    +0.210 HD
ENDBRANCH  22  27
TORSDOF 3
ENDMDL
