MODEL 1
REMARK VINA RESULT:      -2.0      0.000      0.000
REMARK  Name = *****
REMARK                            x       y       z     vdW  Elec       q    Type
REMARK                         _______ _______ _______ _____ _____    ______ ____
ROOT
ATOM      1  C   LIG    1       26.010 -15.087   3.444  0.00  0.00    +0.117 C 
ENDROOT
BRANCH   1   6
ATOM      2  C   LIG    1       29.329 -12.029   5.352  0.00  0.00    +0.105 C 
ATOM      3  N   LIG    1       28.339 -12.209   4.290  0.00  0.00    -0.303 NA
ATOM      4  C   LIG    1       28.686 -13.354   3.428  0.00  0.00    +0.099 C 
ATOM      5  C   LIG    1       28.390 -14.743   4.042  0.00  0.00    +0.100 C 
ATOM      6  N   LIG    1       27.007 -14.937   4.551  0.00  0.00    -0.289 NA
ATOM      7  C   LIG    1       26.706 -13.793   5.445  0.00  0.00    +0.100 C 
ATOM      8  C   LIG    1       26.983 -12.394   4.841  0.00  0.00    +0.099 C 
ENDBRANCH   1   6
BRANCH   1   9
ATOM      9  C   LIG    1       25.171 -13.823   3.203  0.00  0.00    -0.026 A 
ATOM     10  C   LIG    1       25.309 -13.066   2.027  0.00  0.00    +0.005 A 
ATOM     11  C   LIG    1       24.569 -11.895   1.839  0.00  0.00    +0.000 A 
ATOM     12  C   LIG    1       23.678 -11.467   2.817  0.00  0.00    +0.000 A 
ATOM     13  C   LIG    1       23.518 -12.212   3.986  0.00  0.00    +0.000 A 
ATOM     14  C   LIG    1       24.260 -13.381   4.178  0.00  0.00    +0.005 A 
ENDBRANCH   1   9
BRANCH   1  15
ATOM     15  C   LIG    1       25.069 -16.292   3.633  0.00  0.00    -0.026 A 
ATOM     16  C   LIG    1       23.745 -16.141   4.084  0.00  0.00    +0.005 A 
ATOM     17  C   LIG    1       22.926 -17.250   4.291  0.00  0.00    +0.000 A 
ATOM     18  C   LIG    1       23.403 -18.528   4.013  0.00  0.00    +0.000 A 
ATOM     19  C   LIG    1       24.696 -18.696   3.522  0.00  0.00    +0.000 A 
ATOM     20  C   LIG    1       25.524 -17.587   3.332  0.00  0.00    +0.005 A 
ENDBRANCH   1  15
TORSDOF 3
ENDMDL
MODEL 2
REMARK VINA RESULT:      -1.3      1.615      5.356
REMARK  Name = *****
REMARK                            x       y       z     vdW  Elec       q    Type
REMARK                         _______ _______ _______ _____ _____    ______ ____
ROOT
ATOM      1  C   LIG    1       26.379 -15.249   2.951  0.00  0.00    +0.117 C 
ENDROOT
BRANCH   1   6
ATOM      2  C   LIG    1       23.332 -11.447   3.472  0.00  0.00    +0.105 C 
ATOM      3  N   LIG    1       24.714 -11.903   3.627  0.00  0.00    -0.303 NA
ATOM      4  C   LIG    1       24.802 -13.016   4.591  0.00  0.00    +0.099 C 
ATOM      5  C   LIG    1       24.331 -14.386   4.047  0.00  0.00    +0.100 C 
ATOM      6  N   LIG    1       24.957 -14.817   2.770  0.00  0.00    -0.289 NA
ATOM      7  C   LIG    1       24.814 -13.694   1.812  0.00  0.00    +0.100 C 
ATOM      8  C   LIG    1       25.294 -12.317   2.334  0.00  0.00    +0.099 C 
ENDBRANCH   1   6
BRANCH   1   9
ATOM      9  C   LIG    1       26.516 -16.671   3.518  0.00  0.00    -0.026 A 
ATOM     10  C   LIG    1       27.667 -17.071   4.219  0.00  0.00    +0.005 A 
ATOM     11  C   LIG    1       27.796 -18.379   4.694  0.00  0.00    +0.000 A 
ATOM     12  C   LIG    1       26.779 -19.303   4.482  0.00  0.00    +0.000 A 
ATOM     13  C   LIG    1       25.624 -18.921   3.800  0.00  0.00    +0.000 A 
ATOM     14  C   LIG    1       25.494 -17.614   3.321  0.00  0.00    +0.005 A 
ENDBRANCH   1   9
BRANCH   1  15
ATOM     15  C   LIG    1       27.205 -14.277   3.815  0.00  0.00    -0.026 A 
ATOM     16  C   LIG    1       27.010 -14.163   5.203  0.00  0.00    +0.005 A 
ATOM     17  C   LIG    1       27.739 -13.244   5.957  0.00  0.00    +0.000 A 
ATOM     18  C   LIG    1       28.703 -12.450   5.342  0.00  0.00    +0.000 A 
ATOM     19  C   LIG    1       28.943 -12.579   3.976  0.00  0.00    +0.000 A 
ATOM     20  C   LIG    1       28.201 -13.487   3.216  0.00  0.00    +0.005 A 
ENDBRANCH   1  15
TORSDOF 3
ENDMDL
MODEL 3
REMARK VINA RESULT:      -0.9      0.975      4.303
REMARK  Name = *****
REMARK                            x       y       z     vdW  Elec       q    Type
REMARK                         _______ _______ _______ _____ _____    ______ ____
ROOT
ATOM      1  C   LIG    1       25.238 -14.984   4.480  0.00  0.00    +0.117 C 
ENDROOT
BRANCH   1   6
ATOM      2  C   LIG    1       29.475 -12.674   3.631  0.00  0.00    +0.105 C 
ATOM      3  N   LIG    1       28.067 -12.498   3.987  0.00  0.00    -0.303 NA
ATOM      4  C   LIG    1       27.181 -12.997   2.919  0.00  0.00    +0.099 C 
ATOM      5  C   LIG    1       27.049 -14.537   2.849  0.00  0.00    +0.100 C 
ATOM      6  N   LIG    1       26.675 -15.205   4.123  0.00  0.00    -0.289 NA
ATOM      7  C   LIG    1       27.609 -14.715   5.165  0.00  0.00    +0.100 C 
ATOM      8  C   LIG    1       27.743 -13.175   5.258  0.00  0.00    +0.099 C 
ENDBRANCH   1   6
BRANCH   1   9
ATOM      9  C   LIG    1       24.347 -16.206   4.208  0.00  0.00    -0.026 A 
ATOM     10  C   LIG    1       22.972 -16.189   4.499  0.00  0.00    +0.005 A 
ATOM     11  C   LIG    1       22.181 -17.321   4.285  0.00  0.00    +0.000 A 
ATOM     12  C   LIG    1       22.749 -18.483   3.773  0.00  0.00    +0.000 A 
ATOM     13  C   LIG    1       24.109 -18.516   3.467  0.00  0.00    +0.000 A 
ATOM     14  C   LIG    1       24.903 -17.385   3.683  0.00  0.00    +0.005 A 
ENDBRANCH   1   9
BRANCH   1  15
ATOM     15  C   LIG    1       24.624 -13.748   3.796  0.00  0.00    -0.026 A 
ATOM     16  C   LIG    1       24.347 -13.718   2.417  0.00  0.00    +0.005 A 
ATOM     17  C   LIG    1       23.834 -12.572   1.812  0.00  0.00    +0.000 A 
ATOM     18  C   LIG    1       23.551 -11.447   2.582  0.00  0.00    +0.000 A 
ATOM     19  C   LIG    1       23.775 -11.471   3.957  0.00  0.00    +0.000 A 
ATOM     20  C   LIG    1       24.307 -12.613   4.562  0.00  0.00    +0.005 A 
ENDBRANCH   1  15
TORSDOF 3
ENDMDL
MODEL 4
REMARK VINA RESULT:      -0.6      3.667      6.721
REMARK  Name = *****
REMARK                            x       y       z     vdW  Elec       q    Type
REMARK                         _______ _______ _______ _____ _____    ______ ____
ROOT
ATOM      1  C   LIG    1       25.830 -19.042   4.956  0.00  0.00    +0.117 C 
ENDROOT
BRANCH   1   6
ATOM      2  C   LIG    1       21.600 -21.457   4.420  0.00  0.00    +0.105 C 
ATOM      3  N   LIG    1       22.369 -20.569   5.293  0.00  0.00    -0.303 NA
ATOM      4  C   LIG    1       23.624 -21.209   5.730  0.00  0.00    +0.099 C 
ATOM      5  C   LIG    1       24.741 -21.248   4.661  0.00  0.00    +0.100 C 
ATOM      6  N   LIG    1       25.071 -19.943   4.032  0.00  0.00    -0.289 NA
ATOM      7  C   LIG    1       23.796 -19.347   3.566  0.00  0.00    +0.100 C 
ATOM      8  C   LIG    1       22.670 -19.286   4.628  0.00  0.00    +0.099 C 
ENDBRANCH   1   6
BRANCH   1   9
ATOM      9  C   LIG    1       26.265 -17.722   4.300  0.00  0.00    -0.026 A 
ATOM     10  C   LIG    1       27.571 -17.225   4.452  0.00  0.00    +0.005 A 
ATOM     11  C   LIG    1       27.941 -16.003   3.885  0.00  0.00    +0.000 A 
ATOM     12  C   LIG    1       27.018 -15.264   3.154  0.00  0.00    +0.000 A 
ATOM     13  C   LIG    1       25.721 -15.747   2.981  0.00  0.00    +0.000 A 
ATOM     14  C   LIG    1       25.347 -16.967   3.550  0.00  0.00    +0.005 A 
ENDBRANCH   1   9
BRANCH   1  15
ATOM     15  C   LIG    1       27.058 -19.720   5.593  0.00  0.00    -0.026 A 
ATOM     16  C   LIG    1       28.371 -19.293   5.321  0.00  0.00    +0.005 A 
ATOM     17  C   LIG    1       29.469 -19.951   5.874  0.00  0.00    +0.000 A 
ATOM     18  C   LIG    1       29.273 -21.023   6.740  0.00  0.00    +0.000 A 
ATOM     19  C   LIG    1       27.980 -21.433   7.058  0.00  0.00    +0.000 A 
ATOM     20  C   LIG    1       26.879 -20.787   6.490  0.00  0.00    +0.005 A 
ENDBRANCH   1  15
TORSDOF 3
ENDMDL
MODEL 5
REMARK VINA RESULT:      -0.5      2.227      4.733
REMARK  Name = *****
REMARK                            x       y       z     vdW  Elec       q    Type
REMARK                         _______ _______ _______ _____ _____    ______ ____
ROOT
ATOM      1  C   LIG    1       26.151 -17.105   3.740  0.00  0.00    +0.117 C 
ENDROOT
BRANCH   1   6
ATOM      2  C   LIG    1       26.214 -12.380   2.442  0.00  0.00    +0.105 C 
ATOM      3  N   LIG    1       26.304 -13.757   1.954  0.00  0.00    -0.303 NA
ATOM      4  C   LIG    1       27.461 -14.456   2.543  0.00  0.00    +0.099 C 
ATOM      5  C   LIG    1       27.268 -14.909   4.010  0.00  0.00    +0.100 C 
ATOM      6  N   LIG    1       26.045 -15.711   4.276  0.00  0.00    -0.289 NA
ATOM      7  C   LIG    1       24.898 -14.961   3.709  0.00  0.00    +0.100 C 
ATOM      8  C   LIG    1       25.068 -14.512   2.237  0.00  0.00    +0.099 C 
ENDBRANCH   1   6
BRANCH   1   9
ATOM      9  C   LIG    1       24.814 -17.863   3.744  0.00  0.00    -0.026 A 
ATOM     10  C   LIG    1       23.623 -17.244   4.160  0.00  0.00    +0.005 A 
ATOM     11  C   LIG    1       22.422 -17.957   4.197  0.00  0.00    +0.000 A 
ATOM     12  C   LIG    1       22.390 -19.293   3.815  0.00  0.00    +0.000 A 
ATOM     13  C   LIG    1       23.560 -19.922   3.387  0.00  0.00    +0.000 A 
ATOM     14  C   LIG    1       24.763 -19.212   3.352  0.00  0.00    +0.005 A 
ENDBRANCH   1   9
BRANCH   1  15
ATOM     15  C   LIG    1       27.216 -17.954   4.458  0.00  0.00    -0.026 A 
ATOM     16  C   LIG    1       26.954 -19.263   4.901  0.00  0.00    +0.005 A 
ATOM     17  C   LIG    1       27.920 -19.996   5.589  0.00  0.00    +0.000 A 
ATOM     18  C   LIG    1       29.180 -19.447   5.813  0.00  0.00    +0.000 A 
ATOM     19  C   LIG    1       29.475 -18.169   5.343  0.00  0.00    +0.000 A 
ATOM     20  C   LIG    1       28.502 -17.426   4.670  0.00  0.00    +0.005 A 
ENDBRANCH   1  15
TORSDOF 3
ENDMDL
MODEL 6
REMARK VINA RESULT:      -0.4      2.928      5.796
REMARK  Name = *****
REMARK                            x       y       z     vdW  Elec       q    Type
REMARK                         _______ _______ _______ _____ _____    ______ ____
ROOT
ATOM      1  C   LIG    1       26.124 -18.449   4.706  0.00  0.00    +0.117 C 
ENDROOT
BRANCH   1   6
ATOM      2  C   LIG    1       26.764 -13.914   2.966  0.00  0.00    +0.105 C 
ATOM      3  N   LIG    1       26.134 -14.715   4.016  0.00  0.00    -0.303 NA
ATOM      4  C   LIG    1       25.174 -15.679   3.447  0.00  0.00    +0.099 C 
ATOM      5  C   LIG    1       25.817 -16.919   2.781  0.00  0.00    +0.100 C 
ATOM      6  N   LIG    1       26.792 -17.663   3.621  0.00  0.00    -0.289 NA
ATOM      7  C   LIG    1       27.765 -16.673   4.142  0.00  0.00    +0.100 C 
ATOM      8  C   LIG    1       27.139 -15.431   4.824  0.00  0.00    +0.099 C 
ENDBRANCH   1   6
BRANCH   1   9
ATOM      9  C   LIG    1       27.095 -19.335   5.503  0.00  0.00    -0.026 A 
ATOM     10  C   LIG    1       28.487 -19.172   5.398  0.00  0.00    +0.005 A 
ATOM     11  C   LIG    1       29.360 -20.011   6.097  0.00  0.00    +0.000 A 
ATOM     12  C   LIG    1       28.857 -21.018   6.913  0.00  0.00    +0.000 A 
ATOM     13  C   LIG    1       27.478 -21.186   7.040  0.00  0.00    +0.000 A 
ATOM     14  C   LIG    1       26.603 -20.351   6.339  0.00  0.00    +0.005 A 
ENDBRANCH   1   9
BRANCH   1  15
ATOM     15  C   LIG    1       24.953 -19.312   4.199  0.00  0.00    -0.026 A 
ATOM     16  C   LIG    1       25.151 -20.425   3.363  0.00  0.00    +0.005 A 
ATOM     17  C   LIG    1       24.072 -21.163   2.881  0.00  0.00    +0.000 A 
ATOM     18  C   LIG    1       22.775 -20.826   3.258  0.00  0.00    +0.000 A 
ATOM     19  C   LIG    1       22.559 -19.754   4.122  0.00  0.00    +0.000 A 
ATOM     20  C   LIG    1       23.639 -19.002   4.592  0.00  0.00    +0.005 A 
ENDBRANCH   1  15
TORSDOF 3
ENDMDL
MODEL 7
REMARK VINA RESULT:      -0.3      3.180      6.154
REMARK  Name = *****
REMARK                            x       y       z     vdW  Elec       q    Type
REMARK                         _______ _______ _______ _____ _____    ______ ____
ROOT
ATOM      1  C   LIG    1       25.495 -18.351   4.575  0.00  0.00    +0.117 C 
ENDROOT
BRANCH   1   6
ATOM      2  C   LIG    1       21.628 -21.353   4.354  0.00  0.00    +0.105 C 
ATOM      3  N   LIG    1       22.344 -20.383   5.183  0.00  0.00    -0.303 NA
ATOM      4  C   LIG    1       23.716 -20.839   5.473  0.00  0.00    +0.099 C 
ATOM      5  C   LIG    1       24.714 -20.686   4.300  0.00  0.00    +0.100 C 
ATOM      6  N   LIG    1       24.786 -19.331   3.693  0.00  0.00    -0.289 NA
ATOM      7  C   LIG    1       23.396 -18.920   3.376  0.00  0.00    +0.100 C 
ATOM      8  C   LIG    1       22.387 -19.053   4.543  0.00  0.00    +0.099 C 
ENDBRANCH   1   6
BRANCH   1   9
ATOM      9  C   LIG    1       25.597 -16.944   3.964  0.00  0.00    -0.026 A 
ATOM     10  C   LIG    1       26.762 -16.516   3.304  0.00  0.00    +0.005 A 
ATOM     11  C   LIG    1       26.857 -15.221   2.789  0.00  0.00    +0.000 A 
ATOM     12  C   LIG    1       25.791 -14.337   2.919  0.00  0.00    +0.000 A 
ATOM     13  C   LIG    1       24.622 -14.748   3.560  0.00  0.00    +0.000 A 
ATOM     14  C   LIG    1       24.526 -16.042   4.079  0.00  0.00    +0.005 A 
ENDBRANCH   1   9
BRANCH   1  15
ATOM     15  C   LIG    1       26.898 -18.821   5.001  0.00  0.00    -0.026 A 
ATOM     16  C   LIG    1       27.114 -20.070   5.610  0.00  0.00    +0.005 A 
ATOM     17  C   LIG    1       28.387 -20.456   6.028  0.00  0.00    +0.000 A 
ATOM     18  C   LIG    1       29.475 -19.614   5.809  0.00  0.00    +0.000 A 
ATOM     19  C   LIG    1       29.290 -18.392   5.167  0.00  0.00    +0.000 A 
ATOM     20  C   LIG    1       28.012 -17.996   4.764  0.00  0.00    +0.005 A 
ENDBRANCH   1  15
TORSDOF 3
ENDMDL
MODEL 8
REMARK VINA RESULT:      -0.0      1.651      5.339
REMARK  Name = *****
REMARK                            x       y       z     vdW  Elec       q    Type
REMARK                         _______ _______ _______ _____ _____    ______ ____
ROOT
ATOM      1  C   LIG    1       25.908 -15.142   2.944  0.00  0.00    +0.117 C 
ENDROOT
BRANCH   1   6
ATOM      2  C   LIG    1       23.082 -11.449   4.487  0.00  0.00    +0.105 C 
ATOM      3  N   LIG    1       24.459 -11.913   4.323  0.00  0.00    -0.303 NA
ATOM      4  C   LIG    1       24.705 -13.136   5.110  0.00  0.00    +0.099 C 
ATOM      5  C   LIG    1       24.117 -14.431   4.501  0.00  0.00    +0.100 C 
ATOM      6  N   LIG    1       24.486 -14.698   3.086  0.00  0.00    -0.289 NA
ATOM      7  C   LIG    1       24.187 -13.465   2.316  0.00  0.00    +0.100 C 
ATOM      8  C   LIG    1       24.781 -12.161   2.904  0.00  0.00    +0.099 C 
ENDBRANCH   1   6
BRANCH   1   9
ATOM      9  C   LIG    1       26.144 -16.588   3.404  0.00  0.00    -0.026 A 
ATOM     10  C   LIG    1       25.141 -17.566   3.290  0.00  0.00    +0.005 A 
ATOM     11  C   LIG    1       25.355 -18.868   3.750  0.00  0.00    +0.000 A 
ATOM     12  C   LIG    1       26.572 -19.214   4.326  0.00  0.00    +0.000 A 
ATOM     13  C   LIG    1       27.585 -18.261   4.437  0.00  0.00    +0.000 A 
ATOM     14  C   LIG    1       27.372 -16.957   3.980  0.00  0.00    +0.005 A 
ENDBRANCH   1   9
BRANCH   1  15
ATOM     15  C   LIG    1       26.909 -14.213   3.657  0.00  0.00    -0.026 A 
ATOM     16  C   LIG    1       27.787 -13.374   2.946  0.00  0.00    +0.005 A 
ATOM     17  C   LIG    1       28.715 -12.576   3.612  0.00  0.00    +0.000 A 
ATOM     18  C   LIG    1       28.757 -12.573   5.004  0.00  0.00    +0.000 A 
ATOM     19  C   LIG    1       27.867 -13.363   5.728  0.00  0.00    +0.000 A 
ATOM     20  C   LIG    1       26.948 -14.177   5.062  0.00  0.00    +0.005 A 
ENDBRANCH   1  15
TORSDOF 3
ENDMDL
MODEL 9
REMARK VINA RESULT:       0.5      3.582      7.597
REMARK  Name = *****
REMARK                            x       y       z     vdW  Elec       q    Type
REMARK                         _______ _______ _______ _____ _____    ______ ____
ROOT
ATOM      1  C   LIG    1       25.932 -19.021   4.465  0.00  0.00    +0.117 C 
ENDROOT
BRANCH   1   6
ATOM      2  C   LIG    1       21.684 -21.462   4.417  0.00  0.00    +0.105 C 
ATOM      3  N   LIG    1       23.028 -21.387   3.842  0.00  0.00    -0.303 NA
ATOM      4  C   LIG    1       23.239 -20.103   3.148  0.00  0.00    +0.099 C 
ATOM      5  C   LIG    1       23.488 -18.893   4.080  0.00  0.00    +0.100 C 
ATOM      6  N   LIG    1       24.570 -19.071   5.083  0.00  0.00    -0.289 NA
ATOM      7  C   LIG    1       24.305 -20.347   5.791  0.00  0.00    +0.100 C 
ATOM      8  C   LIG    1       24.067 -21.572   4.873  0.00  0.00    +0.099 C 
ENDBRANCH   1   6
BRANCH   1   9
ATOM      9  C   LIG    1       27.025 -19.646   5.346  0.00  0.00    -0.026 A 
ATOM     10  C   LIG    1       28.372 -19.265   5.222  0.00  0.00    +0.005 A 
ATOM     11  C   LIG    1       29.361 -19.871   6.001  0.00  0.00    +0.000 A 
ATOM     12  C   LIG    1       29.021 -20.861   6.916  0.00  0.00    +0.000 A 
ATOM     13  C   LIG    1       27.688 -21.245   7.062  0.00  0.00    +0.000 A 
ATOM     14  C   LIG    1       26.697 -20.642   6.282  0.00  0.00    +0.005 A 
ENDBRANCH   1   9
BRANCH   1  15
ATOM     15  C   LIG    1       26.363 -17.599   4.057  0.00  0.00    -0.026 A 
ATOM     16  C   LIG    1       27.626 -17.077   4.390  0.00  0.00    +0.005 A 
ATOM     17  C   LIG    1       27.978 -15.772   4.049  0.00  0.00    +0.000 A 
ATOM     18  C   LIG    1       27.086 -14.977   3.334  0.00  0.00    +0.000 A 
ATOM     19  C   LIG    1       25.847 -15.490   2.955  0.00  0.00    +0.000 A 
ATOM     20  C   LIG    1       25.487 -16.792   3.312  0.00  0.00    +0.005 A 
ENDBRANCH   1  15
TORSDOF 3
ENDMDL
