MODEL 1
REMARK VINA RESULT:     -10.9      0.000      0.000
REMARK  Name = *****
REMARK                            x       y       z     vdW  Elec       q    Type
REMARK                         _______ _______ _______ _____ _____    ______ ____
ROOT
ATOM      1  C   LIG    1       25.681 -26.744   6.850  0.00  0.00    +0.005 C 
ENDROOT
BRANCH   1   2
ATOM      2  C   LIG    1       26.149 -25.404   6.288  0.00  0.00    +0.051 C 
BRANCH   2   3
ATOM      3  C   LIG    1       25.670 -24.209   7.141  0.00  0.00    +0.133 C 
BRANCH   3   5
ATOM      4  C   LIG    1       24.767 -23.455   4.940  0.00  0.00    +0.193 C 
ATOM      5  N   LIG    1       24.584 -23.355   6.451  0.00  0.00    +0.248 N 
ATOM      6  C   LIG    1       23.177 -23.855   6.804  0.00  0.00    +0.193 C 
BRANCH   5   7
ATOM      7  C   LIG    1       24.723 -21.801   6.879  0.00  0.00    +0.129 C 
ATOM      8  C   LIG    1       26.183 -21.330   6.926  0.00  0.00    +0.013 A 
ATOM      9  C   LIG    1       26.442 -20.483   5.823  0.00  0.00    -0.009 A 
ATOM     10  C   LIG    1       27.724 -19.994   5.594  0.00  0.00    +0.009 A 
ATOM     11  C   LIG    1       28.733 -20.333   6.492  0.00  0.00    +0.001 A 
ATOM     12  C   LIG    1       28.460 -21.116   7.624  0.00  0.00    +0.001 A 
ATOM     13  C   LIG    1       25.199 -20.174   5.165  0.00  0.00    -0.009 A 
ATOM     14  C   LIG    1       24.937 -19.308   4.110  0.00  0.00    +0.009 A 
ATOM     15  C   LIG    1       23.610 -19.019   3.808  0.00  0.00    +0.001 A 
ATOM     16  C   LIG    1       22.563 -19.547   4.580  0.00  0.00    +0.001 A 
ATOM     17  C   LIG    1       22.828 -20.448   5.621  0.00  0.00    +0.010 A 
ATOM     18  C   LIG    1       27.171 -21.610   7.855  0.00  0.00    +0.010 A 
ATOM     19  C   LIG    1       24.141 -20.812   5.860  0.00  0.00    +0.013 A 
ENDBRANCH   5   7
ENDBRANCH   3   5
ENDBRANCH   2   3
ENDBRANCH   1   2
BRANCH   1  20
ATOM     20  C   LIG    1       24.457 -27.288   6.085  0.00  0.00    +0.005 C 
BRANCH  20  21
ATOM     21  C   LIG    1       24.390 -28.804   6.262  0.00  0.00    +0.051 C 
BRANCH  21  22
ATOM     22  C   LIG    1       25.146 -29.337   7.492  0.00  0.00    +0.133 C 
BRANCH  22  23
ATOM     23  N   LIG    1       25.076 -30.883   7.606  0.00  0.00    +0.248 N 
ATOM     24  C   LIG    1       26.287 -31.512   6.922  0.00  0.00    +0.193 C 
ATOM     25  C   LIG    1       23.809 -31.403   6.917  0.00  0.00    +0.193 C 
BRANCH  23  26
ATOM     26  C   LIG    1       25.055 -31.330   9.154  0.00  0.00    +0.129 C 
ATOM     27  C   LIG    1       25.853 -30.392  10.065  0.00  0.00    +0.013 A 
ATOM     28  C   LIG    1       24.969 -29.651  10.885  0.00  0.00    -0.009 A 
ATOM     29  C   LIG    1       25.439 -28.677  11.749  0.00  0.00    +0.009 A 
ATOM     30  C   LIG    1       26.817 -28.458  11.814  0.00  0.00    +0.001 A 
ATOM     31  C   LIG    1       27.702 -29.231  11.046  0.00  0.00    +0.001 A 
ATOM     32  C   LIG    1       23.625 -30.164  10.713  0.00  0.00    -0.009 A 
ATOM     33  C   LIG    1       22.449 -29.808  11.351  0.00  0.00    +0.009 A 
ATOM     34  C   LIG    1       21.305 -30.574  11.112  0.00  0.00    +0.001 A 
ATOM     35  C   LIG    1       21.363 -31.701  10.281  0.00  0.00    +0.001 A 
ATOM     36  C   LIG    1       22.547 -32.052   9.628  0.00  0.00    +0.010 A 
ATOM     37  C   LIG    1       27.227 -30.214  10.174  0.00  0.00    +0.010 A 
ATOM     38  C   LIG    1       23.664 -31.241   9.801  0.00  0.00    +0.013 A 
ENDBRANCH  23  26
ENDBRANCH  22  23
ENDBRANCH  21  22
ENDBRANCH  20  21
ENDBRANCH   1  20
TORSDOF 9
ENDMDL
MODEL 2
REMARK VINA RESULT:     -10.9      0.628     10.042
REMARK  Name = *****
REMARK                            x       y       z     vdW  Elec       q    Type
REMARK                         _______ _______ _______ _____ _____    ______ ____
ROOT
ATOM      1  C   LIG    1       24.756 -27.487   6.254  0.00  0.00    +0.005 C 
ENDROOT
BRANCH   1   2
ATOM      2  C   LIG    1       25.085 -28.964   6.046  0.00  0.00    +0.051 C 
BRANCH   2   3
ATOM      3  C   LIG    1       24.086 -29.896   6.766  0.00  0.00    +0.133 C 
BRANCH   3   5
ATOM      4  C   LIG    1       23.565 -32.265   6.179  0.00  0.00    +0.193 C 
ATOM      5  N   LIG    1       24.575 -31.357   6.874  0.00  0.00    +0.248 N 
ATOM      6  C   LIG    1       25.939 -31.538   6.197  0.00  0.00    +0.193 C 
BRANCH   5   7
ATOM      7  C   LIG    1       24.682 -31.809   8.424  0.00  0.00    +0.129 C 
ATOM      8  C   LIG    1       25.500 -30.825   9.271  0.00  0.00    +0.013 A 
ATOM      9  C   LIG    1       24.633 -30.090  10.113  0.00  0.00    -0.009 A 
ATOM     10  C   LIG    1       25.126 -29.069  10.918  0.00  0.00    +0.009 A 
ATOM     11  C   LIG    1       26.495 -28.812  10.897  0.00  0.00    +0.001 A 
ATOM     12  C   LIG    1       27.363 -29.586  10.114  0.00  0.00    +0.001 A 
ATOM     13  C   LIG    1       23.315 -30.670  10.051  0.00  0.00    -0.009 A 
ATOM     14  C   LIG    1       22.169 -30.362  10.773  0.00  0.00    +0.009 A 
ATOM     15  C   LIG    1       21.081 -31.226  10.685  0.00  0.00    +0.001 A 
ATOM     16  C   LIG    1       21.157 -32.405   9.926  0.00  0.00    +0.001 A 
ATOM     17  C   LIG    1       22.302 -32.695   9.170  0.00  0.00    +0.010 A 
ATOM     18  C   LIG    1       26.868 -30.613   9.302  0.00  0.00    +0.010 A 
ATOM     19  C   LIG    1       23.347 -31.788   9.181  0.00  0.00    +0.013 A 
ENDBRANCH   5   7
ENDBRANCH   3   5
ENDBRANCH   2   3
ENDBRANCH   1   2
BRANCH   1  20
ATOM     20  C   LIG    1       25.891 -26.748   6.991  0.00  0.00    +0.005 C 
BRANCH  20  21
ATOM     21  C   LIG    1       26.095 -25.377   6.348  0.00  0.00    +0.051 C 
BRANCH  21  22
ATOM     22  C   LIG    1       25.618 -24.192   7.206  0.00  0.00    +0.133 C 
BRANCH  22  23
ATOM     23  N   LIG    1       24.578 -23.308   6.470  0.00  0.00    +0.248 N 
ATOM     24  C   LIG    1       23.164 -23.753   6.834  0.00  0.00    +0.193 C 
ATOM     25  C   LIG    1       24.751 -23.447   4.953  0.00  0.00    +0.193 C 
BRANCH  23  26
ATOM     26  C   LIG    1       24.765 -21.762   6.881  0.00  0.00    +0.129 C 
ATOM     27  C   LIG    1       26.230 -21.310   6.887  0.00  0.00    +0.013 A 
ATOM     28  C   LIG    1       26.466 -20.432   5.803  0.00  0.00    -0.009 A 
ATOM     29  C   LIG    1       27.733 -19.939   5.543  0.00  0.00    +0.009 A 
ATOM     30  C   LIG    1       28.775 -20.310   6.394  0.00  0.00    +0.001 A 
ATOM     31  C   LIG    1       28.535 -21.134   7.505  0.00  0.00    +0.001 A 
ATOM     32  C   LIG    1       25.202 -20.115   5.168  0.00  0.00    -0.009 A 
ATOM     33  C   LIG    1       24.924 -19.252   4.123  0.00  0.00    +0.009 A 
ATOM     34  C   LIG    1       23.587 -19.006   3.802  0.00  0.00    +0.001 A 
ATOM     35  C   LIG    1       22.555 -19.587   4.552  0.00  0.00    +0.001 A 
ATOM     36  C   LIG    1       22.837 -20.468   5.599  0.00  0.00    +0.010 A 
ATOM     37  C   LIG    1       27.256 -21.630   7.768  0.00  0.00    +0.010 A 
ATOM     38  C   LIG    1       24.168 -20.778   5.864  0.00  0.00    +0.013 A 
ENDBRANCH  23  26
ENDBRANCH  22  23
ENDBRANCH  21  22
ENDBRANCH  20  21
ENDBRANCH   1  20
TORSDOF 9
ENDMDL
MODEL 3
REMARK VINA RESULT:     -10.5      0.927      1.708
REMARK  Name = *****
REMARK                            x       y       z     vdW  Elec       q    Type
REMARK                         _______ _______ _______ _____ _____    ______ ____
ROOT
ATOM      1  C   LIG    1       25.766 -26.849   7.012  0.00  0.00    +0.005 C 
ENDROOT
BRANCH   1   2
ATOM      2  C   LIG    1       26.009 -25.571   6.214  0.00  0.00    +0.051 C 
BRANCH   2   3
ATOM      3  C   LIG    1       25.677 -24.299   7.025  0.00  0.00    +0.133 C 
BRANCH   3   5
ATOM      4  C   LIG    1       24.712 -23.486   4.872  0.00  0.00    +0.193 C 
ATOM      5  N   LIG    1       24.566 -23.434   6.389  0.00  0.00    +0.248 N 
ATOM      6  C   LIG    1       23.173 -23.959   6.761  0.00  0.00    +0.193 C 
BRANCH   5   7
ATOM      7  C   LIG    1       24.702 -21.893   6.862  0.00  0.00    +0.129 C 
ATOM      8  C   LIG    1       26.159 -21.414   6.900  0.00  0.00    +0.013 A 
ATOM      9  C   LIG    1       26.395 -20.531   5.820  0.00  0.00    -0.009 A 
ATOM     10  C   LIG    1       27.669 -20.027   5.585  0.00  0.00    +0.009 A 
ATOM     11  C   LIG    1       28.695 -20.385   6.456  0.00  0.00    +0.001 A 
ATOM     12  C   LIG    1       28.445 -21.205   7.567  0.00  0.00    +0.001 A 
ATOM     13  C   LIG    1       25.139 -20.212   5.191  0.00  0.00    -0.009 A 
ATOM     14  C   LIG    1       24.854 -19.316   4.168  0.00  0.00    +0.009 A 
ATOM     15  C   LIG    1       23.520 -19.026   3.896  0.00  0.00    +0.001 A 
ATOM     16  C   LIG    1       22.489 -19.585   4.669  0.00  0.00    +0.001 A 
ATOM     17  C   LIG    1       22.777 -20.516   5.678  0.00  0.00    +0.010 A 
ATOM     18  C   LIG    1       27.164 -21.715   7.803  0.00  0.00    +0.010 A 
ATOM     19  C   LIG    1       24.096 -20.877   5.884  0.00  0.00    +0.013 A 
ENDBRANCH   5   7
ENDBRANCH   3   5
ENDBRANCH   2   3
ENDBRANCH   1   2
BRANCH   1  20
ATOM     20  C   LIG    1       24.789 -27.798   6.289  0.00  0.00    +0.005 C 
BRANCH  20  21
ATOM     21  C   LIG    1       24.866 -29.181   6.932  0.00  0.00    +0.051 C 
BRANCH  21  22
ATOM     22  C   LIG    1       24.520 -29.209   8.431  0.00  0.00    +0.133 C 
BRANCH  22  23
ATOM     23  N   LIG    1       25.610 -29.916   9.278  0.00  0.00    +0.248 N 
ATOM     24  C   LIG    1       26.694 -28.917   9.674  0.00  0.00    +0.193 C 
ATOM     25  C   LIG    1       26.264 -31.037   8.461  0.00  0.00    +0.193 C 
BRANCH  23  26
ATOM     26  C   LIG    1       24.962 -30.546  10.612  0.00  0.00    +0.129 C 
ATOM     27  C   LIG    1       24.464 -29.487  11.601  0.00  0.00    +0.013 A 
ATOM     28  C   LIG    1       23.049 -29.485  11.631  0.00  0.00    -0.009 A 
ATOM     29  C   LIG    1       22.350 -28.567  12.394  0.00  0.00    +0.009 A 
ATOM     30  C   LIG    1       23.076 -27.651  13.158  0.00  0.00    +0.001 A 
ATOM     31  C   LIG    1       24.478 -27.686  13.177  0.00  0.00    +0.001 A 
ATOM     32  C   LIG    1       22.560 -30.608  10.857  0.00  0.00    -0.009 A 
ATOM     33  C   LIG    1       21.265 -31.053  10.657  0.00  0.00    +0.009 A 
ATOM     34  C   LIG    1       21.074 -32.266   9.990  0.00  0.00    +0.001 A 
ATOM     35  C   LIG    1       22.172 -33.032   9.574  0.00  0.00    +0.001 A 
ATOM     36  C   LIG    1       23.479 -32.575   9.766  0.00  0.00    +0.010 A 
ATOM     37  C   LIG    1       25.184 -28.614  12.408  0.00  0.00    +0.010 A 
ATOM     38  C   LIG    1       23.666 -31.329  10.355  0.00  0.00    +0.013 A 
ENDBRANCH  23  26
ENDBRANCH  22  23
ENDBRANCH  21  22
ENDBRANCH  20  21
ENDBRANCH   1  20
TORSDOF 9
ENDMDL
MODEL 4
REMARK VINA RESULT:     -10.4      1.375      2.117
REMARK  Name = *****
REMARK                            x       y       z     vdW  Elec       q    Type
REMARK                         _______ _______ _______ _____ _____    ______ ____
ROOT
ATOM      1  C   LIG    1       25.411 -26.848   6.809  0.00  0.00    +0.005 C 
ENDROOT
BRANCH   1   2
ATOM      2  C   LIG    1       26.068 -25.576   6.278  0.00  0.00    +0.051 C 
BRANCH   2   3
ATOM      3  C   LIG    1       25.677 -24.326   7.097  0.00  0.00    +0.133 C 
BRANCH   3   5
ATOM      4  C   LIG    1       24.795 -23.518   4.908  0.00  0.00    +0.193 C 
ATOM      5  N   LIG    1       24.595 -23.458   6.418  0.00  0.00    +0.248 N 
ATOM      6  C   LIG    1       23.187 -23.971   6.744  0.00  0.00    +0.193 C 
BRANCH   5   7
ATOM      7  C   LIG    1       24.726 -21.915   6.888  0.00  0.00    +0.129 C 
ATOM      8  C   LIG    1       26.179 -21.425   6.912  0.00  0.00    +0.013 A 
ATOM      9  C   LIG    1       26.399 -20.543   5.828  0.00  0.00    -0.009 A 
ATOM     10  C   LIG    1       27.668 -20.030   5.580  0.00  0.00    +0.009 A 
ATOM     11  C   LIG    1       28.704 -20.380   6.443  0.00  0.00    +0.001 A 
ATOM     12  C   LIG    1       28.470 -21.200   7.557  0.00  0.00    +0.001 A 
ATOM     13  C   LIG    1       25.135 -20.233   5.211  0.00  0.00    -0.009 A 
ATOM     14  C   LIG    1       24.835 -19.340   4.189  0.00  0.00    +0.009 A 
ATOM     15  C   LIG    1       23.496 -19.060   3.929  0.00  0.00    +0.001 A 
ATOM     16  C   LIG    1       22.477 -19.625   4.712  0.00  0.00    +0.001 A 
ATOM     17  C   LIG    1       22.780 -20.553   5.719  0.00  0.00    +0.010 A 
ATOM     18  C   LIG    1       27.195 -21.718   7.806  0.00  0.00    +0.010 A 
ATOM     19  C   LIG    1       24.104 -20.904   5.914  0.00  0.00    +0.013 A 
ENDBRANCH   5   7
ENDBRANCH   3   5
ENDBRANCH   2   3
ENDBRANCH   1   2
BRANCH   1  20
ATOM     20  C   LIG    1       26.261 -27.512   7.911  0.00  0.00    +0.005 C 
BRANCH  20  21
ATOM     21  C   LIG    1       25.582 -28.806   8.355  0.00  0.00    +0.051 C 
BRANCH  21  22
ATOM     22  C   LIG    1       25.777 -29.152   9.842  0.00  0.00    +0.133 C 
BRANCH  22  23
ATOM     23  N   LIG    1       24.817 -30.273  10.321  0.00  0.00    +0.248 N 
ATOM     24  C   LIG    1       25.409 -31.641   9.993  0.00  0.00    +0.193 C 
ATOM     25  C   LIG    1       23.467 -30.148   9.606  0.00  0.00    +0.193 C 
BRANCH  23  26
ATOM     26  C   LIG    1       24.583 -30.168  11.911  0.00  0.00    +0.129 C 
ATOM     27  C   LIG    1       25.732 -29.472  12.648  0.00  0.00    +0.013 A 
ATOM     28  C   LIG    1       25.312 -28.200  13.103  0.00  0.00    -0.009 A 
ATOM     29  C   LIG    1       26.190 -27.339  13.738  0.00  0.00    +0.009 A 
ATOM     30  C   LIG    1       27.504 -27.766  13.942  0.00  0.00    +0.001 A 
ATOM     31  C   LIG    1       27.910 -29.049  13.545  0.00  0.00    +0.001 A 
ATOM     32  C   LIG    1       23.886 -28.067  12.879  0.00  0.00    -0.009 A 
ATOM     33  C   LIG    1       23.025 -27.039  13.221  0.00  0.00    +0.009 A 
ATOM     34  C   LIG    1       21.654 -27.229  13.029  0.00  0.00    +0.001 A 
ATOM     35  C   LIG    1       21.164 -28.450  12.545  0.00  0.00    +0.001 A 
ATOM     36  C   LIG    1       22.036 -29.483  12.189  0.00  0.00    +0.010 A 
ATOM     37  C   LIG    1       27.023 -29.919  12.906  0.00  0.00    +0.010 A 
ATOM     38  C   LIG    1       23.405 -29.262  12.301  0.00  0.00    +0.013 A 
ENDBRANCH  23  26
ENDBRANCH  22  23
ENDBRANCH  21  22
ENDBRANCH  20  21
ENDBRANCH   1  20
TORSDOF 9
ENDMDL
MODEL 5
REMARK VINA RESULT:     -10.1      0.967     10.325
REMARK  Name = *****
REMARK                            x       y       z     vdW  Elec       q    Type
REMARK                         _______ _______ _______ _____ _____    ______ ____
ROOT
ATOM      1  C   LIG    1       25.385 -27.950   6.916  0.00  0.00    +0.005 C 
ENDROOT
BRANCH   1   2
ATOM      2  C   LIG    1       25.518 -28.990   8.027  0.00  0.00    +0.051 C 
BRANCH   2   3
ATOM      3  C   LIG    1       24.202 -29.762   8.269  0.00  0.00    +0.133 C 
BRANCH   3   5
ATOM      4  C   LIG    1       23.621 -32.079   7.547  0.00  0.00    +0.193 C 
ATOM      5  N   LIG    1       24.414 -31.263   8.564  0.00  0.00    +0.248 N 
ATOM      6  C   LIG    1       25.894 -31.648   8.448  0.00  0.00    +0.193 C 
BRANCH   5   7
ATOM      7  C   LIG    1       23.877 -31.634  10.044  0.00  0.00    +0.129 C 
ATOM      8  C   LIG    1       24.071 -30.490  11.047  0.00  0.00    +0.013 A 
ATOM      9  C   LIG    1       22.819 -29.897  11.336  0.00  0.00    -0.009 A 
ATOM     10  C   LIG    1       22.740 -28.777  12.156  0.00  0.00    +0.009 A 
ATOM     11  C   LIG    1       23.916 -28.275  12.708  0.00  0.00    +0.001 A 
ATOM     12  C   LIG    1       25.149 -28.904  12.475  0.00  0.00    +0.001 A 
ATOM     13  C   LIG    1       21.773 -30.709  10.770  0.00  0.00    -0.009 A 
ATOM     14  C   LIG    1       20.392 -30.591  10.879  0.00  0.00    +0.009 A 
ATOM     15  C   LIG    1       19.602 -31.642  10.421  0.00  0.00    +0.001 A 
ATOM     16  C   LIG    1       20.186 -32.812   9.909  0.00  0.00    +0.001 A 
ATOM     17  C   LIG    1       21.577 -32.914   9.767  0.00  0.00    +0.010 A 
ATOM     18  C   LIG    1       25.230 -30.030  11.649  0.00  0.00    +0.010 A 
ATOM     19  C   LIG    1       22.358 -31.832  10.133  0.00  0.00    +0.013 A 
ENDBRANCH   5   7
ENDBRANCH   3   5
ENDBRANCH   2   3
ENDBRANCH   1   2
BRANCH   1  20
ATOM     20  C   LIG    1       26.193 -26.675   7.229  0.00  0.00    +0.005 C 
BRANCH  20  21
ATOM     21  C   LIG    1       25.689 -25.535   6.346  0.00  0.00    +0.051 C 
BRANCH  21  22
ATOM     22  C   LIG    1       25.525 -24.189   7.074  0.00  0.00    +0.133 C 
BRANCH  22  23
ATOM     23  N   LIG    1       24.468 -23.276   6.399  0.00  0.00    +0.248 N 
ATOM     24  C   LIG    1       23.063 -23.712   6.808  0.00  0.00    +0.193 C 
ATOM     25  C   LIG    1       24.580 -23.381   4.874  0.00  0.00    +0.193 C 
BRANCH  23  26
ATOM     26  C   LIG    1       24.691 -21.741   6.838  0.00  0.00    +0.129 C 
ATOM     27  C   LIG    1       26.165 -21.325   6.856  0.00  0.00    +0.013 A 
ATOM     28  C   LIG    1       26.426 -20.434   5.788  0.00  0.00    -0.009 A 
ATOM     29  C   LIG    1       27.705 -19.967   5.541  0.00  0.00    +0.009 A 
ATOM     30  C   LIG    1       28.735 -20.377   6.389  0.00  0.00    +0.001 A 
ATOM     31  C   LIG    1       28.472 -21.214   7.484  0.00  0.00    +0.001 A 
ATOM     32  C   LIG    1       25.172 -20.076   5.156  0.00  0.00    -0.009 A 
ATOM     33  C   LIG    1       24.918 -19.188   4.125  0.00  0.00    +0.009 A 
ATOM     34  C   LIG    1       23.588 -18.905   3.804  0.00  0.00    +0.001 A 
ATOM     35  C   LIG    1       22.540 -19.475   4.541  0.00  0.00    +0.001 A 
ATOM     36  C   LIG    1       22.798 -20.380   5.573  0.00  0.00    +0.010 A 
ATOM     37  C   LIG    1       27.180 -21.684   7.734  0.00  0.00    +0.010 A 
ATOM     38  C   LIG    1       24.120 -20.726   5.837  0.00  0.00    +0.013 A 
ENDBRANCH  23  26
ENDBRANCH  22  23
ENDBRANCH  21  22
ENDBRANCH  20  21
ENDBRANCH   1  20
TORSDOF 9
ENDMDL
MODEL 6
REMARK VINA RESULT:      -9.9      0.916      2.718
REMARK  Name = *****
REMARK                            x       y       z     vdW  Elec       q    Type
REMARK                         _______ _______ _______ _____ _____    ______ ____
ROOT
ATOM      1  C   LIG    1       25.883 -26.748   6.128  0.00  0.00    +0.005 C 
ENDROOT
BRANCH   1   2
ATOM      2  C   LIG    1       25.553 -25.713   7.201  0.00  0.00    +0.051 C 
BRANCH   2   3
ATOM      3  C   LIG    1       25.911 -24.276   6.762  0.00  0.00    +0.133 C 
BRANCH   3   5
ATOM      4  C   LIG    1       24.700 -23.458   4.739  0.00  0.00    +0.193 C 
ATOM      5  N   LIG    1       24.696 -23.463   6.264  0.00  0.00    +0.248 N 
ATOM      6  C   LIG    1       23.378 -24.084   6.745  0.00  0.00    +0.193 C 
BRANCH   5   7
ATOM      7  C   LIG    1       24.785 -21.932   6.779  0.00  0.00    +0.129 C 
ATOM      8  C   LIG    1       26.225 -21.403   6.813  0.00  0.00    +0.013 A 
ATOM      9  C   LIG    1       26.417 -20.484   5.755  0.00  0.00    -0.009 A 
ATOM     10  C   LIG    1       27.671 -19.929   5.520  0.00  0.00    +0.009 A 
ATOM     11  C   LIG    1       28.719 -20.276   6.369  0.00  0.00    +0.001 A 
ATOM     12  C   LIG    1       28.512 -21.134   7.459  0.00  0.00    +0.001 A 
ATOM     13  C   LIG    1       25.143 -20.191   5.151  0.00  0.00    -0.009 A 
ATOM     14  C   LIG    1       24.816 -19.277   4.156  0.00  0.00    +0.009 A 
ATOM     15  C   LIG    1       23.469 -19.027   3.908  0.00  0.00    +0.001 A 
ATOM     16  C   LIG    1       22.468 -19.642   4.677  0.00  0.00    +0.001 A 
ATOM     17  C   LIG    1       22.800 -20.590   5.655  0.00  0.00    +0.010 A 
ATOM     18  C   LIG    1       27.252 -21.695   7.696  0.00  0.00    +0.010 A 
ATOM     19  C   LIG    1       24.133 -20.911   5.836  0.00  0.00    +0.013 A 
ENDBRANCH   5   7
ENDBRANCH   3   5
ENDBRANCH   2   3
ENDBRANCH   1   2
BRANCH   1  20
ATOM     20  C   LIG    1       24.684 -27.673   5.840  0.00  0.00    +0.005 C 
BRANCH  20  21
ATOM     21  C   LIG    1       25.137 -29.128   5.947  0.00  0.00    +0.051 C 
BRANCH  21  22
ATOM     22  C   LIG    1       24.024 -30.116   6.338  0.00  0.00    +0.133 C 
BRANCH  22  23
ATOM     23  N   LIG    1       24.363 -30.910   7.627  0.00  0.00    +0.248 N 
ATOM     24  C   LIG    1       25.852 -31.243   7.659  0.00  0.00    +0.193 C 
ATOM     25  C   LIG    1       23.574 -32.224   7.656  0.00  0.00    +0.193 C 
BRANCH  23  26
ATOM     26  C   LIG    1       23.989 -30.043   8.933  0.00  0.00    +0.129 C 
ATOM     27  C   LIG    1       23.183 -30.830   9.971  0.00  0.00    +0.013 A 
ATOM     28  C   LIG    1       23.986 -31.092  11.106  0.00  0.00    -0.009 A 
ATOM     29  C   LIG    1       23.511 -31.853  12.160  0.00  0.00    +0.009 A 
ATOM     30  C   LIG    1       22.205 -32.341  12.089  0.00  0.00    +0.001 A 
ATOM     31  C   LIG    1       21.385 -32.035  10.992  0.00  0.00    +0.001 A 
ATOM     32  C   LIG    1       25.235 -30.368  10.977  0.00  0.00    -0.009 A 
ATOM     33  C   LIG    1       26.294 -30.259  11.861  0.00  0.00    +0.009 A 
ATOM     34  C   LIG    1       27.323 -29.363  11.558  0.00  0.00    +0.001 A 
ATOM     35  C   LIG    1       27.256 -28.564  10.408  0.00  0.00    +0.001 A 
ATOM     36  C   LIG    1       26.192 -28.684   9.511  0.00  0.00    +0.010 A 
ATOM     37  C   LIG    1       21.863 -31.265   9.929  0.00  0.00    +0.010 A 
ATOM     38  C   LIG    1       25.211 -29.636   9.770  0.00  0.00    +0.013 A 
ENDBRANCH  23  26
ENDBRANCH  22  23
ENDBRANCH  21  22
ENDBRANCH  20  21
ENDBRANCH   1  20
TORSDOF 9
ENDMDL
MODEL 7
REMARK VINA RESULT:      -9.7      0.930     10.159
REMARK  Name = *****
REMARK                            x       y       z     vdW  Elec       q    Type
REMARK                         _______ _______ _______ _____ _____    ______ ____
ROOT
ATOM      1  C   LIG    1       25.266 -27.959   5.409  0.00  0.00    +0.005 C 
ENDROOT
BRANCH   1   2
ATOM      2  C   LIG    1       25.043 -28.537   6.805  0.00  0.00    +0.051 C 
BRANCH   2   3
ATOM      3  C   LIG    1       25.611 -29.966   6.948  0.00  0.00    +0.133 C 
BRANCH   3   5
ATOM      4  C   LIG    1       23.742 -31.507   7.546  0.00  0.00    +0.193 C 
ATOM      5  N   LIG    1       24.964 -30.776   8.093  0.00  0.00    +0.248 N 
ATOM      6  C   LIG    1       25.940 -31.814   8.659  0.00  0.00    +0.193 C 
BRANCH   5   7
ATOM      7  C   LIG    1       24.479 -29.792   9.282  0.00  0.00    +0.129 C 
ATOM      8  C   LIG    1       23.492 -30.468  10.242  0.00  0.00    +0.013 A 
ATOM      9  C   LIG    1       24.138 -30.741  11.471  0.00  0.00    -0.009 A 
ATOM     10  C   LIG    1       23.476 -31.433  12.479  0.00  0.00    +0.009 A 
ATOM     11  C   LIG    1       22.156 -31.820  12.261  0.00  0.00    +0.001 A 
ATOM     12  C   LIG    1       21.494 -31.489  11.070  0.00  0.00    +0.001 A 
ATOM     13  C   LIG    1       25.424 -30.092  11.479  0.00  0.00    -0.009 A 
ATOM     14  C   LIG    1       26.365 -29.987  12.497  0.00  0.00    +0.009 A 
ATOM     15  C   LIG    1       27.432 -29.110  12.321  0.00  0.00    +0.001 A 
ATOM     16  C   LIG    1       27.529 -28.315  11.168  0.00  0.00    +0.001 A 
ATOM     17  C   LIG    1       26.598 -28.449  10.127  0.00  0.00    +0.010 A 
ATOM     18  C   LIG    1       22.160 -30.794  10.053  0.00  0.00    +0.010 A 
ATOM     19  C   LIG    1       25.592 -29.389  10.260  0.00  0.00    +0.013 A 
ENDBRANCH   5   7
ENDBRANCH   3   5
ENDBRANCH   2   3
ENDBRANCH   1   2
BRANCH   1  20
ATOM     20  C   LIG    1       25.846 -26.532   5.469  0.00  0.00    +0.005 C 
BRANCH  20  21
ATOM     21  C   LIG    1       25.485 -25.900   6.812  0.00  0.00    +0.051 C 
BRANCH  21  22
ATOM     22  C   LIG    1       25.789 -24.395   6.912  0.00  0.00    +0.133 C 
BRANCH  22  23
ATOM     23  N   LIG    1       24.653 -23.521   6.317  0.00  0.00    +0.248 N 
ATOM     24  C   LIG    1       23.294 -24.074   6.737  0.00  0.00    +0.193 C 
ATOM     25  C   LIG    1       24.727 -23.535   4.785  0.00  0.00    +0.193 C 
BRANCH  23  26
ATOM     26  C   LIG    1       24.786 -22.001   6.836  0.00  0.00    +0.129 C 
ATOM     27  C   LIG    1       26.228 -21.483   6.830  0.00  0.00    +0.013 A 
ATOM     28  C   LIG    1       26.388 -20.519   5.807  0.00  0.00    -0.009 A 
ATOM     29  C   LIG    1       27.622 -19.949   5.547  0.00  0.00    +0.009 A 
ATOM     30  C   LIG    1       28.708 -20.332   6.337  0.00  0.00    +0.001 A 
ATOM     31  C   LIG    1       28.542 -21.244   7.390  0.00  0.00    +0.001 A 
ATOM     32  C   LIG    1       25.091 -20.216   5.236  0.00  0.00    -0.009 A 
ATOM     33  C   LIG    1       24.740 -19.293   4.267  0.00  0.00    +0.009 A 
ATOM     34  C   LIG    1       23.383 -19.088   4.005  0.00  0.00    +0.001 A 
ATOM     35  C   LIG    1       22.404 -19.770   4.741  0.00  0.00    +0.001 A 
ATOM     36  C   LIG    1       22.760 -20.710   5.711  0.00  0.00    +0.010 A 
ATOM     37  C   LIG    1       27.296 -21.817   7.654  0.00  0.00    +0.010 A 
ATOM     38  C   LIG    1       24.111 -20.975   5.912  0.00  0.00    +0.013 A 
ENDBRANCH  23  26
ENDBRANCH  22  23
ENDBRANCH  21  22
ENDBRANCH  20  21
ENDBRANCH   1  20
TORSDOF 9
ENDMDL
MODEL 8
REMARK VINA RESULT:      -9.6      1.327      9.841
REMARK  Name = *****
REMARK                            x       y       z     vdW  Elec       q    Type
REMARK                         _______ _______ _______ _____ _____    ______ ____
ROOT
ATOM      1  C   LIG    1       26.399 -27.340   7.808  0.00  0.00    +0.005 C 
ENDROOT
BRANCH   1   2
ATOM      2  C   LIG    1       25.600 -28.593   8.160  0.00  0.00    +0.051 C 
BRANCH   2   3
ATOM      3  C   LIG    1       25.780 -29.010   9.637  0.00  0.00    +0.133 C 
BRANCH   3   5
ATOM      4  C   LIG    1       23.575 -30.137   9.330  0.00  0.00    +0.193 C 
ATOM      5  N   LIG    1       24.920 -30.227  10.043  0.00  0.00    +0.248 N 
ATOM      6  C   LIG    1       25.597 -31.543   9.640  0.00  0.00    +0.193 C 
BRANCH   5   7
ATOM      7  C   LIG    1       24.653 -30.229  11.638  0.00  0.00    +0.129 C 
ATOM      8  C   LIG    1       25.761 -29.516  12.424  0.00  0.00    +0.013 A 
ATOM      9  C   LIG    1       25.281 -28.272  12.896  0.00  0.00    -0.009 A 
ATOM     10  C   LIG    1       26.128 -27.395  13.566  0.00  0.00    +0.009 A 
ATOM     11  C   LIG    1       27.446 -27.787  13.786  0.00  0.00    +0.001 A 
ATOM     12  C   LIG    1       27.903 -29.049  13.378  0.00  0.00    +0.001 A 
ATOM     13  C   LIG    1       23.860 -28.201  12.673  0.00  0.00    -0.009 A 
ATOM     14  C   LIG    1       22.942 -27.231  13.057  0.00  0.00    +0.009 A 
ATOM     15  C   LIG    1       21.586 -27.512  12.915  0.00  0.00    +0.001 A 
ATOM     16  C   LIG    1       21.155 -28.762  12.443  0.00  0.00    +0.001 A 
ATOM     17  C   LIG    1       22.082 -29.726  12.022  0.00  0.00    +0.010 A 
ATOM     18  C   LIG    1       27.052 -29.931  12.703  0.00  0.00    +0.010 A 
ATOM     19  C   LIG    1       23.429 -29.411  12.073  0.00  0.00    +0.013 A 
ENDBRANCH   5   7
ENDBRANCH   3   5
ENDBRANCH   2   3
ENDBRANCH   1   2
BRANCH   1  20
ATOM     20  C   LIG    1       25.903 -26.696   6.498  0.00  0.00    +0.005 C 
BRANCH  20  21
ATOM     21  C   LIG    1       24.800 -25.691   6.821  0.00  0.00    +0.051 C 
BRANCH  21  22
ATOM     22  C   LIG    1       25.274 -24.230   6.912  0.00  0.00    +0.133 C 
BRANCH  22  23
ATOM     23  N   LIG    1       24.289 -23.243   6.231  0.00  0.00    +0.248 N 
ATOM     24  C   LIG    1       22.850 -23.626   6.570  0.00  0.00    +0.193 C 
ATOM     25  C   LIG    1       24.457 -23.301   4.708  0.00  0.00    +0.193 C 
BRANCH  23  26
ATOM     26  C   LIG    1       24.565 -21.738   6.735  0.00  0.00    +0.129 C 
ATOM     27  C   LIG    1       26.055 -21.380   6.784  0.00  0.00    +0.013 A 
ATOM     28  C   LIG    1       26.362 -20.458   5.756  0.00  0.00    -0.009 A 
ATOM     29  C   LIG    1       27.660 -20.031   5.540  0.00  0.00    +0.009 A 
ATOM     30  C   LIG    1       28.665 -20.515   6.381  0.00  0.00    +0.001 A 
ATOM     31  C   LIG    1       28.357 -21.385   7.438  0.00  0.00    +0.001 A 
ATOM     32  C   LIG    1       25.130 -20.026   5.126  0.00  0.00    -0.009 A 
ATOM     33  C   LIG    1       24.922 -19.088   4.130  0.00  0.00    +0.009 A 
ATOM     34  C   LIG    1       23.607 -18.741   3.808  0.00  0.00    +0.001 A 
ATOM     35  C   LIG    1       22.530 -19.299   4.510  0.00  0.00    +0.001 A 
ATOM     36  C   LIG    1       22.741 -20.255   5.507  0.00  0.00    +0.010 A 
ATOM     37  C   LIG    1       27.045 -21.814   7.657  0.00  0.00    +0.010 A 
ATOM     38  C   LIG    1       24.045 -20.662   5.770  0.00  0.00    +0.013 A 
ENDBRANCH  23  26
ENDBRANCH  22  23
ENDBRANCH  21  22
ENDBRANCH  20  21
ENDBRANCH   1  20
TORSDOF 9
ENDMDL
MODEL 9
REMARK VINA RESULT:      -9.5      1.218      3.457
REMARK  Name = *****
REMARK                            x       y       z     vdW  Elec       q    Type
REMARK                         _______ _______ _______ _____ _____    ______ ____
ROOT
ATOM      1  C   LIG    1       24.871 -26.503   6.422  0.00  0.00    +0.005 C 
ENDROOT
BRANCH   1   2
ATOM      2  C   LIG    1       25.938 -25.411   6.403  0.00  0.00    +0.051 C 
BRANCH   2   3
ATOM      3  C   LIG    1       25.514 -24.160   7.204  0.00  0.00    +0.133 C 
BRANCH   3   5
ATOM      4  C   LIG    1       24.740 -23.394   4.959  0.00  0.00    +0.193 C 
ATOM      5  N   LIG    1       24.498 -23.266   6.460  0.00  0.00    +0.248 N 
ATOM      6  C   LIG    1       23.057 -23.697   6.759  0.00  0.00    +0.193 C 
BRANCH   5   7
ATOM      7  C   LIG    1       24.692 -21.715   6.877  0.00  0.00    +0.129 C 
ATOM      8  C   LIG    1       26.166 -21.294   6.920  0.00  0.00    +0.013 A 
ATOM      9  C   LIG    1       26.454 -20.464   5.811  0.00  0.00    -0.009 A 
ATOM     10  C   LIG    1       27.751 -20.021   5.577  0.00  0.00    +0.009 A 
ATOM     11  C   LIG    1       28.749 -20.388   6.477  0.00  0.00    +0.001 A 
ATOM     12  C   LIG    1       28.450 -21.154   7.614  0.00  0.00    +0.001 A 
ATOM     13  C   LIG    1       25.221 -20.118   5.152  0.00  0.00    -0.009 A 
ATOM     14  C   LIG    1       24.989 -19.250   4.091  0.00  0.00    +0.009 A 
ATOM     15  C   LIG    1       23.672 -18.917   3.788  0.00  0.00    +0.001 A 
ATOM     16  C   LIG    1       22.608 -19.403   4.565  0.00  0.00    +0.001 A 
ATOM     17  C   LIG    1       22.843 -20.306   5.612  0.00  0.00    +0.010 A 
ATOM     18  C   LIG    1       27.146 -21.602   7.850  0.00  0.00    +0.010 A 
ATOM     19  C   LIG    1       24.143 -20.713   5.852  0.00  0.00    +0.013 A 
ENDBRANCH   5   7
ENDBRANCH   3   5
ENDBRANCH   2   3
ENDBRANCH   1   2
BRANCH   1  20
ATOM     20  C   LIG    1       25.496 -27.911   6.478  0.00  0.00    +0.005 C 
BRANCH  20  21
ATOM     21  C   LIG    1       25.680 -28.319   7.939  0.00  0.00    +0.051 C 
BRANCH  21  22
ATOM     22  C   LIG    1       24.846 -29.539   8.371  0.00  0.00    +0.133 C 
BRANCH  22  23
ATOM     23  N   LIG    1       25.548 -30.377   9.472  0.00  0.00    +0.248 N 
ATOM     24  C   LIG    1       24.835 -30.185  10.808  0.00  0.00    +0.193 C 
ATOM     25  C   LIG    1       27.003 -29.919   9.632  0.00  0.00    +0.193 C 
BRANCH  23  26
ATOM     26  C   LIG    1       25.528 -31.940   9.084  0.00  0.00    +0.129 C 
ATOM     27  C   LIG    1       24.224 -32.644   9.474  0.00  0.00    +0.013 A 
ATOM     28  C   LIG    1       23.480 -32.958   8.313  0.00  0.00    -0.009 A 
ATOM     29  C   LIG    1       22.225 -33.534   8.399  0.00  0.00    +0.009 A 
ATOM     30  C   LIG    1       21.716 -33.824   9.666  0.00  0.00    +0.001 A 
ATOM     31  C   LIG    1       22.474 -33.569  10.819  0.00  0.00    +0.001 A 
ATOM     32  C   LIG    1       24.288 -32.673   7.144  0.00  0.00    -0.009 A 
ATOM     33  C   LIG    1       24.017 -32.882   5.803  0.00  0.00    +0.009 A 
ATOM     34  C   LIG    1       25.039 -32.663   4.876  0.00  0.00    +0.001 A 
ATOM     35  C   LIG    1       26.320 -32.284   5.303  0.00  0.00    +0.001 A 
ATOM     36  C   LIG    1       26.589 -32.062   6.655  0.00  0.00    +0.010 A 
ATOM     37  C   LIG    1       23.742 -32.989  10.731  0.00  0.00    +0.010 A 
ATOM     38  C   LIG    1       25.548 -32.198   7.569  0.00  0.00    +0.013 A 
ENDBRANCH  23  26
ENDBRANCH  22  23
ENDBRANCH  21  22
ENDBRANCH  20  21
ENDBRANCH   1  20
TORSDOF 9
ENDMDL
