MODEL 1
REMARK VINA RESULT:      -7.6      0.000      0.000
REMARK  Name = *****
REMARK                            x       y       z     vdW  Elec       q    Type
REMARK                         _______ _______ _______ _____ _____    ______ ____
ROOT
ATOM      1  N   LIG    1       25.280 -21.151   6.414  0.00  0.00    -0.298 N 
ATOM      2  C   LIG    1       26.692 -20.906   6.467  0.00  0.00    +0.048 A 
ATOM      3  C   LIG    1       27.311 -19.933   5.656  0.00  0.00    +0.034 A 
ATOM      4  C   LIG    1       28.691 -19.649   5.761  0.00  0.00    +0.017 A 
ATOM      5  C   LIG    1       29.497 -20.335   6.660  0.00  0.00    +0.001 A 
ATOM      6  C   LIG    1       28.930 -21.319   7.445  0.00  0.00    +0.002 A 
ATOM      7  S   LIG    1       26.466 -18.988   4.417  0.00  0.00    -0.086 S 
ATOM      8  C   LIG    1       24.783 -19.508   4.620  0.00  0.00    +0.034 A 
ATOM      9  C   LIG    1       23.871 -18.879   3.742  0.00  0.00    +0.017 A 
ATOM     10  C   LIG    1       22.513 -19.176   3.785  0.00  0.00    +0.001 A 
ATOM     11  C   LIG    1       22.059 -20.091   4.710  0.00  0.00    +0.002 A 
ATOM     12  C   LIG    1       22.963 -20.719   5.581  0.00  0.00    +0.024 A 
ATOM     13  C   LIG    1       27.556 -21.603   7.344  0.00  0.00    +0.024 A 
ATOM     14  C   LIG    1       24.357 -20.464   5.559  0.00  0.00    +0.048 A 
ENDROOT
BRANCH   1  15
ATOM     15  C   LIG    1       24.735 -22.212   7.302  0.00  0.00    +0.115 C 
BRANCH  15  17
ATOM     16  C   LIG    1       23.003 -24.065   6.819  0.00  0.00    +0.010 C 
ATOM     17  C   LIG    1       24.423 -23.543   6.566  0.00  0.00    +0.018 C 
BRANCH  17  18
ATOM     18  C   LIG    1       25.484 -24.602   6.978  0.00  0.00    +0.088 C 
BRANCH  18  19
ATOM     19  N   LIG    1       26.081 -25.388   5.881  0.00  0.00    -0.308 NA
ATOM     20  C   LIG    1       25.180 -25.403   4.720  0.00  0.00    +0.104 C 
ATOM     21  C   LIG    1       26.382 -26.765   6.274  0.00  0.00    +0.104 C 
ENDBRANCH  18  19
ENDBRANCH  17  18
ENDBRANCH  15  17
ENDBRANCH   1  15
TORSDOF 4
ENDMDL
MODEL 2
REMARK VINA RESULT:      -7.2      0.893      4.290
REMARK  Name = *****
REMARK                            x       y       z     vdW  Elec       q    Type
REMARK                         _______ _______ _______ _____ _____    ______ ____
ROOT
ATOM      1  N   LIG    1       26.040 -21.262   6.526  0.00  0.00    -0.298 N 
ATOM      2  C   LIG    1       25.297 -20.597   5.495  0.00  0.00    +0.048 A 
ATOM      3  C   LIG    1       25.881 -19.611   4.673  0.00  0.00    +0.034 A 
ATOM      4  C   LIG    1       25.163 -19.008   3.616  0.00  0.00    +0.017 A 
ATOM      5  C   LIG    1       23.844 -19.354   3.357  0.00  0.00    +0.001 A 
ATOM      6  C   LIG    1       23.231 -20.291   4.164  0.00  0.00    +0.002 A 
ATOM      7  S   LIG    1       27.532 -18.998   4.875  0.00  0.00    -0.086 S 
ATOM      8  C   LIG    1       28.161 -20.015   6.185  0.00  0.00    +0.034 A 
ATOM      9  C   LIG    1       29.499 -19.739   6.542  0.00  0.00    +0.017 A 
ATOM     10  C   LIG    1       30.136 -20.457   7.548  0.00  0.00    +0.001 A 
ATOM     11  C   LIG    1       29.444 -21.460   8.192  0.00  0.00    +0.002 A 
ATOM     12  C   LIG    1       28.113 -21.734   7.842  0.00  0.00    +0.024 A 
ATOM     13  C   LIG    1       23.943 -20.895   5.216  0.00  0.00    +0.024 A 
ATOM     14  C   LIG    1       27.417 -21.013   6.839  0.00  0.00    +0.048 A 
ENDROOT
BRANCH   1  15
ATOM     15  C   LIG    1       25.322 -22.275   7.343  0.00  0.00    +0.115 C 
BRANCH  15  17
ATOM     16  C   LIG    1       23.387 -23.899   6.808  0.00  0.00    +0.010 C 
ATOM     17  C   LIG    1       24.844 -23.509   6.529  0.00  0.00    +0.018 C 
BRANCH  17  18
ATOM     18  C   LIG    1       25.802 -24.699   6.817  0.00  0.00    +0.088 C 
BRANCH  18  19
ATOM     19  N   LIG    1       25.345 -26.027   6.363  0.00  0.00    -0.308 NA
ATOM     20  C   LIG    1       26.018 -27.084   7.132  0.00  0.00    +0.104 C 
ATOM     21  C   LIG    1       25.582 -26.247   4.936  0.00  0.00    +0.104 C 
ENDBRANCH  18  19
ENDBRANCH  17  18
ENDBRANCH  15  17
ENDBRANCH   1  15
TORSDOF 4
ENDMDL
MODEL 3
REMARK VINA RESULT:      -6.6      1.902      4.800
REMARK  Name = *****
REMARK                            x       y       z     vdW  Elec       q    Type
REMARK                         _______ _______ _______ _____ _____    ______ ____
ROOT
ATOM      1  N   LIG    1       25.259 -21.382   5.578  0.00  0.00    -0.298 N 
ATOM      2  C   LIG    1       25.034 -22.716   6.052  0.00  0.00    +0.048 A 
ATOM      3  C   LIG    1       23.744 -23.283   6.099  0.00  0.00    +0.034 A 
ATOM      4  C   LIG    1       23.537 -24.621   6.504  0.00  0.00    +0.017 A 
ATOM      5  C   LIG    1       24.601 -25.425   6.889  0.00  0.00    +0.001 A 
ATOM      6  C   LIG    1       25.874 -24.891   6.888  0.00  0.00    +0.002 A 
ATOM      7  S   LIG    1       22.257 -22.406   5.696  0.00  0.00    -0.086 S 
ATOM      8  C   LIG    1       22.875 -20.837   5.147  0.00  0.00    +0.034 A 
ATOM      9  C   LIG    1       21.872 -19.929   4.740  0.00  0.00    +0.017 A 
ATOM     10  C   LIG    1       22.199 -18.659   4.277  0.00  0.00    +0.001 A 
ATOM     11  C   LIG    1       23.526 -18.296   4.207  0.00  0.00    +0.002 A 
ATOM     12  C   LIG    1       24.525 -19.195   4.613  0.00  0.00    +0.024 A 
ATOM     13  C   LIG    1       26.083 -23.560   6.484  0.00  0.00    +0.024 A 
ATOM     14  C   LIG    1       24.237 -20.491   5.112  0.00  0.00    +0.048 A 
ENDROOT
BRANCH   1  15
ATOM     15  C   LIG    1       26.658 -20.878   5.585  0.00  0.00    +0.115 C 
BRANCH  15  17
ATOM     16  C   LIG    1       26.309 -20.340   8.086  0.00  0.00    +0.010 C 
ATOM     17  C   LIG    1       27.289 -20.808   7.003  0.00  0.00    +0.018 C 
BRANCH  17  18
ATOM     18  C   LIG    1       28.538 -19.885   6.948  0.00  0.00    +0.088 C 
BRANCH  18  19
ATOM     19  N   LIG    1       29.348 -19.809   8.180  0.00  0.00    -0.308 NA
ATOM     20  C   LIG    1       30.057 -18.523   8.243  0.00  0.00    +0.104 C 
ATOM     21  C   LIG    1       30.319 -20.899   8.283  0.00  0.00    +0.104 C 
ENDBRANCH  18  19
ENDBRANCH  17  18
ENDBRANCH  15  17
ENDBRANCH   1  15
TORSDOF 4
ENDMDL
MODEL 4
REMARK VINA RESULT:      -6.1      2.421      6.580
REMARK  Name = *****
REMARK                            x       y       z     vdW  Elec       q    Type
REMARK                         _______ _______ _______ _____ _____    ______ ____
ROOT
ATOM      1  N   LIG    1       26.166 -20.139   5.239  0.00  0.00    -0.298 N 
ATOM      2  C   LIG    1       25.187 -20.998   5.840  0.00  0.00    +0.048 A 
ATOM      3  C   LIG    1       25.403 -21.614   7.090  0.00  0.00    +0.034 A 
ATOM      4  C   LIG    1       24.407 -22.405   7.707  0.00  0.00    +0.017 A 
ATOM      5  C   LIG    1       23.180 -22.618   7.096  0.00  0.00    +0.001 A 
ATOM      6  C   LIG    1       22.948 -22.057   5.856  0.00  0.00    +0.002 A 
ATOM      7  S   LIG    1       26.916 -21.504   8.005  0.00  0.00    -0.086 S 
ATOM      8  C   LIG    1       27.879 -20.387   7.020  0.00  0.00    +0.034 A 
ATOM      9  C   LIG    1       29.160 -20.107   7.545  0.00  0.00    +0.017 A 
ATOM     10  C   LIG    1       30.031 -19.242   6.890  0.00  0.00    +0.001 A 
ATOM     11  C   LIG    1       29.622 -18.646   5.717  0.00  0.00    +0.002 A 
ATOM     12  C   LIG    1       28.351 -18.925   5.191  0.00  0.00    +0.024 A 
ATOM     13  C   LIG    1       23.936 -21.269   5.238  0.00  0.00    +0.024 A 
ATOM     14  C   LIG    1       27.440 -19.817   5.812  0.00  0.00    +0.048 A 
ENDROOT
BRANCH   1  15
ATOM     15  C   LIG    1       25.841 -19.553   3.912  0.00  0.00    +0.115 C 
BRANCH  15  17
ATOM     16  C   LIG    1       23.539 -18.444   3.544  0.00  0.00    +0.010 C 
ATOM     17  C   LIG    1       24.992 -18.255   3.994  0.00  0.00    +0.018 C 
BRANCH  17  18
ATOM     18  C   LIG    1       25.693 -17.148   3.157  0.00  0.00    +0.088 C 
BRANCH  18  19
ATOM     19  N   LIG    1       25.938 -15.866   3.847  0.00  0.00    -0.308 NA
ATOM     20  C   LIG    1       24.829 -14.935   3.595  0.00  0.00    +0.104 C 
ATOM     21  C   LIG    1       27.195 -15.238   3.439  0.00  0.00    +0.104 C 
ENDBRANCH  18  19
ENDBRANCH  17  18
ENDBRANCH  15  17
ENDBRANCH   1  15
TORSDOF 4
ENDMDL
MODEL 5
REMARK VINA RESULT:      -6.1      1.895      5.724
REMARK  Name = *****
REMARK                            x       y       z     vdW  Elec       q    Type
REMARK                         _______ _______ _______ _____ _____    ______ ____
ROOT
ATOM      1  N   LIG    1       25.236 -21.300   5.553  0.00  0.00    -0.298 N 
ATOM      2  C   LIG    1       24.211 -20.411   5.088  0.00  0.00    +0.048 A 
ATOM      3  C   LIG    1       22.850 -20.779   5.083  0.00  0.00    +0.034 A 
ATOM      4  C   LIG    1       21.839 -19.875   4.687  0.00  0.00    +0.017 A 
ATOM      5  C   LIG    1       22.153 -18.589   4.270  0.00  0.00    +0.001 A 
ATOM      6  C   LIG    1       23.478 -18.206   4.230  0.00  0.00    +0.002 A 
ATOM      7  S   LIG    1       22.254 -22.386   5.532  0.00  0.00    -0.086 S 
ATOM      8  C   LIG    1       23.733 -23.211   6.058  0.00  0.00    +0.034 A 
ATOM      9  C   LIG    1       23.533 -24.540   6.495  0.00  0.00    +0.017 A 
ATOM     10  C   LIG    1       24.597 -25.315   6.946  0.00  0.00    +0.001 A 
ATOM     11  C   LIG    1       25.859 -24.764   6.973  0.00  0.00    +0.002 A 
ATOM     12  C   LIG    1       26.062 -23.445   6.537  0.00  0.00    +0.024 A 
ATOM     13  C   LIG    1       24.487 -19.103   4.624  0.00  0.00    +0.024 A 
ATOM     14  C   LIG    1       25.012 -22.626   6.049  0.00  0.00    +0.048 A 
ENDROOT
BRANCH   1  15
ATOM     15  C   LIG    1       26.641 -20.814   5.500  0.00  0.00    +0.115 C 
BRANCH  15  17
ATOM     16  C   LIG    1       26.430 -20.310   8.023  0.00  0.00    +0.010 C 
ATOM     17  C   LIG    1       27.342 -20.782   6.885  0.00  0.00    +0.018 C 
BRANCH  17  18
ATOM     18  C   LIG    1       28.609 -19.887   6.782  0.00  0.00    +0.088 C 
BRANCH  18  19
ATOM     19  N   LIG    1       29.384 -19.708   8.026  0.00  0.00    -0.308 NA
ATOM     20  C   LIG    1       30.142 -18.450   7.973  0.00  0.00    +0.104 C 
ATOM     21  C   LIG    1       30.308 -20.815   8.278  0.00  0.00    +0.104 C 
ENDBRANCH  18  19
ENDBRANCH  17  18
ENDBRANCH  15  17
ENDBRANCH   1  15
TORSDOF 4
ENDMDL
MODEL 6
REMARK VINA RESULT:      -6.0      1.844      4.942
REMARK  Name = *****
REMARK                            x       y       z     vdW  Elec       q    Type
REMARK                         _______ _______ _______ _____ _____    ______ ____
ROOT
ATOM      1  N   LIG    1       27.448 -20.642   6.271  0.00  0.00    -0.298 N 
ATOM      2  C   LIG    1       26.833 -19.815   5.273  0.00  0.00    +0.048 A 
ATOM      3  C   LIG    1       27.483 -18.684   4.738  0.00  0.00    +0.034 A 
ATOM      4  C   LIG    1       26.899 -17.913   3.707  0.00  0.00    +0.017 A 
ATOM      5  C   LIG    1       25.650 -18.233   3.193  0.00  0.00    +0.001 A 
ATOM      6  C   LIG    1       24.971 -19.315   3.718  0.00  0.00    +0.002 A 
ATOM      7  S   LIG    1       29.055 -18.085   5.294  0.00  0.00    -0.086 S 
ATOM      8  C   LIG    1       29.533 -19.310   6.484  0.00  0.00    +0.034 A 
ATOM      9  C   LIG    1       30.790 -19.077   7.084  0.00  0.00    +0.017 A 
ATOM     10  C   LIG    1       31.307 -19.953   8.032  0.00  0.00    +0.001 A 
ATOM     11  C   LIG    1       30.577 -21.070   8.375  0.00  0.00    +0.002 A 
ATOM     12  C   LIG    1       29.326 -21.303   7.783  0.00  0.00    +0.024 A 
ATOM     13  C   LIG    1       25.549 -20.085   4.743  0.00  0.00    +0.024 A 
ATOM     14  C   LIG    1       28.750 -20.426   6.829  0.00  0.00    +0.048 A 
ENDROOT
BRANCH   1  15
ATOM     15  C   LIG    1       26.667 -21.802   6.776  0.00  0.00    +0.115 C 
BRANCH  15  17
ATOM     16  C   LIG    1       25.743 -20.697   8.919  0.00  0.00    +0.010 C 
ATOM     17  C   LIG    1       25.411 -21.399   7.597  0.00  0.00    +0.018 C 
BRANCH  17  18
ATOM     18  C   LIG    1       24.548 -22.668   7.843  0.00  0.00    +0.088 C 
BRANCH  18  19
ATOM     19  N   LIG    1       24.009 -23.333   6.641  0.00  0.00    -0.308 NA
ATOM     20  C   LIG    1       22.540 -23.324   6.673  0.00  0.00    +0.104 C 
ATOM     21  C   LIG    1       24.479 -24.712   6.503  0.00  0.00    +0.104 C 
ENDBRANCH  18  19
ENDBRANCH  17  18
ENDBRANCH  15  17
ENDBRANCH   1  15
TORSDOF 4
ENDMDL
MODEL 7
REMARK VINA RESULT:      -6.0      2.022      3.106
REMARK  Name = *****
REMARK                            x       y       z     vdW  Elec       q    Type
REMARK                         _______ _______ _______ _____ _____    ______ ____
ROOT
ATOM      1  N   LIG    1       27.519 -20.594   6.287  0.00  0.00    -0.298 N 
ATOM      2  C   LIG    1       28.806 -20.402   6.890  0.00  0.00    +0.048 A 
ATOM      3  C   LIG    1       29.630 -19.309   6.555  0.00  0.00    +0.034 A 
ATOM      4  C   LIG    1       30.868 -19.089   7.203  0.00  0.00    +0.017 A 
ATOM      5  C   LIG    1       31.326 -19.956   8.184  0.00  0.00    +0.001 A 
ATOM      6  C   LIG    1       30.559 -21.056   8.512  0.00  0.00    +0.002 A 
ATOM      7  S   LIG    1       29.246 -18.122   5.297  0.00  0.00    -0.086 S 
ATOM      8  C   LIG    1       27.626 -18.623   4.778  0.00  0.00    +0.034 A 
ATOM      9  C   LIG    1       27.064 -17.814   3.767  0.00  0.00    +0.017 A 
ATOM     10  C   LIG    1       25.795 -18.076   3.260  0.00  0.00    +0.001 A 
ATOM     11  C   LIG    1       25.080 -19.137   3.769  0.00  0.00    +0.002 A 
ATOM     12  C   LIG    1       25.637 -19.946   4.772  0.00  0.00    +0.024 A 
ATOM     13  C   LIG    1       29.327 -21.277   7.871  0.00  0.00    +0.024 A 
ATOM     14  C   LIG    1       26.935 -19.730   5.302  0.00  0.00    +0.048 A 
ENDROOT
BRANCH   1  15
ATOM     15  C   LIG    1       26.738 -21.789   6.701  0.00  0.00    +0.115 C 
BRANCH  15  17
ATOM     16  C   LIG    1       25.758 -20.665   8.809  0.00  0.00    +0.010 C 
ATOM     17  C   LIG    1       25.465 -21.449   7.524  0.00  0.00    +0.018 C 
BRANCH  17  18
ATOM     18  C   LIG    1       24.707 -22.769   7.840  0.00  0.00    +0.088 C 
BRANCH  18  19
ATOM     19  N   LIG    1       23.380 -22.924   7.213  0.00  0.00    -0.308 NA
ATOM     20  C   LIG    1       23.298 -24.215   6.515  0.00  0.00    +0.104 C 
ATOM     21  C   LIG    1       23.073 -21.848   6.270  0.00  0.00    +0.104 C 
ENDBRANCH  18  19
ENDBRANCH  17  18
ENDBRANCH  15  17
ENDBRANCH   1  15
TORSDOF 4
ENDMDL
MODEL 8
REMARK VINA RESULT:      -6.0      2.434      5.536
REMARK  Name = *****
REMARK                            x       y       z     vdW  Elec       q    Type
REMARK                         _______ _______ _______ _____ _____    ______ ____
ROOT
ATOM      1  N   LIG    1       26.127 -20.131   5.215  0.00  0.00    -0.298 N 
ATOM      2  C   LIG    1       27.380 -19.788   5.823  0.00  0.00    +0.048 A 
ATOM      3  C   LIG    1       27.758 -20.290   7.085  0.00  0.00    +0.034 A 
ATOM      4  C   LIG    1       29.022 -20.002   7.648  0.00  0.00    +0.017 A 
ATOM      5  C   LIG    1       29.935 -19.197   6.984  0.00  0.00    +0.001 A 
ATOM      6  C   LIG    1       29.584 -18.661   5.761  0.00  0.00    +0.002 A 
ATOM      7  S   LIG    1       26.716 -21.293   8.109  0.00  0.00    -0.086 S 
ATOM      8  C   LIG    1       25.291 -21.538   7.083  0.00  0.00    +0.034 A 
ATOM      9  C   LIG    1       24.284 -22.338   7.668  0.00  0.00    +0.017 A 
ATOM     10  C   LIG    1       23.108 -22.627   6.983  0.00  0.00    +0.001 A 
ATOM     11  C   LIG    1       22.939 -22.129   5.710  0.00  0.00    +0.002 A 
ATOM     12  C   LIG    1       23.936 -21.331   5.126  0.00  0.00    +0.024 A 
ATOM     13  C   LIG    1       28.328 -18.946   5.197  0.00  0.00    +0.024 A 
ATOM     14  C   LIG    1       25.139 -20.993   5.795  0.00  0.00    +0.048 A 
ENDROOT
BRANCH   1  15
ATOM     15  C   LIG    1       25.823 -19.533   3.888  0.00  0.00    +0.115 C 
BRANCH  15  17
ATOM     16  C   LIG    1       23.542 -18.384   3.512  0.00  0.00    +0.010 C 
ATOM     17  C   LIG    1       24.996 -18.221   3.969  0.00  0.00    +0.018 C 
BRANCH  17  18
ATOM     18  C   LIG    1       25.719 -17.124   3.138  0.00  0.00    +0.088 C 
BRANCH  18  19
ATOM     19  N   LIG    1       25.954 -15.837   3.823  0.00  0.00    -0.308 NA
ATOM     20  C   LIG    1       24.757 -14.988   3.730  0.00  0.00    +0.104 C 
ATOM     21  C   LIG    1       27.101 -15.110   3.277  0.00  0.00    +0.104 C 
ENDBRANCH  18  19
ENDBRANCH  17  18
ENDBRANCH  15  17
ENDBRANCH   1  15
TORSDOF 4
ENDMDL
MODEL 9
REMARK VINA RESULT:      -5.6      1.934      4.832
REMARK  Name = *****
REMARK                            x       y       z     vdW  Elec       q    Type
REMARK                         _______ _______ _______ _____ _____    ______ ____
ROOT
ATOM      1  N   LIG    1       26.083 -21.367   5.703  0.00  0.00    -0.298 N 
ATOM      2  C   LIG    1       25.457 -22.583   6.133  0.00  0.00    +0.048 A 
ATOM      3  C   LIG    1       24.112 -22.878   5.827  0.00  0.00    +0.034 A 
ATOM      4  C   LIG    1       23.521 -24.107   6.195  0.00  0.00    +0.017 A 
ATOM      5  C   LIG    1       24.241 -25.069   6.890  0.00  0.00    +0.001 A 
ATOM      6  C   LIG    1       25.550 -24.799   7.236  0.00  0.00    +0.002 A 
ATOM      7  S   LIG    1       23.016 -21.764   4.992  0.00  0.00    -0.086 S 
ATOM      8  C   LIG    1       24.081 -20.402   4.596  0.00  0.00    +0.034 A 
ATOM      9  C   LIG    1       23.446 -19.353   3.895  0.00  0.00    +0.017 A 
ATOM     10  C   LIG    1       24.151 -18.219   3.507  0.00  0.00    +0.001 A 
ATOM     11  C   LIG    1       25.493 -18.133   3.807  0.00  0.00    +0.002 A 
ATOM     12  C   LIG    1       26.126 -19.172   4.506  0.00  0.00    +0.024 A 
ATOM     13  C   LIG    1       26.142 -23.577   6.870  0.00  0.00    +0.024 A 
ATOM     14  C   LIG    1       25.442 -20.336   4.941  0.00  0.00    +0.048 A 
ENDROOT
BRANCH   1  15
ATOM     15  C   LIG    1       27.502 -21.151   6.094  0.00  0.00    +0.115 C 
BRANCH  15  17
ATOM     16  C   LIG    1       26.418 -20.335   8.291  0.00  0.00    +0.010 C 
ATOM     17  C   LIG    1       27.692 -20.840   7.604  0.00  0.00    +0.018 C 
BRANCH  17  18
ATOM     18  C   LIG    1       28.851 -19.815   7.760  0.00  0.00    +0.088 C 
BRANCH  18  19
ATOM     19  N   LIG    1       30.209 -20.317   7.469  0.00  0.00    -0.308 NA
ATOM     20  C   LIG    1       30.742 -21.037   8.634  0.00  0.00    +0.104 C 
ATOM     21  C   LIG    1       31.137 -19.248   7.099  0.00  0.00    +0.104 C 
ENDBRANCH  18  19
ENDBRANCH  17  18
ENDBRANCH  15  17
ENDBRANCH   1  15
TORSDOF 4
ENDMDL
