MODEL 1
REMARK VINA RESULT:      -7.7      0.000      0.000
REMARK  Name = *****
REMARK                            x       y       z     vdW  Elec       q    Type
REMARK                         _______ _______ _______ _____ _____    ______ ____
ROOT
ATOM      1  C   LIG    1       25.004 -28.548   6.628  0.00  0.00    +0.167 A 
ATOM      2  S   LIG    1       24.760 -29.070   8.214  0.00  0.00    -0.037 S 
ATOM      3  C   LIG    1       25.093 -30.714   7.736  0.00  0.00    +0.098 A 
ATOM      4  C   LIG    1       25.500 -30.676   6.394  0.00  0.00    +0.108 A 
ATOM      5  N   LIG    1       25.345 -29.458   5.757  0.00  0.00    -0.222 NA
ENDROOT
BRANCH   3   6
ATOM      6  N   LIG    1       24.892 -31.788   8.595  0.00  0.00    -0.320 N 
ATOM      7  C   LIG    1       23.468 -31.984   8.997  0.00  0.00    +0.121 C 
ATOM      8  C   LIG    1       23.264 -33.178   9.970  0.00  0.00    +0.103 C 
ATOM      9  N   LIG    1       24.175 -33.254  11.144  0.00  0.00    -0.296 NA
ATOM     10  C   LIG    1       25.549 -33.174  10.584  0.00  0.00    +0.103 C 
ATOM     11  C   LIG    1       25.824 -31.911   9.740  0.00  0.00    +0.121 C 
BRANCH   9  12
ATOM     12  C   LIG    1       23.902 -32.258  12.215  0.00  0.00    +0.057 C 
ATOM     13  C   LIG    1       22.507 -32.410  12.878  0.00  0.00    +0.019 C 
ATOM     14  C   LIG    1       22.359 -33.699  13.688  0.00  0.00    +0.002 C 
ATOM     15  C   LIG    1       23.439 -33.822  14.759  0.00  0.00    +0.000 C 
ATOM     16  C   LIG    1       24.836 -33.629  14.179  0.00  0.00    +0.002 C 
ATOM     17  C   LIG    1       24.931 -32.327  13.379  0.00  0.00    +0.019 C 
ENDBRANCH   9  12
ENDBRANCH   3   6
BRANCH   4  18
ATOM     18  C   LIG    1       26.072 -31.816   5.599  0.00  0.00    +0.041 A 
ATOM     19  S   LIG    1       27.058 -33.056   6.232  0.00  0.00    -0.094 S 
ATOM     20  C   LIG    1       27.208 -33.806   4.704  0.00  0.00    +0.065 A 
ATOM     21  C   LIG    1       26.511 -33.130   3.730  0.00  0.00    +0.049 A 
ATOM     22 CL   LIG    1       26.368 -33.641   2.105  0.00  0.00    -0.083 Cl
ATOM     23  C   LIG    1       25.902 -31.945   4.232  0.00  0.00    +0.037 A 
ENDBRANCH   4  18
BRANCH   1  25
ATOM     24  C   LIG    1       25.858 -26.334   6.376  0.00  0.00    +0.251 C 
ATOM     25  N   LIG    1       24.807 -27.208   6.438  0.00  0.00    -0.261 N 
ATOM     26  H   LIG    1       23.845 -26.921   6.347  0.00  0.00    +0.157 HD
ATOM     27  O   LIG    1       27.055 -26.601   6.439  0.00  0.00    -0.270 OA
BRANCH  24  32
ATOM     28  C   LIG    1       24.854 -22.257   5.671  0.00  0.00    +0.140 A 
ATOM     29  C   LIG    1       25.574 -22.598   6.836  0.00  0.00    +0.082 A 
ATOM     30 CL   LIG    1       26.317 -21.471   7.926  0.00  0.00    -0.080 Cl
ATOM     31  C   LIG    1       25.864 -23.931   7.117  0.00  0.00    +0.038 A 
ATOM     32  C   LIG    1       25.492 -24.917   6.213  0.00  0.00    +0.057 A 
ATOM     33  C   LIG    1       24.774 -24.528   5.096  0.00  0.00    +0.126 A 
ATOM     34  N   LIG    1       24.465 -23.239   4.816  0.00  0.00    -0.238 NA
BRANCH  28  38
ATOM     35  C   LIG    1       23.263 -19.110   3.570  0.00  0.00    +0.101 C 
ATOM     36  C   LIG    1       24.635 -19.725   3.249  0.00  0.00    +0.033 C 
ATOM     37  C   LIG    1       25.401 -20.106   4.518  0.00  0.00    +0.107 C 
ATOM     38  N   LIG    1       24.534 -20.972   5.299  0.00  0.00    -0.314 N 
ATOM     39  C   LIG    1       23.331 -20.328   5.816  0.00  0.00    +0.107 C 
ATOM     40  C   LIG    1       22.476 -19.934   4.603  0.00  0.00    +0.033 C 
BRANCH  35  42
ATOM     41  O   LIG    1       24.410 -16.984   3.864  0.00  0.00    -0.251 OA
ATOM     42  C   LIG    1       23.420 -17.671   4.033  0.00  0.00    +0.308 C 
BRANCH  42  43
ATOM     43  O   LIG    1       22.332 -17.200   4.683  0.00  0.00    -0.480 OA
ATOM     44  H   LIG    1       21.478 -17.482   4.307  0.00  0.00    +0.295 HD
ENDBRANCH  42  43
ENDBRANCH  35  42
ENDBRANCH  28  38
ENDBRANCH  24  32
ENDBRANCH   1  25
TORSDOF 8
ENDMDL
MODEL 2
REMARK VINA RESULT:      -4.8      4.980     12.709
REMARK  Name = *****
REMARK                            x       y       z     vdW  Elec       q    Type
REMARK                         _______ _______ _______ _____ _____    ______ ____
ROOT
ATOM      1  C   LIG    1       25.875 -23.282   6.710  0.00  0.00    +0.167 A 
ATOM      2  S   LIG    1       27.254 -22.608   7.411  0.00  0.00    -0.037 S 
ATOM      3  C   LIG    1       27.056 -21.168   6.448  0.00  0.00    +0.098 A 
ATOM      4  C   LIG    1       25.839 -21.300   5.762  0.00  0.00    +0.108 A 
ATOM      5  N   LIG    1       25.238 -22.543   5.844  0.00  0.00    -0.222 NA
ENDROOT
BRANCH   3   6
ATOM      6  N   LIG    1       28.024 -20.172   6.399  0.00  0.00    -0.320 N 
ATOM      7  C   LIG    1       29.413 -20.687   6.222  0.00  0.00    +0.121 C 
ATOM      8  C   LIG    1       30.484 -19.561   6.187  0.00  0.00    +0.103 C 
ATOM      9  N   LIG    1       30.419 -18.535   7.262  0.00  0.00    -0.296 NA
ATOM     10  C   LIG    1       29.022 -18.026   7.239  0.00  0.00    +0.103 C 
ATOM     11  C   LIG    1       27.942 -19.111   7.430  0.00  0.00    +0.121 C 
BRANCH   9  12
ATOM     12  C   LIG    1       30.866 -19.001   8.602  0.00  0.00    +0.057 C 
ATOM     13  C   LIG    1       32.301 -18.545   8.982  0.00  0.00    +0.019 C 
ATOM     14  C   LIG    1       32.421 -17.033   9.187  0.00  0.00    +0.002 C 
ATOM     15  C   LIG    1       31.437 -16.524  10.237  0.00  0.00    +0.000 C 
ATOM     16  C   LIG    1       30.012 -16.984   9.949  0.00  0.00    +0.002 C 
ATOM     17  C   LIG    1       29.947 -18.501   9.753  0.00  0.00    +0.019 C 
ENDBRANCH   9  12
ENDBRANCH   3   6
BRANCH   4  18
ATOM     18  C   LIG    1       25.146 -20.237   4.956  0.00  0.00    +0.041 A 
ATOM     19  S   LIG    1       25.910 -19.205   3.831  0.00  0.00    -0.094 S 
ATOM     20  C   LIG    1       24.443 -18.405   3.472  0.00  0.00    +0.065 A 
ATOM     21  C   LIG    1       23.387 -18.921   4.188  0.00  0.00    +0.049 A 
ATOM     22 CL   LIG    1       21.762 -18.422   4.018  0.00  0.00    -0.083 Cl
ATOM     23  C   LIG    1       23.801 -19.940   5.091  0.00  0.00    +0.037 A 
ENDBRANCH   4  18
BRANCH   1  25
ATOM     24  C   LIG    1       25.960 -25.649   6.415  0.00  0.00    +0.251 C 
ATOM     25  N   LIG    1       25.585 -24.548   7.137  0.00  0.00    -0.261 N 
ATOM     26  H   LIG    1       25.084 -24.606   8.009  0.00  0.00    +0.157 HD
ATOM     27  O   LIG    1       26.601 -25.669   5.367  0.00  0.00    -0.270 OA
BRANCH  24  32
ATOM     28  C   LIG    1       24.521 -29.311   8.040  0.00  0.00    +0.140 A 
ATOM     29  C   LIG    1       25.745 -28.784   8.505  0.00  0.00    +0.082 A 
ATOM     30 CL   LIG    1       26.635 -29.367   9.875  0.00  0.00    -0.080 Cl
ATOM     31  C   LIG    1       26.264 -27.617   7.948  0.00  0.00    +0.038 A 
ATOM     32  C   LIG    1       25.540 -26.944   6.973  0.00  0.00    +0.057 A 
ATOM     33  C   LIG    1       24.356 -27.514   6.543  0.00  0.00    +0.126 A 
ATOM     34  N   LIG    1       23.844 -28.659   7.058  0.00  0.00    -0.238 NA
BRANCH  28  38
ATOM     35  C   LIG    1       23.906 -32.745  10.203  0.00  0.00    +0.101 C 
ATOM     36  C   LIG    1       24.591 -32.732   8.826  0.00  0.00    +0.033 C 
ATOM     37  C   LIG    1       23.930 -31.736   7.870  0.00  0.00    +0.107 C 
ATOM     38  N   LIG    1       23.920 -30.444   8.535  0.00  0.00    -0.314 N 
ATOM     39  C   LIG    1       23.076 -30.375   9.724  0.00  0.00    +0.107 C 
ATOM     40  C   LIG    1       23.683 -31.329  10.762  0.00  0.00    +0.033 C 
BRANCH  35  42
ATOM     41  O   LIG    1       22.015 -33.825   9.116  0.00  0.00    -0.251 OA
ATOM     42  C   LIG    1       22.596 -33.513  10.140  0.00  0.00    +0.308 C 
BRANCH  42  43
ATOM     43  O   LIG    1       22.103 -33.825  11.359  0.00  0.00    -0.480 OA
ATOM     44  H   LIG    1       22.641 -33.512  12.109  0.00  0.00    +0.295 HD
ENDBRANCH  42  43
ENDBRANCH  35  42
ENDBRANCH  28  38
ENDBRANCH  24  32
ENDBRANCH   1  25
TORSDOF 8
ENDMDL
MODEL 3
REMARK VINA RESULT:      -4.7      2.557      3.253
REMARK  Name = *****
REMARK                            x       y       z     vdW  Elec       q    Type
REMARK                         _______ _______ _______ _____ _____    ______ ____
ROOT
ATOM      1  C   LIG    1       25.204 -28.604   7.222  0.00  0.00    +0.167 A 
ATOM      2  S   LIG    1       24.958 -29.231   8.769  0.00  0.00    -0.037 S 
ATOM      3  C   LIG    1       24.464 -30.758   8.086  0.00  0.00    +0.098 A 
ATOM      4  C   LIG    1       24.672 -30.672   6.701  0.00  0.00    +0.108 A 
ATOM      5  N   LIG    1       24.993 -29.415   6.221  0.00  0.00    -0.222 NA
ENDROOT
BRANCH   3   6
ATOM      6  N   LIG    1       23.919 -31.773   8.862  0.00  0.00    -0.320 N 
ATOM      7  C   LIG    1       22.477 -31.574   9.194  0.00  0.00    +0.121 C 
ATOM      8  C   LIG    1       21.889 -32.710  10.076  0.00  0.00    +0.103 C 
ATOM      9  N   LIG    1       22.672 -33.105  11.278  0.00  0.00    -0.296 NA
ATOM     10  C   LIG    1       24.043 -33.391  10.779  0.00  0.00    +0.103 C 
ATOM     11  C   LIG    1       24.711 -32.217  10.033  0.00  0.00    +0.121 C 
BRANCH   9  12
ATOM     12  C   LIG    1       22.633 -32.130  12.401  0.00  0.00    +0.057 C 
ATOM     13  C   LIG    1       21.219 -31.558  12.691  0.00  0.00    +0.019 C 
ATOM     14  C   LIG    1       20.242 -32.605  13.230  0.00  0.00    +0.002 C 
ATOM     15  C   LIG    1       20.776 -33.284  14.488  0.00  0.00    +0.000 C 
ATOM     16  C   LIG    1       22.188 -33.823  14.284  0.00  0.00    +0.002 C 
ATOM     17  C   LIG    1       23.125 -32.738  13.745  0.00  0.00    +0.019 C 
ENDBRANCH   9  12
ENDBRANCH   3   6
BRANCH   4  18
ATOM     18  C   LIG    1       24.573 -31.797   5.709  0.00  0.00    +0.041 A 
ATOM     19  S   LIG    1       23.334 -32.971   5.679  0.00  0.00    -0.094 S 
ATOM     20  C   LIG    1       24.028 -33.761   4.332  0.00  0.00    +0.065 A 
ATOM     21  C   LIG    1       25.177 -33.137   3.905  0.00  0.00    +0.049 A 
ATOM     22 CL   LIG    1       26.084 -33.603   2.534  0.00  0.00    -0.083 Cl
ATOM     23  C   LIG    1       25.527 -32.036   4.736  0.00  0.00    +0.037 A 
ENDBRANCH   4  18
BRANCH   1  25
ATOM     24  C   LIG    1       24.794 -26.316   6.682  0.00  0.00    +0.251 C 
ATOM     25  N   LIG    1       25.599 -27.296   7.198  0.00  0.00    -0.261 N 
ATOM     26  H   LIG    1       26.511 -27.112   7.585  0.00  0.00    +0.157 HD
ATOM     27  O   LIG    1       23.660 -26.446   6.228  0.00  0.00    -0.270 OA
BRANCH  24  32
ATOM     28  C   LIG    1       26.643 -22.483   6.808  0.00  0.00    +0.140 A 
ATOM     29  C   LIG    1       25.248 -22.582   7.002  0.00  0.00    +0.082 A 
ATOM     30 CL   LIG    1       24.212 -21.297   7.533  0.00  0.00    -0.080 Cl
ATOM     31  C   LIG    1       24.612 -23.819   6.909  0.00  0.00    +0.038 A 
ATOM     32  C   LIG    1       25.369 -24.961   6.683  0.00  0.00    +0.057 A 
ATOM     33  C   LIG    1       26.729 -24.803   6.484  0.00  0.00    +0.126 A 
ATOM     34  N   LIG    1       27.362 -23.607   6.550  0.00  0.00    -0.238 NA
BRANCH  28  38
ATOM     35  C   LIG    1       29.775 -19.835   6.652  0.00  0.00    +0.101 C 
ATOM     36  C   LIG    1       29.451 -20.679   7.895  0.00  0.00    +0.033 C 
ATOM     37  C   LIG    1       27.943 -20.800   8.126  0.00  0.00    +0.107 C 
ATOM     38  N   LIG    1       27.361 -21.314   6.896  0.00  0.00    -0.314 N 
ATOM     39  C   LIG    1       27.453 -20.412   5.753  0.00  0.00    +0.107 C 
ATOM     40  C   LIG    1       28.945 -20.252   5.426  0.00  0.00    +0.033 C 
BRANCH  35  42
ATOM     41  O   LIG    1       29.677 -17.848   8.052  0.00  0.00    -0.251 OA
ATOM     42  C   LIG    1       29.595 -18.356   6.949  0.00  0.00    +0.308 C 
BRANCH  42  43
ATOM     43  O   LIG    1       29.315 -17.623   5.848  0.00  0.00    -0.480 OA
ATOM     44  H   LIG    1       29.224 -16.665   6.007  0.00  0.00    +0.295 HD
ENDBRANCH  42  43
ENDBRANCH  35  42
ENDBRANCH  28  38
ENDBRANCH  24  32
ENDBRANCH   1  25
TORSDOF 8
ENDMDL
