MODEL 1
REMARK VINA RESULT:       4.8      0.000      0.000
REMARK  Name = *****
REMARK                            x       y       z     vdW  Elec       q    Type
REMARK                         _______ _______ _______ _____ _____    ______ ____
ROOT
ATOM      1  C   LIG    1       25.170 -14.090   5.511  0.00  0.00    +0.015 C 
ATOM      2  C   LIG    1       24.935 -14.250   3.999  0.00  0.00    +0.013 C 
ATOM      3  C   LIG    1       25.379 -12.966   3.216  0.00  0.00    +0.168 C 
ATOM      4  C   LIG    1       24.646 -13.064   1.875  0.00  0.00    +0.047 C 
ATOM      5  C   LIG    1       23.394 -13.906   2.148  0.00  0.00    +0.008 C 
ATOM      6  C   LIG    1       23.426 -14.295   3.644  0.00  0.00    +0.002 C 
ATOM      7  C   LIG    1       22.679 -15.620   3.924  0.00  0.00    -0.000 C 
ATOM      8  C   LIG    1       22.146 -15.705   5.376  0.00  0.00    +0.008 C 
ATOM      9  C   LIG    1       22.460 -16.969   6.190  0.00  0.00    +0.032 C 
ATOM     10  C   LIG    1       22.720 -18.242   5.424  0.00  0.00    -0.056 C 
ATOM     11  C   LIG    1       22.670 -18.184   3.905  0.00  0.00    +0.013 C 
ATOM     12  C   LIG    1       21.190 -18.182   3.443  0.00  0.00    +0.020 C 
ATOM     13  C   LIG    1       23.260 -19.429   3.260  0.00  0.00    -0.012 C 
ATOM     14  C   LIG    1       23.661 -20.516   3.932  0.00  0.00    +0.047 C 
ATOM     15  C   LIG    1       23.571 -20.565   5.404  0.00  0.00    +0.179 C 
ATOM     16  O   LIG    1       23.878 -21.572   6.028  0.00  0.00    -0.288 OA
ATOM     17  C   LIG    1       23.123 -19.337   6.097  0.00  0.00    +0.051 C 
ATOM     18  C   LIG    1       23.434 -16.887   3.451  0.00  0.00    +0.035 C 
ATOM     19  C   LIG    1       24.924 -16.840   3.892  0.00  0.00    +0.120 C 
ATOM     20  C   LIG    1       25.625 -15.537   3.500  0.00  0.00    +0.042 C 
ENDROOT
BRANCH   3  21
ATOM     21  O   LIG    1       24.830 -11.814   3.889  0.00  0.00    -0.377 OA
ATOM     22  H   LIG    1       23.944 -12.068   4.213  0.00  0.00    +0.211 HD
ENDBRANCH   3  21
BRANCH   3  23
ATOM     23  C   LIG    1       26.902 -12.743   3.042  0.00  0.00    +0.341 C 
ATOM     24  O   LIG    1       27.369 -11.797   2.422  0.00  0.00    -0.247 OA
BRANCH  23  25
ATOM     25  O   LIG    1       27.636 -13.739   3.604  0.00  0.00    -0.447 OA
BRANCH  25  26
ATOM     26  C   LIG    1       28.922 -13.344   4.084  0.00  0.00    +0.340 C 
ATOM     27 CL   LIG    1       28.742 -12.204   5.430  0.00  0.00    -0.081 Cl
ENDBRANCH  25  26
ENDBRANCH  23  25
ENDBRANCH   3  23
BRANCH  19  28
ATOM     28  O   LIG    1       25.677 -17.895   3.290  0.00  0.00    -0.391 OA
ATOM     29  H   LIG    1       25.958 -18.510   3.988  0.00  0.00    +0.210 HD
ENDBRANCH  19  28
TORSDOF 5
ENDMDL
MODEL 2
REMARK VINA RESULT:       5.4      2.836      7.014
REMARK  Name = *****
REMARK                            x       y       z     vdW  Elec       q    Type
REMARK                         _______ _______ _______ _____ _____    ______ ____
ROOT
ATOM      1  C   LIG    1       25.778 -18.986   5.847  0.00  0.00    +0.015 C 
ATOM      2  C   LIG    1       25.039 -19.025   4.497  0.00  0.00    +0.013 C 
ATOM      3  C   LIG    1       24.648 -20.493   4.106  0.00  0.00    +0.168 C 
ATOM      4  C   LIG    1       24.405 -20.434   2.596  0.00  0.00    +0.047 C 
ATOM      5  C   LIG    1       25.252 -19.262   2.086  0.00  0.00    +0.008 C 
ATOM      6  C   LIG    1       25.966 -18.651   3.313  0.00  0.00    +0.002 C 
ATOM      7  C   LIG    1       26.285 -17.149   3.120  0.00  0.00    -0.000 C 
ATOM      8  C   LIG    1       27.497 -16.687   3.968  0.00  0.00    +0.008 C 
ATOM      9  C   LIG    1       27.336 -15.430   4.836  0.00  0.00    +0.032 C 
ATOM     10  C   LIG    1       26.307 -14.415   4.404  0.00  0.00    -0.056 C 
ATOM     11  C   LIG    1       25.491 -14.712   3.156  0.00  0.00    +0.013 C 
ATOM     12  C   LIG    1       26.349 -14.407   1.902  0.00  0.00    +0.020 C 
ATOM     13  C   LIG    1       24.289 -13.788   3.018  0.00  0.00    -0.012 C 
ATOM     14  C   LIG    1       24.036 -12.746   3.821  0.00  0.00    +0.047 C 
ATOM     15  C   LIG    1       24.934 -12.430   4.948  0.00  0.00    +0.179 C 
ATOM     16  O   LIG    1       24.748 -11.448   5.655  0.00  0.00    -0.288 OA
ATOM     17  C   LIG    1       26.049 -13.365   5.209  0.00  0.00    +0.051 C 
ATOM     18  C   LIG    1       25.050 -16.219   3.220  0.00  0.00    +0.035 C 
ATOM     19  C   LIG    1       24.188 -16.578   4.462  0.00  0.00    +0.120 C 
ATOM     20  C   LIG    1       23.832 -18.064   4.537  0.00  0.00    +0.042 C 
ENDROOT
BRANCH   3  21
ATOM     21  O   LIG    1       25.807 -21.333   4.293  0.00  0.00    -0.377 OA
ATOM     22  H   LIG    1       25.518 -22.255   4.148  0.00  0.00    +0.211 HD
ENDBRANCH   3  21
BRANCH   3  23
ATOM     23  C   LIG    1       23.462 -21.130   4.872  0.00  0.00    +0.341 C 
ATOM     24  O   LIG    1       23.512 -21.410   6.061  0.00  0.00    -0.247 OA
BRANCH  23  25
ATOM     25  O   LIG    1       22.403 -21.386   4.059  0.00  0.00    -0.447 OA
BRANCH  25  26
ATOM     26  C   LIG    1       21.175 -20.773   4.457  0.00  0.00    +0.340 C 
ATOM     27 CL   LIG    1       21.204 -19.045   4.061  0.00  0.00    -0.081 Cl
ENDBRANCH  25  26
ENDBRANCH  23  25
ENDBRANCH   3  23
BRANCH  19  28
ATOM     28  O   LIG    1       22.946 -15.870   4.452  0.00  0.00    -0.391 OA
ATOM     29  H   LIG    1       22.224 -16.514   4.545  0.00  0.00    +0.210 HD
ENDBRANCH  19  28
TORSDOF 5
ENDMDL
