MODEL 1
REMARK VINA RESULT:      -7.6      0.000      0.000
REMARK  Name = *****
REMARK                            x       y       z     vdW  Elec       q    Type
REMARK                         _______ _______ _______ _____ _____    ______ ____
ROOT
ATOM      1  C   LIG    1       25.718 -22.554   6.108  0.00  0.00    +0.046 A 
ATOM      2  C   LIG    1       24.625 -21.730   5.624  0.00  0.00    +0.025 A 
ATOM      3  C   LIG    1       23.440 -22.428   5.499  0.00  0.00    +0.074 A 
ATOM      4  C   LIG    1       22.275 -21.662   5.275  0.00  0.00    +0.032 A 
ATOM      5  C   LIG    1       22.340 -20.282   5.043  0.00  0.00    +0.048 A 
ATOM      6  C   LIG    1       23.523 -19.549   4.910  0.00  0.00    +0.121 A 
ATOM      7  N   LIG    1       23.138 -23.678   5.634  0.00  0.00    -0.246 NA
ATOM      8  C   LIG    1       24.157 -24.468   6.083  0.00  0.00    +0.075 A 
ATOM      9  C   LIG    1       23.735 -25.763   6.208  0.00  0.00    +0.048 A 
ATOM     10  C   LIG    1       24.681 -26.695   6.609  0.00  0.00    +0.043 A 
ATOM     11 CL   LIG    1       24.271 -28.367   6.588  0.00  0.00    -0.084 Cl
ATOM     12  C   LIG    1       25.953 -26.273   6.956  0.00  0.00    +0.021 A 
ATOM     13  C   LIG    1       26.330 -24.922   6.870  0.00  0.00    +0.013 A 
ATOM     14  C   LIG    1       24.682 -20.336   5.213  0.00  0.00    +0.057 A 
ATOM     15  C   LIG    1       25.399 -23.956   6.356  0.00  0.00    +0.022 A 
ENDROOT
BRANCH   1  16
ATOM     16  N   LIG    1       26.888 -22.019   6.643  0.00  0.00    -0.340 N 
ATOM     17  H   LIG    1       27.499 -22.836   6.752  0.00  0.00    +0.146 HD
BRANCH  16  18
ATOM     18  C   LIG    1       27.213 -21.079   7.751  0.00  0.00    +0.067 C 
ATOM     19  C   LIG    1       26.083 -20.676   8.705  0.00  0.00    +0.027 C 
BRANCH  18  20
ATOM     20  C   LIG    1       28.175 -19.915   7.443  0.00  0.00    +0.023 C 
BRANCH  20  21
ATOM     21  C   LIG    1       29.394 -20.133   6.513  0.00  0.00    +0.017 C 
BRANCH  21  22
ATOM     22  C   LIG    1       30.648 -19.169   6.655  0.00  0.00    +0.084 C 
BRANCH  22  23
ATOM     23  N   LIG    1       31.548 -19.609   7.787  0.00  0.00    -0.303 NA
BRANCH  23  25
ATOM     24  C   LIG    1       30.598 -17.784   9.236  0.00  0.00    +0.020 C 
ATOM     25  C   LIG    1       31.768 -18.312   8.450  0.00  0.00    +0.081 C 
ENDBRANCH  23  25
BRANCH  23  26
ATOM     26  C   LIG    1       31.213 -20.513   8.950  0.00  0.00    +0.081 C 
ATOM     27  C   LIG    1       31.198 -21.986   9.132  0.00  0.00    +0.020 C 
ENDBRANCH  23  26
ENDBRANCH  22  23
ENDBRANCH  21  22
ENDBRANCH  20  21
ENDBRANCH  18  20
ENDBRANCH  16  18
ENDBRANCH   1  16
BRANCH   6  28
ATOM     28  O   LIG    1       23.787 -18.363   4.170  0.00  0.00    -0.495 OA
ATOM     29  C   LIG    1       25.040 -18.029   3.443  0.00  0.00    +0.277 C 
ENDBRANCH   6  28
TORSDOF 9
ENDMDL
MODEL 2
REMARK VINA RESULT:      -7.6      3.073      7.101
REMARK  Name = *****
REMARK                            x       y       z     vdW  Elec       q    Type
REMARK                         _______ _______ _______ _____ _____    ______ ____
ROOT
ATOM      1  C   LIG    1       26.079 -21.361   6.666  0.00  0.00    +0.046 A 
ATOM      2  C   LIG    1       25.360 -20.616   5.647  0.00  0.00    +0.025 A 
ATOM      3  C   LIG    1       26.157 -19.700   4.989  0.00  0.00    +0.074 A 
ATOM      4  C   LIG    1       25.614 -19.110   3.826  0.00  0.00    +0.032 A 
ATOM      5  C   LIG    1       24.284 -19.330   3.446  0.00  0.00    +0.048 A 
ATOM      6  C   LIG    1       23.347 -20.047   4.197  0.00  0.00    +0.121 A 
ATOM      7  N   LIG    1       27.377 -19.312   5.163  0.00  0.00    -0.246 NA
ATOM      8  C   LIG    1       28.066 -19.999   6.121  0.00  0.00    +0.075 A 
ATOM      9  C   LIG    1       29.346 -19.527   6.218  0.00  0.00    +0.048 A 
ATOM     10  C   LIG    1       30.154 -20.099   7.191  0.00  0.00    +0.043 A 
ATOM     11 CL   LIG    1       31.702 -19.414   7.502  0.00  0.00    -0.084 Cl
ATOM     12  C   LIG    1       29.679 -21.164   7.935  0.00  0.00    +0.021 A 
ATOM     13  C   LIG    1       28.374 -21.659   7.764  0.00  0.00    +0.013 A 
ATOM     14  C   LIG    1       23.943 -20.691   5.330  0.00  0.00    +0.057 A 
ATOM     15  C   LIG    1       27.485 -21.013   6.837  0.00  0.00    +0.022 A 
ENDROOT
BRANCH   1  16
ATOM     16  N   LIG    1       25.604 -22.555   7.205  0.00  0.00    -0.340 N 
ATOM     17  H   LIG    1       26.348 -22.840   7.851  0.00  0.00    +0.146 HD
BRANCH  16  18
ATOM     18  C   LIG    1       25.000 -23.799   6.655  0.00  0.00    +0.067 C 
ATOM     19  C   LIG    1       23.482 -23.977   6.778  0.00  0.00    +0.027 C 
BRANCH  18  20
ATOM     20  C   LIG    1       25.771 -25.118   6.854  0.00  0.00    +0.023 C 
BRANCH  20  21
ATOM     21  C   LIG    1       25.847 -26.160   5.711  0.00  0.00    +0.017 C 
BRANCH  21  22
ATOM     22  C   LIG    1       24.764 -27.322   5.660  0.00  0.00    +0.084 C 
BRANCH  22  23
ATOM     23  N   LIG    1       25.383 -28.658   6.006  0.00  0.00    -0.303 NA
BRANCH  23  25
ATOM     24  C   LIG    1       25.841 -28.843   8.473  0.00  0.00    +0.020 C 
ATOM     25  C   LIG    1       24.830 -28.846   7.358  0.00  0.00    +0.081 C 
ENDBRANCH  23  25
BRANCH  23  26
ATOM     26  C   LIG    1       25.129 -30.001   5.362  0.00  0.00    +0.081 C 
ATOM     27  C   LIG    1       25.843 -31.302   5.391  0.00  0.00    +0.020 C 
ENDBRANCH  23  26
ENDBRANCH  22  23
ENDBRANCH  21  22
ENDBRANCH  20  21
ENDBRANCH  18  20
ENDBRANCH  16  18
ENDBRANCH   1  16
BRANCH   6  28
ATOM     28  O   LIG    1       21.932 -19.910   4.266  0.00  0.00    -0.495 OA
ATOM     29  C   LIG    1       21.136 -18.708   3.905  0.00  0.00    +0.277 C 
ENDBRANCH   6  28
TORSDOF 9
ENDMDL
MODEL 3
REMARK VINA RESULT:      -7.4      3.896      7.009
REMARK  Name = *****
REMARK                            x       y       z     vdW  Elec       q    Type
REMARK                         _______ _______ _______ _____ _____    ______ ____
ROOT
ATOM      1  C   LIG    1       26.940 -20.411   5.427  0.00  0.00    +0.046 A 
ATOM      2  C   LIG    1       26.194 -21.345   6.251  0.00  0.00    +0.025 A 
ATOM      3  C   LIG    1       26.713 -21.471   7.525  0.00  0.00    +0.074 A 
ATOM      4  C   LIG    1       25.918 -22.160   8.467  0.00  0.00    +0.032 A 
ATOM      5  C   LIG    1       24.736 -22.811   8.091  0.00  0.00    +0.048 A 
ATOM      6  C   LIG    1       24.277 -22.935   6.777  0.00  0.00    +0.121 A 
ATOM      7  N   LIG    1       27.775 -21.000   8.091  0.00  0.00    -0.246 NA
ATOM      8  C   LIG    1       28.491 -20.124   7.327  0.00  0.00    +0.075 A 
ATOM      9  C   LIG    1       29.581 -19.671   8.018  0.00  0.00    +0.048 A 
ATOM     10  C   LIG    1       30.435 -18.807   7.346  0.00  0.00    +0.043 A 
ATOM     11 CL   LIG    1       31.927 -18.365   8.081  0.00  0.00    -0.084 Cl
ATOM     12  C   LIG    1       30.105 -18.370   6.075  0.00  0.00    +0.021 A 
ATOM     13  C   LIG    1       28.942 -18.814   5.422  0.00  0.00    +0.013 A 
ATOM     14  C   LIG    1       25.062 -22.168   5.855  0.00  0.00    +0.057 A 
ATOM     15  C   LIG    1       28.100 -19.790   6.057  0.00  0.00    +0.022 A 
ENDROOT
BRANCH   1  16
ATOM     16  N   LIG    1       26.423 -19.856   4.257  0.00  0.00    -0.340 N 
ATOM     17  H   LIG    1       27.258 -19.655   3.697  0.00  0.00    +0.146 HD
BRANCH  16  18
ATOM     18  C   LIG    1       25.417 -18.807   3.938  0.00  0.00    +0.067 C 
ATOM     19  C   LIG    1       23.971 -19.251   3.686  0.00  0.00    +0.027 C 
BRANCH  18  20
ATOM     20  C   LIG    1       25.855 -17.653   3.014  0.00  0.00    +0.023 C 
BRANCH  20  21
ATOM     21  C   LIG    1       26.418 -16.342   3.614  0.00  0.00    +0.017 C 
BRANCH  21  22
ATOM     22  C   LIG    1       26.520 -15.056   2.687  0.00  0.00    +0.084 C 
BRANCH  22  23
ATOM     23  N   LIG    1       26.106 -13.810   3.437  0.00  0.00    -0.303 NA
BRANCH  23  25
ATOM     24  C   LIG    1       23.749 -14.217   4.218  0.00  0.00    +0.020 C 
ATOM     25  C   LIG    1       24.670 -13.787   3.108  0.00  0.00    +0.081 C 
ENDBRANCH  23  25
BRANCH  23  26
ATOM     26  C   LIG    1       26.100 -13.575   4.929  0.00  0.00    +0.081 C 
ATOM     27  C   LIG    1       27.157 -13.575   5.970  0.00  0.00    +0.020 C 
ENDBRANCH  23  26
ENDBRANCH  22  23
ENDBRANCH  21  22
ENDBRANCH  20  21
ENDBRANCH  18  20
ENDBRANCH  16  18
ENDBRANCH   1  16
BRANCH   6  28
ATOM     28  O   LIG    1       23.483 -23.953   6.176  0.00  0.00    -0.495 OA
ATOM     29  C   LIG    1       23.793 -25.407   6.122  0.00  0.00    +0.277 C 
ENDBRANCH   6  28
TORSDOF 9
ENDMDL
MODEL 4
REMARK VINA RESULT:      -7.1      1.605      2.474
REMARK  Name = *****
REMARK                            x       y       z     vdW  Elec       q    Type
REMARK                         _______ _______ _______ _____ _____    ______ ____
ROOT
ATOM      1  C   LIG    1       26.354 -20.959   6.078  0.00  0.00    +0.046 A 
ATOM      2  C   LIG    1       25.759 -20.202   4.991  0.00  0.00    +0.025 A 
ATOM      3  C   LIG    1       24.754 -20.893   4.342  0.00  0.00    +0.074 A 
ATOM      4  C   LIG    1       23.956 -20.152   3.443  0.00  0.00    +0.032 A 
ATOM      5  C   LIG    1       24.264 -18.826   3.114  0.00  0.00    +0.048 A 
ATOM      6  C   LIG    1       25.405 -18.141   3.541  0.00  0.00    +0.121 A 
ATOM      7  N   LIG    1       24.309 -22.102   4.448  0.00  0.00    -0.246 NA
ATOM      8  C   LIG    1       24.863 -22.829   5.462  0.00  0.00    +0.075 A 
ATOM      9  C   LIG    1       24.317 -24.083   5.501  0.00  0.00    +0.048 A 
ATOM     10  C   LIG    1       24.821 -24.957   6.454  0.00  0.00    +0.043 A 
ATOM     11 CL   LIG    1       24.326 -26.605   6.423  0.00  0.00    -0.084 Cl
ATOM     12  C   LIG    1       25.757 -24.507   7.369  0.00  0.00    +0.021 A 
ATOM     13  C   LIG    1       26.250 -23.190   7.332  0.00  0.00    +0.013 A 
ATOM     14  C   LIG    1       26.154 -18.890   4.506  0.00  0.00    +0.057 A 
ATOM     15  C   LIG    1       25.821 -22.301   6.287  0.00  0.00    +0.022 A 
ENDROOT
BRANCH   1  16
ATOM     16  N   LIG    1       27.117 -20.366   7.083  0.00  0.00    -0.340 N 
ATOM     17  H   LIG    1       26.594 -19.513   7.308  0.00  0.00    +0.146 HD
BRANCH  16  18
ATOM     18  C   LIG    1       28.560 -20.061   7.276  0.00  0.00    +0.067 C 
ATOM     19  C   LIG    1       29.220 -19.069   6.311  0.00  0.00    +0.027 C 
BRANCH  18  20
ATOM     20  C   LIG    1       29.493 -21.227   7.660  0.00  0.00    +0.023 C 
BRANCH  20  21
ATOM     21  C   LIG    1       30.506 -21.068   8.820  0.00  0.00    +0.017 C 
BRANCH  21  22
ATOM     22  C   LIG    1       31.767 -20.124   8.614  0.00  0.00    +0.084 C 
BRANCH  22  23
ATOM     23  N   LIG    1       31.709 -18.929   9.538  0.00  0.00    -0.303 NA
BRANCH  23  25
ATOM     24  C   LIG    1       32.540 -16.580   9.185  0.00  0.00    +0.020 C 
ATOM     25  C   LIG    1       32.021 -17.856   8.578  0.00  0.00    +0.081 C 
ENDBRANCH  23  25
BRANCH  23  26
ATOM     26  C   LIG    1       30.511 -18.369  10.269  0.00  0.00    +0.081 C 
ATOM     27  C   LIG    1       30.314 -17.213  11.178  0.00  0.00    +0.020 C 
ENDBRANCH  23  26
ENDBRANCH  22  23
ENDBRANCH  21  22
ENDBRANCH  20  21
ENDBRANCH  18  20
ENDBRANCH  16  18
ENDBRANCH   1  16
BRANCH   6  28
ATOM     28  O   LIG    1       26.128 -17.087   2.915  0.00  0.00    -0.495 OA
ATOM     29  C   LIG    1       26.438 -15.753   3.495  0.00  0.00    +0.277 C 
ENDBRANCH   6  28
TORSDOF 9
ENDMDL
MODEL 5
REMARK VINA RESULT:      -6.8      3.337      6.399
REMARK  Name = *****
REMARK                            x       y       z     vdW  Elec       q    Type
REMARK                         _______ _______ _______ _____ _____    ______ ____
ROOT
ATOM      1  C   LIG    1       26.941 -20.078   5.647  0.00  0.00    +0.046 A 
ATOM      2  C   LIG    1       28.126 -20.074   6.487  0.00  0.00    +0.025 A 
ATOM      3  C   LIG    1       28.202 -21.177   7.315  0.00  0.00    +0.074 A 
ATOM      4  C   LIG    1       29.430 -21.384   7.982  0.00  0.00    +0.032 A 
ATOM      5  C   LIG    1       30.463 -20.439   7.924  0.00  0.00    +0.048 A 
ATOM      6  C   LIG    1       30.366 -19.187   7.309  0.00  0.00    +0.121 A 
ATOM      7  N   LIG    1       27.389 -22.152   7.556  0.00  0.00    -0.246 NA
ATOM      8  C   LIG    1       26.267 -22.168   6.779  0.00  0.00    +0.075 A 
ATOM      9  C   LIG    1       25.483 -23.242   7.098  0.00  0.00    +0.048 A 
ATOM     10  C   LIG    1       24.277 -23.362   6.421  0.00  0.00    +0.043 A 
ATOM     11 CL   LIG    1       23.155 -24.568   6.916  0.00  0.00    -0.084 Cl
ATOM     12  C   LIG    1       23.972 -22.472   5.405  0.00  0.00    +0.021 A 
ATOM     13  C   LIG    1       24.834 -21.414   5.068  0.00  0.00    +0.013 A 
ATOM     14  C   LIG    1       29.140 -19.036   6.582  0.00  0.00    +0.057 A 
ATOM     15  C   LIG    1       26.037 -21.209   5.828  0.00  0.00    +0.022 A 
ENDROOT
BRANCH   1  16
ATOM     16  N   LIG    1       26.820 -19.285   4.509  0.00  0.00    -0.340 N 
ATOM     17  H   LIG    1       27.653 -18.688   4.542  0.00  0.00    +0.146 HD
BRANCH  16  18
ATOM     18  C   LIG    1       25.730 -18.484   3.887  0.00  0.00    +0.067 C 
ATOM     19  C   LIG    1       24.492 -19.230   3.377  0.00  0.00    +0.027 C 
BRANCH  18  20
ATOM     20  C   LIG    1       26.135 -17.310   2.975  0.00  0.00    +0.023 C 
BRANCH  20  21
ATOM     21  C   LIG    1       26.843 -16.067   3.568  0.00  0.00    +0.017 C 
BRANCH  21  22
ATOM     22  C   LIG    1       26.753 -14.688   2.784  0.00  0.00    +0.084 C 
BRANCH  22  23
ATOM     23  N   LIG    1       26.226 -13.588   3.678  0.00  0.00    -0.303 NA
BRANCH  23  25
ATOM     24  C   LIG    1       23.875 -14.357   4.136  0.00  0.00    +0.020 C 
ATOM     25  C   LIG    1       24.815 -13.578   3.256  0.00  0.00    +0.081 C 
ENDBRANCH  23  25
BRANCH  23  26
ATOM     26  C   LIG    1       26.113 -13.580   5.184  0.00  0.00    +0.081 C 
ATOM     27  C   LIG    1       27.107 -13.586   6.287  0.00  0.00    +0.020 C 
ENDBRANCH  23  26
ENDBRANCH  22  23
ENDBRANCH  21  22
ENDBRANCH  20  21
ENDBRANCH  18  20
ENDBRANCH  16  18
ENDBRANCH   1  16
BRANCH   6  28
ATOM     28  O   LIG    1       31.035 -17.966   7.607  0.00  0.00    -0.495 OA
ATOM     29  C   LIG    1       31.932 -17.703   8.764  0.00  0.00    +0.277 C 
ENDBRANCH   6  28
TORSDOF 9
ENDMDL
MODEL 6
REMARK VINA RESULT:      -6.7      2.843      5.109
REMARK  Name = *****
REMARK                            x       y       z     vdW  Elec       q    Type
REMARK                         _______ _______ _______ _____ _____    ______ ____
ROOT
ATOM      1  C   LIG    1       25.909 -22.791   6.545  0.00  0.00    +0.046 A 
ATOM      2  C   LIG    1       25.465 -24.172   6.612  0.00  0.00    +0.025 A 
ATOM      3  C   LIG    1       24.205 -24.358   6.078  0.00  0.00    +0.074 A 
ATOM      4  C   LIG    1       23.795 -25.694   5.873  0.00  0.00    +0.032 A 
ATOM      5  C   LIG    1       24.564 -26.773   6.328  0.00  0.00    +0.048 A 
ATOM      6  C   LIG    1       25.728 -26.658   7.093  0.00  0.00    +0.121 A 
ATOM      7  N   LIG    1       23.314 -23.539   5.623  0.00  0.00    -0.246 NA
ATOM      8  C   LIG    1       23.714 -22.235   5.559  0.00  0.00    +0.075 A 
ATOM      9  C   LIG    1       22.711 -21.455   5.052  0.00  0.00    +0.048 A 
ATOM     10  C   LIG    1       22.956 -20.091   4.975  0.00  0.00    +0.043 A 
ATOM     11 CL   LIG    1       21.670 -19.032   4.542  0.00  0.00    -0.084 Cl
ATOM     12  C   LIG    1       24.206 -19.600   5.309  0.00  0.00    +0.021 A 
ATOM     13  C   LIG    1       25.231 -20.446   5.771  0.00  0.00    +0.013 A 
ATOM     14  C   LIG    1       26.156 -25.296   7.222  0.00  0.00    +0.057 A 
ATOM     15  C   LIG    1       24.965 -21.845   5.960  0.00  0.00    +0.022 A 
ENDROOT
BRANCH   1  16
ATOM     16  N   LIG    1       27.244 -22.419   6.687  0.00  0.00    -0.340 N 
ATOM     17  H   LIG    1       27.671 -23.229   7.150  0.00  0.00    +0.146 HD
BRANCH  16  18
ATOM     18  C   LIG    1       27.960 -21.208   7.172  0.00  0.00    +0.067 C 
ATOM     19  C   LIG    1       27.338 -20.421   8.331  0.00  0.00    +0.027 C 
BRANCH  18  20
ATOM     20  C   LIG    1       28.619 -20.296   6.119  0.00  0.00    +0.023 C 
BRANCH  20  21
ATOM     21  C   LIG    1       29.478 -19.085   6.561  0.00  0.00    +0.017 C 
BRANCH  21  22
ATOM     22  C   LIG    1       30.861 -19.354   7.295  0.00  0.00    +0.084 C 
BRANCH  22  23
ATOM     23  N   LIG    1       30.686 -19.358   8.797  0.00  0.00    -0.303 NA
BRANCH  23  25
ATOM     24  C   LIG    1       30.938 -21.841   9.122  0.00  0.00    +0.020 C 
ATOM     25  C   LIG    1       31.577 -20.478   9.148  0.00  0.00    +0.081 C 
ENDBRANCH  23  25
BRANCH  23  26
ATOM     26  C   LIG    1       31.097 -18.296   9.789  0.00  0.00    +0.081 C 
ATOM     27  C   LIG    1       30.373 -17.544  10.845  0.00  0.00    +0.020 C 
ENDBRANCH  23  26
ENDBRANCH  22  23
ENDBRANCH  21  22
ENDBRANCH  20  21
ENDBRANCH  18  20
ENDBRANCH  16  18
ENDBRANCH   1  16
BRANCH   6  28
ATOM     28  O   LIG    1       26.284 -27.549   8.053  0.00  0.00    -0.495 OA
ATOM     29  C   LIG    1       25.755 -28.884   8.439  0.00  0.00    +0.277 C 
ENDBRANCH   6  28
TORSDOF 9
ENDMDL
MODEL 7
REMARK VINA RESULT:      -6.7      4.857      8.213
REMARK  Name = *****
REMARK                            x       y       z     vdW  Elec       q    Type
REMARK                         _______ _______ _______ _____ _____    ______ ____
ROOT
ATOM      1  C   LIG    1       25.795 -28.779   8.381  0.00  0.00    +0.046 A 
ATOM      2  C   LIG    1       26.112 -28.883   9.795  0.00  0.00    +0.025 A 
ATOM      3  C   LIG    1       25.771 -30.109  10.333  0.00  0.00    +0.074 A 
ATOM      4  C   LIG    1       26.263 -30.390  11.627  0.00  0.00    +0.032 A 
ATOM      5  C   LIG    1       26.932 -29.419  12.383  0.00  0.00    +0.048 A 
ATOM      6  C   LIG    1       27.096 -28.084  12.002  0.00  0.00    +0.121 A 
ATOM      7  N   LIG    1       25.147 -31.135   9.856  0.00  0.00    -0.246 NA
ATOM      8  C   LIG    1       24.837 -31.051   8.529  0.00  0.00    +0.075 A 
ATOM      9  C   LIG    1       24.196 -32.187   8.117  0.00  0.00    +0.048 A 
ATOM     10  C   LIG    1       23.773 -32.225   6.796  0.00  0.00    +0.043 A 
ATOM     11 CL   LIG    1       22.784 -33.532   6.271  0.00  0.00    -0.084 Cl
ATOM     12  C   LIG    1       24.097 -31.184   5.944  0.00  0.00    +0.021 A 
ATOM     13  C   LIG    1       24.810 -30.058   6.393  0.00  0.00    +0.013 A 
ATOM     14  C   LIG    1       26.653 -27.847  10.660  0.00  0.00    +0.057 A 
ATOM     15  C   LIG    1       25.165 -29.950   7.781  0.00  0.00    +0.022 A 
ENDROOT
BRANCH   1  16
ATOM     16  N   LIG    1       26.350 -27.806   7.552  0.00  0.00    -0.340 N 
ATOM     17  H   LIG    1       27.016 -27.321   8.164  0.00  0.00    +0.146 HD
BRANCH  16  18
ATOM     18  C   LIG    1       25.815 -26.797   6.599  0.00  0.00    +0.067 C 
ATOM     19  C   LIG    1       26.149 -26.966   5.112  0.00  0.00    +0.027 C 
BRANCH  18  20
ATOM     20  C   LIG    1       25.814 -25.322   7.043  0.00  0.00    +0.023 C 
BRANCH  20  21
ATOM     21  C   LIG    1       25.249 -24.224   6.109  0.00  0.00    +0.017 C 
BRANCH  21  22
ATOM     22  C   LIG    1       24.205 -23.180   6.696  0.00  0.00    +0.084 C 
BRANCH  22  23
ATOM     23  N   LIG    1       24.646 -21.759   6.426  0.00  0.00    -0.303 NA
BRANCH  23  25
ATOM     24  C   LIG    1       22.835 -20.153   5.738  0.00  0.00    +0.020 C 
ATOM     25  C   LIG    1       23.417 -21.041   6.805  0.00  0.00    +0.081 C 
ENDBRANCH  23  25
BRANCH  23  26
ATOM     26  C   LIG    1       25.717 -20.962   7.132  0.00  0.00    +0.081 C 
ATOM     27  C   LIG    1       26.011 -20.680   8.559  0.00  0.00    +0.020 C 
ENDBRANCH  23  26
ENDBRANCH  22  23
ENDBRANCH  21  22
ENDBRANCH  20  21
ENDBRANCH  18  20
ENDBRANCH  16  18
ENDBRANCH   1  16
BRANCH   6  28
ATOM     28  O   LIG    1       27.223 -26.913  12.801  0.00  0.00    -0.495 OA
ATOM     29  C   LIG    1       26.150 -25.934  13.121  0.00  0.00    +0.277 C 
ENDBRANCH   6  28
TORSDOF 9
ENDMDL
MODEL 8
REMARK VINA RESULT:      -6.4      0.682      1.442
REMARK  Name = *****
REMARK                            x       y       z     vdW  Elec       q    Type
REMARK                         _______ _______ _______ _____ _____    ______ ____
ROOT
ATOM      1  C   LIG    1       25.608 -22.648   6.123  0.00  0.00    +0.046 A 
ATOM      2  C   LIG    1       24.487 -21.847   5.662  0.00  0.00    +0.025 A 
ATOM      3  C   LIG    1       23.322 -22.578   5.532  0.00  0.00    +0.074 A 
ATOM      4  C   LIG    1       22.133 -21.842   5.331  0.00  0.00    +0.032 A 
ATOM      5  C   LIG    1       22.156 -20.457   5.122  0.00  0.00    +0.048 A 
ATOM      6  C   LIG    1       23.316 -19.688   4.994  0.00  0.00    +0.121 A 
ATOM      7  N   LIG    1       23.058 -23.838   5.648  0.00  0.00    -0.246 NA
ATOM      8  C   LIG    1       24.102 -24.605   6.076  0.00  0.00    +0.075 A 
ATOM      9  C   LIG    1       23.719 -25.914   6.181  0.00  0.00    +0.048 A 
ATOM     10  C   LIG    1       24.695 -26.825   6.559  0.00  0.00    +0.043 A 
ATOM     11 CL   LIG    1       24.334 -28.508   6.512  0.00  0.00    -0.084 Cl
ATOM     12  C   LIG    1       25.957 -26.373   6.904  0.00  0.00    +0.021 A 
ATOM     13  C   LIG    1       26.294 -25.009   6.839  0.00  0.00    +0.013 A 
ATOM     14  C   LIG    1       24.500 -20.446   5.274  0.00  0.00    +0.057 A 
ATOM     15  C   LIG    1       25.331 -24.062   6.348  0.00  0.00    +0.022 A 
ENDROOT
BRANCH   1  16
ATOM     16  N   LIG    1       26.765 -22.088   6.659  0.00  0.00    -0.340 N 
ATOM     17  H   LIG    1       27.483 -22.796   6.472  0.00  0.00    +0.146 HD
BRANCH  16  18
ATOM     18  C   LIG    1       27.126 -21.427   7.943  0.00  0.00    +0.067 C 
ATOM     19  C   LIG    1       26.040 -20.619   8.665  0.00  0.00    +0.027 C 
BRANCH  18  20
ATOM     20  C   LIG    1       28.519 -20.776   8.047  0.00  0.00    +0.023 C 
BRANCH  20  21
ATOM     21  C   LIG    1       28.883 -19.562   7.157  0.00  0.00    +0.017 C 
BRANCH  21  22
ATOM     22  C   LIG    1       30.109 -18.643   7.579  0.00  0.00    +0.084 C 
BRANCH  22  23
ATOM     23  N   LIG    1       30.560 -18.952   8.989  0.00  0.00    -0.303 NA
BRANCH  23  25
ATOM     24  C   LIG    1       31.527 -21.273   9.087  0.00  0.00    +0.020 C 
ATOM     25  C   LIG    1       31.706 -19.830   8.696  0.00  0.00    +0.081 C 
ENDBRANCH  23  25
BRANCH  23  26
ATOM     26  C   LIG    1       31.133 -18.005  10.016  0.00  0.00    +0.081 C 
ATOM     27  C   LIG    1       30.528 -17.080  11.007  0.00  0.00    +0.020 C 
ENDBRANCH  23  26
ENDBRANCH  22  23
ENDBRANCH  21  22
ENDBRANCH  20  21
ENDBRANCH  18  20
ENDBRANCH  16  18
ENDBRANCH   1  16
BRANCH   6  28
ATOM     28  O   LIG    1       23.540 -18.482   4.272  0.00  0.00    -0.495 OA
ATOM     29  C   LIG    1       24.768 -18.109   3.522  0.00  0.00    +0.277 C 
ENDBRANCH   6  28
TORSDOF 9
ENDMDL
MODEL 9
REMARK VINA RESULT:      -6.2      6.765     10.081
REMARK  Name = *****
REMARK                            x       y       z     vdW  Elec       q    Type
REMARK                         _______ _______ _______ _____ _____    ______ ____
ROOT
ATOM      1  C   LIG    1       24.793 -28.258  12.783  0.00  0.00    +0.046 A 
ATOM      2  C   LIG    1       23.348 -28.143  12.867  0.00  0.00    +0.025 A 
ATOM      3  C   LIG    1       22.934 -26.931  13.384  0.00  0.00    +0.074 A 
ATOM      4  C   LIG    1       21.558 -26.632  13.273  0.00  0.00    +0.032 A 
ATOM      5  C   LIG    1       20.640 -27.578  12.802  0.00  0.00    +0.048 A 
ATOM      6  C   LIG    1       20.948 -28.906  12.493  0.00  0.00    +0.121 A 
ATOM      7  N   LIG    1       23.574 -25.928  13.891  0.00  0.00    -0.246 NA
ATOM      8  C   LIG    1       24.934 -26.023  13.825  0.00  0.00    +0.075 A 
ATOM      9  C   LIG    1       25.515 -24.912  14.369  0.00  0.00    +0.048 A 
ATOM     10  C   LIG    1       26.902 -24.889  14.418  0.00  0.00    +0.043 A 
ATOM     11 CL   LIG    1       27.690 -23.619  15.273  0.00  0.00    -0.084 Cl
ATOM     12  C   LIG    1       27.624 -25.918  13.838  0.00  0.00    +0.021 A 
ATOM     13  C   LIG    1       26.987 -27.016  13.234  0.00  0.00    +0.013 A 
ATOM     14  C   LIG    1       22.358 -29.158  12.545  0.00  0.00    +0.057 A 
ATOM     15  C   LIG    1       25.553 -27.111  13.267  0.00  0.00    +0.022 A 
ENDROOT
BRANCH   1  16
ATOM     16  N   LIG    1       25.430 -29.210  11.989  0.00  0.00    -0.340 N 
ATOM     17  H   LIG    1       26.426 -29.031  12.152  0.00  0.00    +0.146 HD
BRANCH  16  18
ATOM     18  C   LIG    1       25.293 -29.678  10.583  0.00  0.00    +0.067 C 
ATOM     19  C   LIG    1       24.685 -31.066  10.344  0.00  0.00    +0.027 C 
BRANCH  18  20
ATOM     20  C   LIG    1       26.439 -29.355   9.605  0.00  0.00    +0.023 C 
BRANCH  20  21
ATOM     21  C   LIG    1       26.402 -28.062   8.755  0.00  0.00    +0.017 C 
BRANCH  21  22
ATOM     22  C   LIG    1       25.562 -28.055   7.406  0.00  0.00    +0.084 C 
BRANCH  22  23
ATOM     23  N   LIG    1       25.968 -26.900   6.519  0.00  0.00    -0.303 NA
BRANCH  23  25
ATOM     24  C   LIG    1       24.490 -28.526   5.294  0.00  0.00    +0.020 C 
ATOM     25  C   LIG    1       25.489 -27.403   5.220  0.00  0.00    +0.081 C 
ENDBRANCH  23  25
BRANCH  23  26
ATOM     26  C   LIG    1       25.444 -25.483   6.530  0.00  0.00    +0.081 C 
ATOM     27  C   LIG    1       24.092 -24.890   6.384  0.00  0.00    +0.020 C 
ENDBRANCH  23  26
ENDBRANCH  22  23
ENDBRANCH  21  22
ENDBRANCH  20  21
ENDBRANCH  18  20
ENDBRANCH  16  18
ENDBRANCH   1  16
BRANCH   6  28
ATOM     28  O   LIG    1       20.133 -30.072  12.547  0.00  0.00    -0.495 OA
ATOM     29  C   LIG    1       19.851 -31.013  11.431  0.00  0.00    +0.277 C 
ENDBRANCH   6  28
TORSDOF 9
ENDMDL
