MODEL 1
REMARK VINA RESULT:      -7.6      0.000      0.000
REMARK  Name = *****
REMARK                            x       y       z     vdW  Elec       q    Type
REMARK                         _______ _______ _______ _____ _____    ______ ____
ROOT
ATOM      1  C   LIG    1       26.532 -21.246   7.755  0.00  0.00    -0.021 C 
ATOM      2  C   LIG    1       25.603 -21.726   6.885  0.00  0.00    -0.035 C 
ATOM      3  C   LIG    1       24.688 -20.668   6.241  0.00  0.00    +0.059 C 
ATOM      4  C   LIG    1       23.406 -21.210   5.561  0.00  0.00    +0.085 C 
ATOM      5  C   LIG    1       22.657 -20.080   4.885  0.00  0.00    -0.011 C 
ATOM      6  C   LIG    1       23.313 -19.044   4.346  0.00  0.00    +0.009 C 
ATOM      7  C   LIG    1       24.775 -19.000   4.361  0.00  0.00    +0.051 C 
ATOM      8  S   LIG    1       23.835 -22.410   4.248  0.00  0.00    -0.116 S 
ATOM      9  C   LIG    1       24.846 -23.509   5.220  0.00  0.00    +0.016 A 
ATOM     10  C   LIG    1       24.926 -24.825   4.728  0.00  0.00    +0.015 A 
ATOM     11  C   LIG    1       25.522 -25.828   5.480  0.00  0.00    +0.001 A 
ATOM     12  C   LIG    1       25.983 -25.533   6.752  0.00  0.00    +0.001 A 
ATOM     13  C   LIG    1       25.930 -24.216   7.228  0.00  0.00    +0.009 A 
ATOM     14  C   LIG    1       25.438 -19.739   5.280  0.00  0.00    -0.005 C 
ATOM     15  C   LIG    1       25.464 -23.151   6.437  0.00  0.00    -0.008 A 
ENDROOT
BRANCH   7  16
ATOM     16  C   LIG    1       25.479 -18.159   3.322  0.00  0.00    +0.417 C 
ATOM     17  F   LIG    1       24.851 -16.971   3.128  0.00  0.00    -0.166 F 
ATOM     18  F   LIG    1       25.519 -18.784   2.117  0.00  0.00    -0.166 F 
ATOM     19  F   LIG    1       26.766 -17.869   3.653  0.00  0.00    -0.166 F 
ENDBRANCH   7  16
BRANCH   1  20
ATOM     20  C   LIG    1       27.712 -21.865   8.462  0.00  0.00    +0.043 C 
BRANCH  20  21
ATOM     21  C   LIG    1       29.041 -21.263   7.960  0.00  0.00    +0.088 C 
BRANCH  21  25
ATOM     22  N   LIG    1       31.861 -18.817   8.490  0.00  0.00    -0.298 NA
ATOM     23  C   LIG    1       30.924 -19.297   9.526  0.00  0.00    +0.100 C 
ATOM     24  C   LIG    1       29.426 -19.146   9.165  0.00  0.00    +0.100 C 
ATOM     25  N   LIG    1       29.038 -19.788   7.891  0.00  0.00    -0.300 NA
ATOM     26  C   LIG    1       29.962 -19.308   6.836  0.00  0.00    +0.100 C 
ATOM     27  C   LIG    1       31.471 -19.407   7.186  0.00  0.00    +0.100 C 
BRANCH  22  28
ATOM     28  C   LIG    1       31.913 -17.344   8.398  0.00  0.00    +0.112 C 
BRANCH  28  29
ATOM     29  C   LIG    1       32.478 -16.652   9.650  0.00  0.00    +0.171 C 
BRANCH  29  30
ATOM     30  O   LIG    1       33.022 -15.384   9.290  0.00  0.00    -0.394 OA
ATOM     31  H   LIG    1       32.758 -14.759   9.987  0.00  0.00    +0.209 HD
ENDBRANCH  29  30
ENDBRANCH  28  29
ENDBRANCH  22  28
ENDBRANCH  21  25
ENDBRANCH  20  21
ENDBRANCH   1  20
TORSDOF 7
ENDMDL
MODEL 2
REMARK VINA RESULT:      -7.2      7.381      9.441
REMARK  Name = *****
REMARK                            x       y       z     vdW  Elec       q    Type
REMARK                         _______ _______ _______ _____ _____    ______ ____
ROOT
ATOM      1  C   LIG    1       25.825 -29.842  10.080  0.00  0.00    -0.021 C 
ATOM      2  C   LIG    1       25.695 -30.315   8.812  0.00  0.00    -0.035 C 
ATOM      3  C   LIG    1       24.924 -29.404   7.838  0.00  0.00    +0.059 C 
ATOM      4  C   LIG    1       24.439 -30.073   6.529  0.00  0.00    +0.085 C 
ATOM      5  C   LIG    1       23.791 -29.043   5.626  0.00  0.00    -0.011 C 
ATOM      6  C   LIG    1       24.218 -27.774   5.612  0.00  0.00    +0.009 C 
ATOM      7  C   LIG    1       25.353 -27.359   6.437  0.00  0.00    +0.051 C 
ATOM      8  S   LIG    1       25.857 -30.761   5.598  0.00  0.00    -0.116 S 
ATOM      9  C   LIG    1       26.554 -31.767   6.893  0.00  0.00    +0.016 A 
ATOM     10  C   LIG    1       27.324 -32.855   6.444  0.00  0.00    +0.015 A 
ATOM     11  C   LIG    1       27.769 -33.825   7.332  0.00  0.00    +0.001 A 
ATOM     12  C   LIG    1       27.392 -33.743   8.662  0.00  0.00    +0.001 A 
ATOM     13  C   LIG    1       26.652 -32.643   9.114  0.00  0.00    +0.009 A 
ATOM     14  C   LIG    1       25.674 -28.106   7.519  0.00  0.00    -0.005 C 
ATOM     15  C   LIG    1       26.308 -31.573   8.270  0.00  0.00    -0.008 A 
ENDROOT
BRANCH   7  16
ATOM     16  C   LIG    1       26.137 -26.138   6.022  0.00  0.00    +0.417 C 
ATOM     17  F   LIG    1       26.100 -25.170   6.974  0.00  0.00    -0.166 F 
ATOM     18  F   LIG    1       25.640 -25.588   4.883  0.00  0.00    -0.166 F 
ATOM     19  F   LIG    1       27.450 -26.401   5.785  0.00  0.00    -0.166 F 
ENDBRANCH   7  16
BRANCH   1  20
ATOM     20  C   LIG    1       26.621 -30.291  11.280  0.00  0.00    +0.043 C 
BRANCH  20  21
ATOM     21  C   LIG    1       26.381 -29.360  12.487  0.00  0.00    +0.088 C 
BRANCH  21  25
ATOM     22  N   LIG    1       25.878 -26.254  14.563  0.00  0.00    -0.298 NA
ATOM     23  C   LIG    1       24.930 -27.381  14.446  0.00  0.00    +0.100 C 
ATOM     24  C   LIG    1       24.565 -27.771  12.993  0.00  0.00    +0.100 C 
ATOM     25  N   LIG    1       25.728 -28.083  12.135  0.00  0.00    -0.300 NA
ATOM     26  C   LIG    1       26.686 -26.957  12.232  0.00  0.00    +0.100 C 
ATOM     27  C   LIG    1       27.039 -26.514  13.678  0.00  0.00    +0.100 C 
BRANCH  22  28
ATOM     28  C   LIG    1       25.264 -24.948  14.245  0.00  0.00    +0.112 C 
BRANCH  28  29
ATOM     29  C   LIG    1       25.862 -23.762  15.019  0.00  0.00    +0.171 C 
BRANCH  29  30
ATOM     30  O   LIG    1       25.452 -22.539  14.410  0.00  0.00    -0.394 OA
ATOM     31  H   LIG    1       24.875 -22.779  13.665  0.00  0.00    +0.209 HD
ENDBRANCH  29  30
ENDBRANCH  28  29
ENDBRANCH  22  28
ENDBRANCH  21  25
ENDBRANCH  20  21
ENDBRANCH   1  20
TORSDOF 7
ENDMDL
MODEL 3
REMARK VINA RESULT:      -6.9      6.406      9.221
REMARK  Name = *****
REMARK                            x       y       z     vdW  Elec       q    Type
REMARK                         _______ _______ _______ _____ _____    ______ ____
ROOT
ATOM      1  C   LIG    1       25.861 -27.468   7.398  0.00  0.00    -0.021 C 
ATOM      2  C   LIG    1       25.961 -28.636   8.086  0.00  0.00    -0.035 C 
ATOM      3  C   LIG    1       26.840 -28.591   9.351  0.00  0.00    +0.059 C 
ATOM      4  C   LIG    1       27.272 -29.964   9.921  0.00  0.00    +0.085 C 
ATOM      5  C   LIG    1       28.039 -29.773  11.214  0.00  0.00    -0.011 C 
ATOM      6  C   LIG    1       27.748 -28.764  12.045  0.00  0.00    +0.009 C 
ATOM      7  C   LIG    1       26.651 -27.844  11.745  0.00  0.00    +0.051 C 
ATOM      8  S   LIG    1       25.804 -30.977  10.333  0.00  0.00    -0.116 S 
ATOM      9  C   LIG    1       24.985 -30.901   8.752  0.00  0.00    +0.016 A 
ATOM     10  C   LIG    1       24.112 -31.973   8.489  0.00  0.00    +0.015 A 
ATOM     11  C   LIG    1       23.553 -32.141   7.229  0.00  0.00    +0.001 A 
ATOM     12  C   LIG    1       23.915 -31.274   6.212  0.00  0.00    +0.001 A 
ATOM     13  C   LIG    1       24.760 -30.189   6.483  0.00  0.00    +0.009 A 
ATOM     14  C   LIG    1       26.235 -27.727  10.462  0.00  0.00    -0.005 C 
ATOM     15  C   LIG    1       25.228 -29.909   7.778  0.00  0.00    -0.008 A 
ENDROOT
BRANCH   7  16
ATOM     16  C   LIG    1       26.006 -27.096  12.888  0.00  0.00    +0.417 C 
ATOM     17  F   LIG    1       24.659 -27.274  12.908  0.00  0.00    -0.166 F 
ATOM     18  F   LIG    1       26.224 -25.759  12.796  0.00  0.00    -0.166 F 
ATOM     19  F   LIG    1       26.467 -27.483  14.107  0.00  0.00    -0.166 F 
ENDBRANCH   7  16
BRANCH   1  20
ATOM     20  C   LIG    1       25.004 -27.010   6.245  0.00  0.00    +0.043 C 
BRANCH  20  21
ATOM     21  C   LIG    1       25.271 -25.528   5.906  0.00  0.00    +0.088 C 
BRANCH  21  25
ATOM     22  N   LIG    1       25.710 -21.793   6.161  0.00  0.00    -0.298 NA
ATOM     23  C   LIG    1       26.578 -22.813   6.785  0.00  0.00    +0.100 C 
ATOM     24  C   LIG    1       25.830 -23.866   7.638  0.00  0.00    +0.100 C 
ATOM     25  N   LIG    1       24.757 -24.583   6.917  0.00  0.00    -0.300 NA
ATOM     26  C   LIG    1       23.869 -23.574   6.293  0.00  0.00    +0.100 C 
ATOM     27  C   LIG    1       24.594 -22.479   5.466  0.00  0.00    +0.100 C 
BRANCH  22  28
ATOM     28  C   LIG    1       25.191 -20.807   7.131  0.00  0.00    +0.112 C 
BRANCH  28  29
ATOM     29  C   LIG    1       26.227 -20.323   8.159  0.00  0.00    +0.171 C 
BRANCH  29  30
ATOM     30  O   LIG    1       25.822 -20.718   9.468  0.00  0.00    -0.394 OA
ATOM     31  H   LIG    1       25.520 -21.640   9.399  0.00  0.00    +0.209 HD
ENDBRANCH  29  30
ENDBRANCH  28  29
ENDBRANCH  22  28
ENDBRANCH  21  25
ENDBRANCH  20  21
ENDBRANCH   1  20
TORSDOF 7
ENDMDL
MODEL 4
REMARK VINA RESULT:      -6.9      6.505      9.426
REMARK  Name = *****
REMARK                            x       y       z     vdW  Elec       q    Type
REMARK                         _______ _______ _______ _____ _____    ______ ____
ROOT
ATOM      1  C   LIG    1       25.859 -27.499   7.478  0.00  0.00    -0.021 C 
ATOM      2  C   LIG    1       25.972 -28.667   8.164  0.00  0.00    -0.035 C 
ATOM      3  C   LIG    1       26.848 -28.613   9.430  0.00  0.00    +0.059 C 
ATOM      4  C   LIG    1       27.295 -29.981  10.000  0.00  0.00    +0.085 C 
ATOM      5  C   LIG    1       28.058 -29.783  11.294  0.00  0.00    -0.011 C 
ATOM      6  C   LIG    1       27.754 -28.778  12.126  0.00  0.00    +0.009 C 
ATOM      7  C   LIG    1       26.646 -27.872  11.825  0.00  0.00    +0.051 C 
ATOM      8  S   LIG    1       25.840 -31.013  10.407  0.00  0.00    -0.116 S 
ATOM      9  C   LIG    1       25.022 -30.944   8.826  0.00  0.00    +0.016 A 
ATOM     10  C   LIG    1       24.163 -32.026   8.559  0.00  0.00    +0.015 A 
ATOM     11  C   LIG    1       23.608 -32.199   7.299  0.00  0.00    +0.001 A 
ATOM     12  C   LIG    1       23.961 -31.326   6.283  0.00  0.00    +0.001 A 
ATOM     13  C   LIG    1       24.792 -30.232   6.556  0.00  0.00    +0.009 A 
ATOM     14  C   LIG    1       26.231 -27.758  10.542  0.00  0.00    -0.005 C 
ATOM     15  C   LIG    1       25.255 -29.948   7.853  0.00  0.00    -0.008 A 
ENDROOT
BRANCH   7  16
ATOM     16  C   LIG    1       25.990 -27.134  12.968  0.00  0.00    +0.417 C 
ATOM     17  F   LIG    1       26.270 -25.805  12.934  0.00  0.00    -0.166 F 
ATOM     18  F   LIG    1       26.418 -27.595  14.172  0.00  0.00    -0.166 F 
ATOM     19  F   LIG    1       24.635 -27.245  12.969  0.00  0.00    -0.166 F 
ENDBRANCH   7  16
BRANCH   1  20
ATOM     20  C   LIG    1       24.998 -27.049   6.324  0.00  0.00    +0.043 C 
BRANCH  20  21
ATOM     21  C   LIG    1       24.535 -25.589   6.509  0.00  0.00    +0.088 C 
BRANCH  21  25
ATOM     22  N   LIG    1       24.619 -21.843   6.923  0.00  0.00    -0.298 NA
ATOM     23  C   LIG    1       23.900 -22.582   5.865  0.00  0.00    +0.100 C 
ATOM     24  C   LIG    1       24.767 -23.594   5.079  0.00  0.00    +0.100 C 
ATOM     25  N   LIG    1       25.455 -24.594   5.923  0.00  0.00    -0.300 NA
ATOM     26  C   LIG    1       26.192 -23.869   6.985  0.00  0.00    +0.100 C 
ATOM     27  C   LIG    1       25.360 -22.815   7.763  0.00  0.00    +0.100 C 
BRANCH  22  28
ATOM     28  C   LIG    1       25.536 -20.816   6.387  0.00  0.00    +0.112 C 
BRANCH  28  29
ATOM     29  C   LIG    1       25.153 -20.291   4.993  0.00  0.00    +0.171 C 
BRANCH  29  30
ATOM     30  O   LIG    1       26.311 -20.255   4.162  0.00  0.00    -0.394 OA
ATOM     31  H   LIG    1       27.079 -20.344   4.751  0.00  0.00    +0.209 HD
ENDBRANCH  29  30
ENDBRANCH  28  29
ENDBRANCH  22  28
ENDBRANCH  21  25
ENDBRANCH  20  21
ENDBRANCH   1  20
TORSDOF 7
ENDMDL
MODEL 5
REMARK VINA RESULT:      -6.7      7.278     10.208
REMARK  Name = *****
REMARK                            x       y       z     vdW  Elec       q    Type
REMARK                         _______ _______ _______ _____ _____    ______ ____
ROOT
ATOM      1  C   LIG    1       24.913 -28.520   6.905  0.00  0.00    -0.021 C 
ATOM      2  C   LIG    1       25.141 -29.792   7.326  0.00  0.00    -0.035 C 
ATOM      3  C   LIG    1       25.115 -30.003   8.852  0.00  0.00    +0.059 C 
ATOM      4  C   LIG    1       25.737 -31.326   9.360  0.00  0.00    +0.085 C 
ATOM      5  C   LIG    1       25.552 -31.447  10.859  0.00  0.00    -0.011 C 
ATOM      6  C   LIG    1       24.468 -30.942  11.462  0.00  0.00    +0.009 C 
ATOM      7  C   LIG    1       23.413 -30.296  10.680  0.00  0.00    +0.051 C 
ATOM      8  S   LIG    1       24.886 -32.764   8.613  0.00  0.00    -0.116 S 
ATOM      9  C   LIG    1       25.065 -32.309   6.899  0.00  0.00    +0.016 A 
ATOM     10  C   LIG    1       25.025 -33.388   5.997  0.00  0.00    +0.015 A 
ATOM     11  C   LIG    1       25.337 -33.205   4.657  0.00  0.00    +0.001 A 
ATOM     12  C   LIG    1       25.751 -31.955   4.227  0.00  0.00    +0.001 A 
ATOM     13  C   LIG    1       25.761 -30.875   5.120  0.00  0.00    +0.009 A 
ATOM     14  C   LIG    1       23.718 -29.814   9.453  0.00  0.00    -0.005 C 
ATOM     15  C   LIG    1       25.315 -30.996   6.447  0.00  0.00    -0.008 A 
ENDROOT
BRANCH   7  16
ATOM     16  C   LIG    1       22.022 -30.233  11.264  0.00  0.00    +0.417 C 
ATOM     17  F   LIG    1       21.071 -30.449  10.318  0.00  0.00    -0.166 F 
ATOM     18  F   LIG    1       21.764 -29.017  11.811  0.00  0.00    -0.166 F 
ATOM     19  F   LIG    1       21.811 -31.153  12.243  0.00  0.00    -0.166 F 
ENDBRANCH   7  16
BRANCH   1  20
ATOM     20  C   LIG    1       24.677 -27.898   5.551  0.00  0.00    +0.043 C 
BRANCH  20  21
ATOM     21  C   LIG    1       24.216 -26.431   5.683  0.00  0.00    +0.088 C 
BRANCH  21  25
ATOM     22  N   LIG    1       25.106 -23.110   7.228  0.00  0.00    -0.298 NA
ATOM     23  C   LIG    1       24.128 -23.327   6.143  0.00  0.00    +0.100 C 
ATOM     24  C   LIG    1       24.670 -24.127   4.934  0.00  0.00    +0.100 C 
ATOM     25  N   LIG    1       25.239 -25.446   5.281  0.00  0.00    -0.300 NA
ATOM     26  C   LIG    1       26.232 -25.247   6.363  0.00  0.00    +0.100 C 
ATOM     27  C   LIG    1       25.732 -24.410   7.571  0.00  0.00    +0.100 C 
BRANCH  22  28
ATOM     28  C   LIG    1       26.139 -22.112   6.884  0.00  0.00    +0.112 C 
BRANCH  28  29
ATOM     29  C   LIG    1       26.071 -20.819   7.714  0.00  0.00    +0.171 C 
BRANCH  29  30
ATOM     30  O   LIG    1       25.988 -21.145   9.099  0.00  0.00    -0.394 OA
ATOM     31  H   LIG    1       26.663 -20.610   9.552  0.00  0.00    +0.209 HD
ENDBRANCH  29  30
ENDBRANCH  28  29
ENDBRANCH  22  28
ENDBRANCH  21  25
ENDBRANCH  20  21
ENDBRANCH   1  20
TORSDOF 7
ENDMDL
MODEL 6
REMARK VINA RESULT:      -6.6      7.982     10.722
REMARK  Name = *****
REMARK                            x       y       z     vdW  Elec       q    Type
REMARK                         _______ _______ _______ _____ _____    ______ ____
ROOT
ATOM      1  C   LIG    1       25.312 -29.832  10.091  0.00  0.00    -0.021 C 
ATOM      2  C   LIG    1       25.344 -30.320   8.823  0.00  0.00    -0.035 C 
ATOM      3  C   LIG    1       24.693 -29.426   7.750  0.00  0.00    +0.059 C 
ATOM      4  C   LIG    1       24.382 -30.114   6.398  0.00  0.00    +0.085 C 
ATOM      5  C   LIG    1       23.843 -29.100   5.410  0.00  0.00    -0.011 C 
ATOM      6  C   LIG    1       24.257 -27.827   5.434  0.00  0.00    +0.009 C 
ATOM      7  C   LIG    1       25.276 -27.393   6.389  0.00  0.00    +0.051 C 
ATOM      8  S   LIG    1       25.910 -30.798   5.660  0.00  0.00    -0.116 S 
ATOM      9  C   LIG    1       26.448 -31.783   7.043  0.00  0.00    +0.016 A 
ATOM     10  C   LIG    1       27.277 -32.869   6.706  0.00  0.00    +0.015 A 
ATOM     11  C   LIG    1       27.616 -33.825   7.654  0.00  0.00    +0.001 A 
ATOM     12  C   LIG    1       27.076 -33.732   8.926  0.00  0.00    +0.001 A 
ATOM     13  C   LIG    1       26.276 -32.635   9.269  0.00  0.00    +0.009 A 
ATOM     14  C   LIG    1       25.467 -28.125   7.511  0.00  0.00    -0.005 C 
ATOM     15  C   LIG    1       26.031 -31.577   8.376  0.00  0.00    -0.008 A 
ENDROOT
BRANCH   7  16
ATOM     16  C   LIG    1       26.096 -26.168   6.060  0.00  0.00    +0.417 C 
ATOM     17  F   LIG    1       26.076 -25.263   7.073  0.00  0.00    -0.166 F 
ATOM     18  F   LIG    1       25.624 -25.533   4.956  0.00  0.00    -0.166 F 
ATOM     19  F   LIG    1       27.404 -26.450   5.817  0.00  0.00    -0.166 F 
ENDBRANCH   7  16
BRANCH   1  20
ATOM     20  C   LIG    1       25.956 -30.260  11.387  0.00  0.00    +0.043 C 
BRANCH  20  21
ATOM     21  C   LIG    1       25.155 -29.748  12.603  0.00  0.00    +0.088 C 
BRANCH  21  25
ATOM     22  N   LIG    1       22.539 -28.061  14.729  0.00  0.00    -0.298 NA
ATOM     23  C   LIG    1       22.296 -29.140  13.748  0.00  0.00    +0.100 C 
ATOM     24  C   LIG    1       22.867 -28.870  12.335  0.00  0.00    +0.100 C 
ATOM     25  N   LIG    1       24.315 -28.570  12.309  0.00  0.00    -0.300 NA
ATOM     26  C   LIG    1       24.575 -27.482  13.281  0.00  0.00    +0.100 C 
ATOM     27  C   LIG    1       23.977 -27.703  14.696  0.00  0.00    +0.100 C 
BRANCH  22  28
ATOM     28  C   LIG    1       21.701 -26.868  14.493  0.00  0.00    +0.112 C 
BRANCH  28  29
ATOM     29  C   LIG    1       20.219 -27.178  14.224  0.00  0.00    +0.171 C 
BRANCH  29  30
ATOM     30  O   LIG    1       19.881 -26.782  12.896  0.00  0.00    -0.394 OA
ATOM     31  H   LIG    1       18.934 -26.563  12.903  0.00  0.00    +0.209 HD
ENDBRANCH  29  30
ENDBRANCH  28  29
ENDBRANCH  22  28
ENDBRANCH  21  25
ENDBRANCH  20  21
ENDBRANCH   1  20
TORSDOF 7
ENDMDL
MODEL 7
REMARK VINA RESULT:      -6.0      6.938      9.866
REMARK  Name = *****
REMARK                            x       y       z     vdW  Elec       q    Type
REMARK                         _______ _______ _______ _____ _____    ______ ____
ROOT
ATOM      1  C   LIG    1       26.463 -28.274   8.586  0.00  0.00    -0.021 C 
ATOM      2  C   LIG    1       26.168 -29.112   9.615  0.00  0.00    -0.035 C 
ATOM      3  C   LIG    1       26.915 -28.834  10.934  0.00  0.00    +0.059 C 
ATOM      4  C   LIG    1       26.888 -29.978  11.978  0.00  0.00    +0.085 C 
ATOM      5  C   LIG    1       27.568 -29.532  13.256  0.00  0.00    -0.011 C 
ATOM      6  C   LIG    1       27.509 -28.256  13.659  0.00  0.00    +0.009 C 
ATOM      7  C   LIG    1       26.749 -27.268  12.894  0.00  0.00    +0.051 C 
ATOM      8  S   LIG    1       25.164 -30.398  12.425  0.00  0.00    -0.116 S 
ATOM      9  C   LIG    1       24.535 -30.691  10.784  0.00  0.00    +0.016 A 
ATOM     10  C   LIG    1       23.417 -31.544  10.726  0.00  0.00    +0.015 A 
ATOM     11  C   LIG    1       22.940 -32.007   9.507  0.00  0.00    +0.001 A 
ATOM     12  C   LIG    1       23.618 -31.670   8.347  0.00  0.00    +0.001 A 
ATOM     13  C   LIG    1       24.712 -30.796   8.403  0.00  0.00    +0.009 A 
ATOM     14  C   LIG    1       26.492 -27.515  11.589  0.00  0.00    -0.005 C 
ATOM     15  C   LIG    1       25.131 -30.196   9.604  0.00  0.00    -0.008 A 
ENDROOT
BRANCH   7  16
ATOM     16  C   LIG    1       26.252 -26.033  13.608  0.00  0.00    +0.417 C 
ATOM     17  F   LIG    1       26.715 -25.971  14.884  0.00  0.00    -0.166 F 
ATOM     18  F   LIG    1       24.896 -26.010  13.681  0.00  0.00    -0.166 F 
ATOM     19  F   LIG    1       26.629 -24.877  13.001  0.00  0.00    -0.166 F 
ENDBRANCH   7  16
BRANCH   1  20
ATOM     20  C   LIG    1       25.871 -28.063   7.215  0.00  0.00    +0.043 C 
BRANCH  20  21
ATOM     21  C   LIG    1       24.949 -26.826   7.191  0.00  0.00    +0.088 C 
BRANCH  21  25
ATOM     22  N   LIG    1       24.601 -23.090   6.818  0.00  0.00    -0.298 NA
ATOM     23  C   LIG    1       23.531 -24.086   6.602  0.00  0.00    +0.100 C 
ATOM     24  C   LIG    1       23.900 -25.232   5.629  0.00  0.00    +0.100 C 
ATOM     25  N   LIG    1       25.125 -25.975   5.997  0.00  0.00    -0.300 NA
ATOM     26  C   LIG    1       26.213 -24.990   6.207  0.00  0.00    +0.100 C 
ATOM     27  C   LIG    1       25.858 -23.805   7.145  0.00  0.00    +0.100 C 
BRANCH  22  28
ATOM     28  C   LIG    1       24.798 -22.196   5.659  0.00  0.00    +0.112 C 
BRANCH  28  29
ATOM     29  C   LIG    1       25.747 -21.016   5.924  0.00  0.00    +0.171 C 
BRANCH  29  30
ATOM     30  O   LIG    1       26.279 -20.544   4.688  0.00  0.00    -0.394 OA
ATOM     31  H   LIG    1       26.306 -19.573   4.749  0.00  0.00    +0.209 HD
ENDBRANCH  29  30
ENDBRANCH  28  29
ENDBRANCH  22  28
ENDBRANCH  21  25
ENDBRANCH  20  21
ENDBRANCH   1  20
TORSDOF 7
ENDMDL
MODEL 8
REMARK VINA RESULT:      -6.0      3.005      5.130
REMARK  Name = *****
REMARK                            x       y       z     vdW  Elec       q    Type
REMARK                         _______ _______ _______ _____ _____    ______ ____
ROOT
ATOM      1  C   LIG    1       28.253 -19.292   5.335  0.00  0.00    -0.021 C 
ATOM      2  C   LIG    1       27.101 -19.056   4.654  0.00  0.00    -0.035 C 
ATOM      3  C   LIG    1       26.138 -20.254   4.539  0.00  0.00    +0.059 C 
ATOM      4  C   LIG    1       25.027 -20.125   3.468  0.00  0.00    +0.085 C 
ATOM      5  C   LIG    1       24.099 -21.320   3.535  0.00  0.00    -0.011 C 
ATOM      6  C   LIG    1       23.839 -21.926   4.701  0.00  0.00    +0.009 C 
ATOM      7  C   LIG    1       24.412 -21.420   5.948  0.00  0.00    +0.051 C 
ATOM      8  S   LIG    1       23.997 -18.647   3.787  0.00  0.00    -0.116 S 
ATOM      9  C   LIG    1       25.298 -17.432   3.853  0.00  0.00    +0.016 A 
ATOM     10  C   LIG    1       24.894 -16.120   3.547  0.00  0.00    +0.015 A 
ATOM     11  C   LIG    1       25.832 -15.110   3.378  0.00  0.00    +0.001 A 
ATOM     12  C   LIG    1       27.179 -15.423   3.450  0.00  0.00    +0.001 A 
ATOM     13  C   LIG    1       27.579 -16.723   3.785  0.00  0.00    +0.009 A 
ATOM     14  C   LIG    1       25.526 -20.655   5.885  0.00  0.00    -0.005 C 
ATOM     15  C   LIG    1       26.654 -17.733   4.103  0.00  0.00    -0.008 A 
ENDROOT
BRANCH   7  16
ATOM     16  C   LIG    1       23.711 -21.745   7.245  0.00  0.00    +0.417 C 
ATOM     17  F   LIG    1       23.014 -20.679   7.719  0.00  0.00    -0.166 F 
ATOM     18  F   LIG    1       24.594 -22.099   8.215  0.00  0.00    -0.166 F 
ATOM     19  F   LIG    1       22.825 -22.769   7.132  0.00  0.00    -0.166 F 
ENDBRANCH   7  16
BRANCH   1  20
ATOM     20  C   LIG    1       29.368 -18.406   5.832  0.00  0.00    +0.043 C 
BRANCH  20  21
ATOM     21  C   LIG    1       30.464 -19.232   6.538  0.00  0.00    +0.088 C 
BRANCH  21  25
ATOM     22  N   LIG    1       31.342 -17.391   9.709  0.00  0.00    -0.298 NA
ATOM     23  C   LIG    1       32.140 -18.464   9.080  0.00  0.00    +0.100 C 
ATOM     24  C   LIG    1       31.353 -19.762   8.776  0.00  0.00    +0.100 C 
ATOM     25  N   LIG    1       30.148 -19.564   7.942  0.00  0.00    -0.300 NA
ATOM     26  C   LIG    1       29.330 -18.497   8.565  0.00  0.00    +0.100 C 
ATOM     27  C   LIG    1       30.101 -17.198   8.921  0.00  0.00    +0.100 C 
BRANCH  22  28
ATOM     28  C   LIG    1       31.022 -17.665  11.124  0.00  0.00    +0.112 C 
BRANCH  28  29
ATOM     29  C   LIG    1       31.899 -16.901  12.131  0.00  0.00    +0.171 C 
BRANCH  29  30
ATOM     30  O   LIG    1       31.255 -15.682  12.496  0.00  0.00    -0.394 OA
ATOM     31  H   LIG    1       30.661 -15.892  13.237  0.00  0.00    +0.209 HD
ENDBRANCH  29  30
ENDBRANCH  28  29
ENDBRANCH  22  28
ENDBRANCH  21  25
ENDBRANCH  20  21
ENDBRANCH   1  20
TORSDOF 7
ENDMDL
MODEL 9
REMARK VINA RESULT:      -5.8      7.616     10.567
REMARK  Name = *****
REMARK                            x       y       z     vdW  Elec       q    Type
REMARK                         _______ _______ _______ _____ _____    ______ ____
ROOT
ATOM      1  C   LIG    1       25.487 -29.079   8.254  0.00  0.00    -0.021 C 
ATOM      2  C   LIG    1       25.014 -30.200   8.862  0.00  0.00    -0.035 C 
ATOM      3  C   LIG    1       25.033 -30.179  10.402  0.00  0.00    +0.059 C 
ATOM      4  C   LIG    1       24.865 -31.552  11.097  0.00  0.00    +0.085 C 
ATOM      5  C   LIG    1       24.800 -31.371  12.600  0.00  0.00    -0.011 C 
ATOM      6  C   LIG    1       24.248 -30.276  13.138  0.00  0.00    +0.009 C 
ATOM      7  C   LIG    1       23.654 -29.246  12.287  0.00  0.00    +0.051 C 
ATOM      8  S   LIG    1       23.288 -32.335  10.598  0.00  0.00    -0.116 S 
ATOM      9  C   LIG    1       23.511 -32.265   8.832  0.00  0.00    +0.016 A 
ATOM     10  C   LIG    1       22.787 -33.230   8.108  0.00  0.00    +0.015 A 
ATOM     11  C   LIG    1       23.008 -33.413   6.750  0.00  0.00    +0.001 A 
ATOM     12  C   LIG    1       23.999 -32.675   6.124  0.00  0.00    +0.001 A 
ATOM     13  C   LIG    1       24.698 -31.693   6.839  0.00  0.00    +0.009 A 
ATOM     14  C   LIG    1       24.047 -29.167  10.994  0.00  0.00    -0.005 C 
ATOM     15  C   LIG    1       24.399 -31.384   8.177  0.00  0.00    -0.008 A 
ENDROOT
BRANCH   7  16
ATOM     16  C   LIG    1       22.600 -28.341  12.881  0.00  0.00    +0.417 C 
ATOM     17  F   LIG    1       22.311 -28.683  14.164  0.00  0.00    -0.166 F 
ATOM     18  F   LIG    1       21.435 -28.407  12.185  0.00  0.00    -0.166 F 
ATOM     19  F   LIG    1       22.968 -27.033  12.901  0.00  0.00    -0.166 F 
ENDBRANCH   7  16
BRANCH   1  20
ATOM     20  C   LIG    1       25.498 -28.597   6.825  0.00  0.00    +0.043 C 
BRANCH  20  21
ATOM     21  C   LIG    1       24.467 -27.469   6.610  0.00  0.00    +0.088 C 
BRANCH  21  25
ATOM     22  N   LIG    1       24.818 -23.732   6.956  0.00  0.00    -0.298 NA
ATOM     23  C   LIG    1       23.609 -24.450   6.505  0.00  0.00    +0.100 C 
ATOM     24  C   LIG    1       23.844 -25.447   5.344  0.00  0.00    +0.100 C 
ATOM     25  N   LIG    1       24.884 -26.462   5.613  0.00  0.00    -0.300 NA
ATOM     26  C   LIG    1       26.110 -25.758   6.058  0.00  0.00    +0.100 C 
ATOM     27  C   LIG    1       25.899 -24.719   7.192  0.00  0.00    +0.100 C 
BRANCH  22  28
ATOM     28  C   LIG    1       25.262 -22.694   6.003  0.00  0.00    +0.112 C 
BRANCH  28  29
ATOM     29  C   LIG    1       24.182 -21.658   5.647  0.00  0.00    +0.171 C 
BRANCH  29  30
ATOM     30  O   LIG    1       24.792 -20.387   5.432  0.00  0.00    -0.394 OA
ATOM     31  H   LIG    1       25.105 -20.078   6.300  0.00  0.00    +0.209 HD
ENDBRANCH  29  30
ENDBRANCH  28  29
ENDBRANCH  22  28
ENDBRANCH  21  25
ENDBRANCH  20  21
ENDBRANCH   1  20
TORSDOF 7
ENDMDL
