MODEL 1
REMARK VINA RESULT:      17.1      0.000      0.000
REMARK  Name = *****
REMARK                            x       y       z     vdW  Elec       q    Type
REMARK                         _______ _______ _______ _____ _____    ______ ____
ROOT
ATOM      1  C   LIG    1       22.218 -18.999   4.269  0.00  0.00    +0.021 C 
ATOM      2  C   LIG    1       20.930 -19.291   5.099  0.00  0.00    +0.016 C 
ATOM      3  C   LIG    1       19.588 -18.945   4.446  0.00  0.00    +0.001 C 
ATOM      4  C   LIG    1       19.450 -19.419   3.004  0.00  0.00    +0.000 C 
ATOM      5  C   LIG    1       20.643 -19.073   2.139  0.00  0.00    +0.001 C 
ATOM      6  C   LIG    1       21.974 -19.476   2.786  0.00  0.00    +0.016 C 
ENDROOT
BRANCH   1  10
ATOM      7  C   LIG    1       23.474 -14.696   3.913  0.00  0.00    +0.122 A 
ATOM      8  C   LIG    1       22.451 -15.037   4.781  0.00  0.00    +0.046 A 
ATOM      9  C   LIG    1       22.019 -16.393   4.928  0.00  0.00    +0.008 A 
ATOM     10  C   LIG    1       22.565 -17.472   4.213  0.00  0.00    -0.037 A 
ATOM     11  C   LIG    1       23.550 -17.047   3.368  0.00  0.00    +0.008 A 
ATOM     12  C   LIG    1       24.014 -15.761   3.248  0.00  0.00    +0.046 A 
BRANCH   7  13
ATOM     13  O   LIG    1       23.893 -13.396   3.827  0.00  0.00    -0.475 OA
BRANCH  13  14
ATOM     14  C   LIG    1       25.217 -12.954   4.292  0.00  0.00    +0.203 C 
ATOM     15  C   LIG    1       26.154 -14.182   4.353  0.00  0.00    +0.068 C 
BRANCH  14  17
ATOM     16  C   LIG    1       25.747 -11.741   1.929  0.00  0.00    +0.008 C 
ATOM     17  C   LIG    1       25.844 -11.855   3.418  0.00  0.00    +0.056 C 
ENDBRANCH  14  17
BRANCH  14  18
ATOM     18  C   LIG    1       24.990 -12.406   5.708  0.00  0.00    +0.349 C 
ATOM     19  O   LIG    1       25.773 -12.589   6.608  0.00  0.00    -0.246 OA
BRANCH  18  20
ATOM     20  O   LIG    1       23.853 -11.713   5.931  0.00  0.00    -0.478 OA
ATOM     21  H   LIG    1       23.052 -12.233   6.137  0.00  0.00    +0.295 HD
ENDBRANCH  18  20
ENDBRANCH  14  18
ENDBRANCH  13  14
ENDBRANCH   7  13
ENDBRANCH   1  10
BRANCH   1  22
ATOM     22  C   LIG    1       23.361 -19.906   4.960  0.00  0.00    -0.037 A 
ATOM     23  C   LIG    1       24.350 -20.487   4.185  0.00  0.00    +0.008 A 
ATOM     24  C   LIG    1       25.442 -21.147   4.758  0.00  0.00    +0.046 A 
ATOM     25  C   LIG    1       25.695 -21.138   6.121  0.00  0.00    +0.122 A 
ATOM     26  C   LIG    1       24.628 -20.789   6.914  0.00  0.00    +0.046 A 
ATOM     27  C   LIG    1       23.444 -20.345   6.301  0.00  0.00    +0.008 A 
BRANCH  25  28
ATOM     28  O   LIG    1       26.859 -21.481   6.750  0.00  0.00    -0.475 OA
BRANCH  28  29
ATOM     29  C   LIG    1       28.123 -20.909   6.323  0.00  0.00    +0.203 C 
ATOM     30  C   LIG    1       29.298 -21.571   7.055  0.00  0.00    +0.068 C 
BRANCH  29  31
ATOM     31  C   LIG    1       28.152 -19.420   6.818  0.00  0.00    +0.349 C 
ATOM     32  O   LIG    1       29.139 -18.803   7.058  0.00  0.00    -0.246 OA
BRANCH  31  33
ATOM     33  O   LIG    1       26.922 -18.863   6.902  0.00  0.00    -0.478 OA
ATOM     34  H   LIG    1       26.848 -18.168   7.566  0.00  0.00    +0.295 HD
ENDBRANCH  31  33
ENDBRANCH  29  31
BRANCH  29  35
ATOM     35  C   LIG    1       28.274 -20.852   4.778  0.00  0.00    +0.056 C 
ATOM     36  C   LIG    1       29.235 -19.771   4.295  0.00  0.00    +0.008 C 
ENDBRANCH  29  35
ENDBRANCH  28  29
ENDBRANCH  25  28
ENDBRANCH   1  22
TORSDOF 12
ENDMDL
MODEL 2
REMARK VINA RESULT:      19.9      2.728      7.757
REMARK  Name = *****
REMARK                            x       y       z     vdW  Elec       q    Type
REMARK                         _______ _______ _______ _____ _____    ______ ____
ROOT
ATOM      1  C   LIG    1       27.535 -19.050   4.798  0.00  0.00    +0.021 C 
ATOM      2  C   LIG    1       27.883 -18.867   6.307  0.00  0.00    +0.016 C 
ATOM      3  C   LIG    1       28.384 -20.102   7.061  0.00  0.00    +0.001 C 
ATOM      4  C   LIG    1       29.458 -20.895   6.326  0.00  0.00    +0.000 C 
ATOM      5  C   LIG    1       29.115 -21.176   4.878  0.00  0.00    +0.001 C 
ATOM      6  C   LIG    1       28.669 -19.916   4.126  0.00  0.00    +0.016 C 
ENDROOT
BRANCH   1  10
ATOM      7  C   LIG    1       23.550 -20.973   3.992  0.00  0.00    +0.122 A 
ATOM      8  C   LIG    1       24.427 -21.571   4.879  0.00  0.00    +0.046 A 
ATOM      9  C   LIG    1       25.705 -20.995   5.168  0.00  0.00    +0.008 A 
ATOM     10  C   LIG    1       26.182 -19.811   4.580  0.00  0.00    -0.037 A 
ATOM     11  C   LIG    1       25.267 -19.299   3.705  0.00  0.00    +0.008 A 
ATOM     12  C   LIG    1       24.017 -19.808   3.452  0.00  0.00    +0.046 A 
BRANCH   7  13
ATOM     13  O   LIG    1       22.319 -21.526   3.770  0.00  0.00    -0.475 OA
BRANCH  13  14
ATOM     14  C   LIG    1       21.096 -21.038   4.427  0.00  0.00    +0.203 C 
ATOM     15  C   LIG    1       19.877 -21.457   3.574  0.00  0.00    +0.068 C 
BRANCH  14  17
ATOM     16  C   LIG    1       21.964 -21.511   6.949  0.00  0.00    +0.008 C 
ATOM     17  C   LIG    1       20.927 -21.541   5.870  0.00  0.00    +0.056 C 
ENDBRANCH  14  17
BRANCH  14  18
ATOM     18  C   LIG    1       21.221 -19.508   4.435  0.00  0.00    +0.349 C 
ATOM     19  O   LIG    1       20.697 -18.810   3.601  0.00  0.00    -0.246 OA
BRANCH  18  20
ATOM     20  O   LIG    1       21.965 -18.951   5.413  0.00  0.00    -0.478 OA
ATOM     21  H   LIG    1       22.711 -19.480   5.757  0.00  0.00    +0.295 HD
ENDBRANCH  18  20
ENDBRANCH  14  18
ENDBRANCH  13  14
ENDBRANCH   7  13
ENDBRANCH   1  10
BRANCH   1  22
ATOM     22  C   LIG    1       27.549 -17.554   4.191  0.00  0.00    -0.037 A 
ATOM     23  C   LIG    1       26.457 -17.078   3.488  0.00  0.00    +0.008 A 
ATOM     24  C   LIG    1       26.366 -15.742   3.083  0.00  0.00    +0.046 A 
ATOM     25  C   LIG    1       27.276 -14.774   3.479  0.00  0.00    +0.122 A 
ATOM     26  C   LIG    1       28.472 -15.253   3.958  0.00  0.00    +0.046 A 
ATOM     27  C   LIG    1       28.625 -16.638   4.139  0.00  0.00    +0.008 A 
BRANCH  25  28
ATOM     28  O   LIG    1       27.130 -13.418   3.398  0.00  0.00    -0.475 OA
BRANCH  28  29
ATOM     29  C   LIG    1       27.016 -12.616   4.602  0.00  0.00    +0.203 C 
ATOM     30  C   LIG    1       25.999 -11.482   4.411  0.00  0.00    +0.068 C 
BRANCH  29  31
ATOM     31  C   LIG    1       28.384 -11.874   4.800  0.00  0.00    +0.349 C 
ATOM     32  O   LIG    1       29.120 -11.560   3.920  0.00  0.00    -0.246 OA
BRANCH  31  33
ATOM     33  O   LIG    1       28.641 -11.565   6.091  0.00  0.00    -0.478 OA
ATOM     34  H   LIG    1       28.801 -10.627   6.248  0.00  0.00    +0.295 HD
ENDBRANCH  31  33
ENDBRANCH  29  31
BRANCH  29  35
ATOM     35  C   LIG    1       26.799 -13.469   5.882  0.00  0.00    +0.056 C 
ATOM     36  C   LIG    1       28.055 -13.630   6.733  0.00  0.00    +0.008 C 
ENDBRANCH  29  35
ENDBRANCH  28  29
ENDBRANCH  25  28
ENDBRANCH   1  22
TORSDOF 12
ENDMDL
