MODEL 1
REMARK VINA RESULT:      -4.2      0.000      0.000
REMARK  Name = *****
REMARK                            x       y       z     vdW  Elec       q    Type
REMARK                         _______ _______ _______ _____ _____    ______ ____
ROOT
ATOM      1  C   LIG    1       25.511 -19.728   3.819  0.00  0.00    +0.177 C 
ENDROOT
BRANCH   1   2
ATOM      2  O   LIG    1       25.612 -18.308   3.578  0.00  0.00    -0.387 OA
ATOM      3  H   LIG    1       25.304 -18.107   2.678  0.00  0.00    +0.210 HD
ENDBRANCH   1   2
BRANCH   1   4
ATOM      4  C   LIG    1       26.274 -20.021   5.149  0.00  0.00    +0.185 C 
BRANCH   4   5
ATOM      5  O   LIG    1       26.082 -21.386   5.587  0.00  0.00    -0.386 OA
ATOM      6  H   LIG    1       26.871 -21.648   6.112  0.00  0.00    +0.210 HD
ENDBRANCH   4   5
BRANCH   4   7
ATOM      7  C   LIG    1       27.797 -19.784   5.171  0.00  0.00    +0.254 C 
BRANCH   7   9
ATOM      8  O   LIG    1       28.419 -21.196   7.061  0.00  0.00    -0.248 OA
ATOM      9  C   LIG    1       28.474 -20.133   6.499  0.00  0.00    +0.336 C 
BRANCH   9  10
ATOM     10  O   LIG    1       29.188 -19.073   6.989  0.00  0.00    -0.479 OA
ATOM     11  H   LIG    1       30.115 -19.119   6.663  0.00  0.00    +0.295 HD
ENDBRANCH   9  10
ENDBRANCH   7   9
BRANCH   7  12
ATOM     12  O   LIG    1       28.162 -18.440   4.815  0.00  0.00    -0.378 OA
ATOM     13  H   LIG    1       28.476 -18.013   5.639  0.00  0.00    +0.211 HD
ENDBRANCH   7  12
ENDBRANCH   4   7
ENDBRANCH   1   4
BRANCH   1  14
ATOM     14  C   LIG    1       24.023 -20.136   3.830  0.00  0.00    +0.176 C 
BRANCH  14  15
ATOM     15  O   LIG    1       23.926 -21.572   3.973  0.00  0.00    -0.387 OA
ATOM     16  H   LIG    1       24.538 -21.940   3.298  0.00  0.00    +0.210 HD
ENDBRANCH  14  15
BRANCH  14  17
ATOM     17  C   LIG    1       23.182 -19.466   4.934  0.00  0.00    +0.171 C 
BRANCH  17  18
ATOM     18  O   LIG    1       22.549 -20.539   5.668  0.00  0.00    -0.387 OA
ATOM     19  H   LIG    1       21.698 -20.710   5.217  0.00  0.00    +0.210 HD
ENDBRANCH  17  18
BRANCH  17  20
ATOM     20  C   LIG    1       22.096 -18.516   4.408  0.00  0.00    +0.190 C 
BRANCH  20  21
ATOM     21  O   LIG    1       22.617 -17.186   4.446  0.00  0.00    -0.392 OA
ATOM     22  H   LIG    1       22.818 -16.976   5.378  0.00  0.00    +0.209 HD
ENDBRANCH  20  21
ENDBRANCH  17  20
ENDBRANCH  14  17
ENDBRANCH   1  14
TORSDOF 13
ENDMDL
MODEL 2
REMARK VINA RESULT:      -4.0      5.369      6.576
REMARK  Name = *****
REMARK                            x       y       z     vdW  Elec       q    Type
REMARK                         _______ _______ _______ _____ _____    ______ ____
ROOT
ATOM      1  C   LIG    1       25.955 -14.349   3.025  0.00  0.00    +0.177 C 
ENDROOT
BRANCH   1   2
ATOM      2  O   LIG    1       26.829 -14.137   1.896  0.00  0.00    -0.387 OA
ATOM      3  H   LIG    1       27.104 -13.206   1.866  0.00  0.00    +0.210 HD
ENDBRANCH   1   2
BRANCH   1   4
ATOM      4  C   LIG    1       26.865 -14.551   4.276  0.00  0.00    +0.185 C 
BRANCH   4   5
ATOM      5  O   LIG    1       28.101 -15.220   3.936  0.00  0.00    -0.386 OA
ATOM      6  H   LIG    1       28.134 -15.313   2.958  0.00  0.00    +0.210 HD
ENDBRANCH   4   5
BRANCH   4   7
ATOM      7  C   LIG    1       27.273 -13.300   5.080  0.00  0.00    +0.254 C 
BRANCH   7   9
ATOM      8  O   LIG    1       29.192 -12.882   3.633  0.00  0.00    -0.248 OA
ATOM      9  C   LIG    1       28.621 -12.699   4.677  0.00  0.00    +0.336 C 
BRANCH   9  10
ATOM     10  O   LIG    1       29.119 -11.888   5.660  0.00  0.00    -0.479 OA
ATOM     11  H   LIG    1       28.583 -11.065   5.715  0.00  0.00    +0.295 HD
ENDBRANCH   9  10
ENDBRANCH   7   9
BRANCH   7  12
ATOM     12  O   LIG    1       27.281 -13.523   6.501  0.00  0.00    -0.378 OA
ATOM     13  H   LIG    1       27.409 -14.486   6.627  0.00  0.00    +0.211 HD
ENDBRANCH   7  12
ENDBRANCH   4   7
ENDBRANCH   1   4
BRANCH   1  14
ATOM     14  C   LIG    1       24.969 -13.165   3.132  0.00  0.00    +0.176 C 
BRANCH  14  15
ATOM     15  O   LIG    1       24.458 -12.854   1.816  0.00  0.00    -0.387 OA
ATOM     16  H   LIG    1       24.564 -11.882   1.722  0.00  0.00    +0.210 HD
ENDBRANCH  14  15
BRANCH  14  17
ATOM     17  C   LIG    1       23.783 -13.404   4.086  0.00  0.00    +0.171 C 
BRANCH  17  18
ATOM     18  O   LIG    1       23.850 -12.360   5.084  0.00  0.00    -0.387 OA
ATOM     19  H   LIG    1       22.937 -12.024   5.187  0.00  0.00    +0.210 HD
ENDBRANCH  17  18
BRANCH  17  20
ATOM     20  C   LIG    1       23.807 -14.768   4.792  0.00  0.00    +0.190 C 
BRANCH  20  21
ATOM     21  O   LIG    1       22.641 -15.492   4.391  0.00  0.00    -0.392 OA
ATOM     22  H   LIG    1       22.033 -14.858   3.967  0.00  0.00    +0.209 HD
ENDBRANCH  20  21
ENDBRANCH  17  20
ENDBRANCH  14  17
ENDBRANCH   1  14
TORSDOF 13
ENDMDL
MODEL 3
REMARK VINA RESULT:      -3.7      2.769      4.449
REMARK  Name = *****
REMARK                            x       y       z     vdW  Elec       q    Type
REMARK                         _______ _______ _______ _____ _____    ______ ____
ROOT
ATOM      1  C   LIG    1       25.490 -18.437   3.359  0.00  0.00    +0.177 C 
ENDROOT
BRANCH   1   2
ATOM      2  O   LIG    1       24.092 -18.149   3.574  0.00  0.00    -0.387 OA
ATOM      3  H   LIG    1       23.731 -17.686   2.800  0.00  0.00    +0.210 HD
ENDBRANCH   1   2
BRANCH   1   4
ATOM      4  C   LIG    1       26.291 -17.173   3.804  0.00  0.00    +0.185 C 
BRANCH   4   5
ATOM      5  O   LIG    1       27.701 -17.301   3.510  0.00  0.00    -0.386 OA
ATOM      6  H   LIG    1       28.143 -17.672   4.306  0.00  0.00    +0.210 HD
ENDBRANCH   4   5
BRANCH   4   7
ATOM      7  C   LIG    1       25.864 -15.810   3.226  0.00  0.00    +0.254 C 
BRANCH   7   9
ATOM      8  O   LIG    1       27.790 -14.536   4.013  0.00  0.00    -0.248 OA
ATOM      9  C   LIG    1       26.987 -14.774   3.148  0.00  0.00    +0.336 C 
BRANCH   9  10
ATOM     10  O   LIG    1       26.991 -14.131   1.939  0.00  0.00    -0.479 OA
ATOM     11  H   LIG    1       26.285 -14.504   1.364  0.00  0.00    +0.295 HD
ENDBRANCH   9  10
ENDBRANCH   7   9
BRANCH   7  12
ATOM     12  O   LIG    1       24.753 -15.224   3.927  0.00  0.00    -0.378 OA
ATOM     13  H   LIG    1       24.504 -14.421   3.424  0.00  0.00    +0.211 HD
ENDBRANCH   7  12
ENDBRANCH   4   7
ENDBRANCH   1   4
BRANCH   1  14
ATOM     14  C   LIG    1       25.863 -19.732   4.111  0.00  0.00    +0.176 C 
BRANCH  14  15
ATOM     15  O   LIG    1       27.069 -19.505   4.877  0.00  0.00    -0.387 OA
ATOM     16  H   LIG    1       27.531 -18.769   4.418  0.00  0.00    +0.210 HD
ENDBRANCH  14  15
BRANCH  14  17
ATOM     17  C   LIG    1       24.766 -20.264   5.054  0.00  0.00    +0.171 C 
BRANCH  17  18
ATOM     18  O   LIG    1       25.406 -20.493   6.329  0.00  0.00    -0.387 OA
ATOM     19  H   LIG    1       24.829 -21.118   6.813  0.00  0.00    +0.210 HD
ENDBRANCH  17  18
BRANCH  17  20
ATOM     20  C   LIG    1       24.113 -21.572   4.583  0.00  0.00    +0.190 C 
BRANCH  20  21
ATOM     21  O   LIG    1       22.701 -21.455   4.779  0.00  0.00    -0.392 OA
ATOM     22  H   LIG    1       22.543 -20.640   5.292  0.00  0.00    +0.209 HD
ENDBRANCH  20  21
ENDBRANCH  17  20
ENDBRANCH  14  17
ENDBRANCH   1  14
TORSDOF 13
ENDMDL
MODEL 4
REMARK VINA RESULT:      -3.7      4.651      6.415
REMARK  Name = *****
REMARK                            x       y       z     vdW  Elec       q    Type
REMARK                         _______ _______ _______ _____ _____    ______ ____
ROOT
ATOM      1  C   LIG    1       25.698 -14.298   3.009  0.00  0.00    +0.177 C 
ENDROOT
BRANCH   1   2
ATOM      2  O   LIG    1       26.699 -14.566   2.004  0.00  0.00    -0.387 OA
ATOM      3  H   LIG    1       26.655 -13.886   1.310  0.00  0.00    +0.210 HD
ENDBRANCH   1   2
BRANCH   1   4
ATOM      4  C   LIG    1       25.422 -15.644   3.749  0.00  0.00    +0.185 C 
BRANCH   4   5
ATOM      5  O   LIG    1       24.005 -15.882   3.917  0.00  0.00    -0.386 OA
ATOM      6  H   LIG    1       23.696 -15.339   4.677  0.00  0.00    +0.210 HD
ENDBRANCH   4   5
BRANCH   4   7
ATOM      7  C   LIG    1       25.994 -16.935   3.132  0.00  0.00    +0.254 C 
BRANCH   7   9
ATOM      8  O   LIG    1       24.096 -18.423   3.506  0.00  0.00    -0.248 OA
ATOM      9  C   LIG    1       25.281 -18.217   3.569  0.00  0.00    +0.336 C 
BRANCH   9  10
ATOM     10  O   LIG    1       26.169 -19.145   4.044  0.00  0.00    -0.479 OA
ATOM     11  H   LIG    1       25.938 -20.034   3.692  0.00  0.00    +0.295 HD
ENDBRANCH   9  10
ENDBRANCH   7   9
BRANCH   7  12
ATOM     12  O   LIG    1       27.403 -17.096   3.369  0.00  0.00    -0.378 OA
ATOM     13  H   LIG    1       27.764 -16.194   3.500  0.00  0.00    +0.211 HD
ENDBRANCH   7  12
ENDBRANCH   4   7
ENDBRANCH   1   4
BRANCH   1  14
ATOM     14  C   LIG    1       26.189 -13.153   3.920  0.00  0.00    +0.176 C 
BRANCH  14  15
ATOM     15  O   LIG    1       25.137 -12.801   4.848  0.00  0.00    -0.387 OA
ATOM     16  H   LIG    1       25.022 -13.593   5.419  0.00  0.00    +0.210 HD
ENDBRANCH  14  15
BRANCH  14  17
ATOM     17  C   LIG    1       27.470 -13.470   4.715  0.00  0.00    +0.171 C 
BRANCH  17  18
ATOM     18  O   LIG    1       27.150 -13.244   6.106  0.00  0.00    -0.387 OA
ATOM     19  H   LIG    1       27.194 -12.276   6.240  0.00  0.00    +0.210 HD
ENDBRANCH  17  18
BRANCH  17  20
ATOM     20  C   LIG    1       28.677 -12.599   4.335  0.00  0.00    +0.190 C 
BRANCH  20  21
ATOM     21  O   LIG    1       29.056 -11.844   5.489  0.00  0.00    -0.392 OA
ATOM     22  H   LIG    1       29.930 -12.169   5.778  0.00  0.00    +0.209 HD
ENDBRANCH  20  21
ENDBRANCH  17  20
ENDBRANCH  14  17
ENDBRANCH   1  14
TORSDOF 13
ENDMDL
MODEL 5
REMARK VINA RESULT:      -3.6      5.432      7.821
REMARK  Name = *****
REMARK                            x       y       z     vdW  Elec       q    Type
REMARK                         _______ _______ _______ _____ _____    ______ ____
ROOT
ATOM      1  C   LIG    1       26.412 -13.860   3.147  0.00  0.00    +0.177 C 
ENDROOT
BRANCH   1   2
ATOM      2  O   LIG    1       27.220 -14.104   1.976  0.00  0.00    -0.387 OA
ATOM      3  H   LIG    1       28.141 -14.264   2.241  0.00  0.00    +0.210 HD
ENDBRANCH   1   2
BRANCH   1   4
ATOM      4  C   LIG    1       25.022 -14.522   2.889  0.00  0.00    +0.185 C 
BRANCH   4   5
ATOM      5  O   LIG    1       25.000 -15.903   3.316  0.00  0.00    -0.386 OA
ATOM      6  H   LIG    1       24.299 -15.996   4.000  0.00  0.00    +0.210 HD
ENDBRANCH   4   5
BRANCH   4   7
ATOM      7  C   LIG    1       23.783 -13.865   3.528  0.00  0.00    +0.254 C 
BRANCH   7   9
ATOM      8  O   LIG    1       24.028 -11.780   4.771  0.00  0.00    -0.248 OA
ATOM      9  C   LIG    1       23.896 -12.351   3.720  0.00  0.00    +0.336 C 
BRANCH   9  10
ATOM     10  O   LIG    1       23.842 -11.691   2.521  0.00  0.00    -0.479 OA
ATOM     11  H   LIG    1       24.753 -11.469   2.225  0.00  0.00    +0.295 HD
ENDBRANCH   9  10
ENDBRANCH   7   9
BRANCH   7  12
ATOM     12  O   LIG    1       23.420 -14.456   4.788  0.00  0.00    -0.378 OA
ATOM     13  H   LIG    1       22.734 -15.127   4.588  0.00  0.00    +0.211 HD
ENDBRANCH   7  12
ENDBRANCH   4   7
ENDBRANCH   1   4
BRANCH   1  14
ATOM     14  C   LIG    1       27.154 -14.388   4.393  0.00  0.00    +0.176 C 
BRANCH  14  15
ATOM     15  O   LIG    1       28.133 -15.369   3.982  0.00  0.00    -0.387 OA
ATOM     16  H   LIG    1       27.634 -16.020   3.441  0.00  0.00    +0.210 HD
ENDBRANCH  14  15
BRANCH  14  17
ATOM     17  C   LIG    1       27.856 -13.300   5.229  0.00  0.00    +0.171 C 
BRANCH  17  18
ATOM     18  O   LIG    1       26.807 -12.559   5.892  0.00  0.00    -0.387 OA
ATOM     19  H   LIG    1       27.194 -11.691   6.123  0.00  0.00    +0.210 HD
ENDBRANCH  17  18
BRANCH  17  20
ATOM     20  C   LIG    1       28.708 -12.325   4.404  0.00  0.00    +0.190 C 
BRANCH  20  21
ATOM     21  O   LIG    1       29.475 -13.090   3.470  0.00  0.00    -0.392 OA
ATOM     22  H   LIG    1       29.296 -14.033   3.647  0.00  0.00    +0.209 HD
ENDBRANCH  20  21
ENDBRANCH  17  20
ENDBRANCH  14  17
ENDBRANCH   1  14
TORSDOF 13
ENDMDL
MODEL 6
REMARK VINA RESULT:      -3.5      1.406      2.061
REMARK  Name = *****
REMARK                            x       y       z     vdW  Elec       q    Type
REMARK                         _______ _______ _______ _____ _____    ______ ____
ROOT
ATOM      1  C   LIG    1       25.235 -21.562   5.505  0.00  0.00    +0.177 C 
ENDROOT
BRANCH   1   2
ATOM      2  O   LIG    1       25.177 -21.254   4.095  0.00  0.00    -0.387 OA
ATOM      3  H   LIG    1       25.370 -20.312   3.959  0.00  0.00    +0.210 HD
ENDBRANCH   1   2
BRANCH   1   4
ATOM      4  C   LIG    1       26.414 -20.735   6.106  0.00  0.00    +0.185 C 
BRANCH   4   5
ATOM      5  O   LIG    1       27.330 -21.572   6.849  0.00  0.00    -0.386 OA
ATOM      6  H   LIG    1       28.243 -21.251   6.670  0.00  0.00    +0.210 HD
ENDBRANCH   4   5
BRANCH   4   7
ATOM      7  C   LIG    1       27.287 -19.916   5.135  0.00  0.00    +0.254 C 
BRANCH   7   9
ATOM      8  O   LIG    1       28.829 -19.340   6.936  0.00  0.00    -0.248 OA
ATOM      9  C   LIG    1       28.477 -19.214   5.791  0.00  0.00    +0.336 C 
BRANCH   9  10
ATOM     10  O   LIG    1       29.134 -18.408   4.900  0.00  0.00    -0.479 OA
ATOM     11  H   LIG    1       29.580 -17.675   5.383  0.00  0.00    +0.295 HD
ENDBRANCH   9  10
ENDBRANCH   7   9
BRANCH   7  12
ATOM     12  O   LIG    1       26.537 -18.940   4.391  0.00  0.00    -0.378 OA
ATOM     13  H   LIG    1       25.604 -19.241   4.405  0.00  0.00    +0.211 HD
ENDBRANCH   7  12
ENDBRANCH   4   7
ENDBRANCH   1   4
BRANCH   1  14
ATOM     14  C   LIG    1       23.859 -21.278   6.143  0.00  0.00    +0.176 C 
BRANCH  14  15
ATOM     15  O   LIG    1       23.983 -20.167   7.060  0.00  0.00    -0.387 OA
ATOM     16  H   LIG    1       23.172 -20.199   7.614  0.00  0.00    +0.210 HD
ENDBRANCH  14  15
BRANCH  14  17
ATOM     17  C   LIG    1       22.735 -20.970   5.134  0.00  0.00    +0.171 C 
BRANCH  17  18
ATOM     18  O   LIG    1       23.165 -21.523   3.870  0.00  0.00    -0.387 OA
ATOM     19  H   LIG    1       22.392 -21.998   3.506  0.00  0.00    +0.210 HD
ENDBRANCH  17  18
BRANCH  17  20
ATOM     20  C   LIG    1       22.448 -19.472   4.950  0.00  0.00    +0.190 C 
BRANCH  20  21
ATOM     21  O   LIG    1       23.397 -18.953   4.015  0.00  0.00    -0.392 OA
ATOM     22  H   LIG    1       24.200 -18.713   4.514  0.00  0.00    +0.209 HD
ENDBRANCH  20  21
ENDBRANCH  17  20
ENDBRANCH  14  17
ENDBRANCH   1  14
TORSDOF 13
ENDMDL
MODEL 7
REMARK VINA RESULT:      -3.5      3.136      4.898
REMARK  Name = *****
REMARK                            x       y       z     vdW  Elec       q    Type
REMARK                         _______ _______ _______ _____ _____    ______ ____
ROOT
ATOM      1  C   LIG    1       26.098 -17.474   3.249  0.00  0.00    +0.177 C 
ENDROOT
BRANCH   1   2
ATOM      2  O   LIG    1       27.361 -17.514   3.946  0.00  0.00    -0.387 OA
ATOM      3  H   LIG    1       27.406 -18.312   4.497  0.00  0.00    +0.210 HD
ENDBRANCH   1   2
BRANCH   1   4
ATOM      4  C   LIG    1       25.156 -18.502   3.949  0.00  0.00    +0.185 C 
BRANCH   4   5
ATOM      5  O   LIG    1       23.842 -18.521   3.347  0.00  0.00    -0.386 OA
ATOM      6  H   LIG    1       23.464 -19.420   3.477  0.00  0.00    +0.210 HD
ENDBRANCH   4   5
BRANCH   4   7
ATOM      7  C   LIG    1       25.613 -19.973   4.006  0.00  0.00    +0.254 C 
BRANCH   7   9
ATOM      8  O   LIG    1       24.483 -21.092   5.857  0.00  0.00    -0.248 OA
ATOM      9  C   LIG    1       24.614 -20.922   4.672  0.00  0.00    +0.336 C 
BRANCH   9  10
ATOM     10  O   LIG    1       23.845 -21.570   3.743  0.00  0.00    -0.479 OA
ATOM     11  H   LIG    1       22.927 -21.217   3.769  0.00  0.00    +0.295 HD
ENDBRANCH   9  10
ENDBRANCH   7   9
BRANCH   7  12
ATOM     12  O   LIG    1       26.892 -20.142   4.641  0.00  0.00    -0.378 OA
ATOM     13  H   LIG    1       26.969 -21.095   4.855  0.00  0.00    +0.211 HD
ENDBRANCH   7  12
ENDBRANCH   4   7
ENDBRANCH   1   4
BRANCH   1  14
ATOM     14  C   LIG    1       25.571 -16.024   3.237  0.00  0.00    +0.176 C 
BRANCH  14  15
ATOM     15  O   LIG    1       24.405 -15.936   4.089  0.00  0.00    -0.387 OA
ATOM     16  H   LIG    1       24.700 -16.274   4.963  0.00  0.00    +0.210 HD
ENDBRANCH  14  15
BRANCH  14  17
ATOM     17  C   LIG    1       26.597 -14.965   3.684  0.00  0.00    +0.171 C 
BRANCH  17  18
ATOM     18  O   LIG    1       25.929 -14.145   4.669  0.00  0.00    -0.387 OA
ATOM     19  H   LIG    1       25.942 -14.658   5.502  0.00  0.00    +0.210 HD
ENDBRANCH  17  18
BRANCH  17  20
ATOM     20  C   LIG    1       27.105 -14.063   2.550  0.00  0.00    +0.190 C 
BRANCH  20  21
ATOM     21  O   LIG    1       28.228 -13.327   3.041  0.00  0.00    -0.392 OA
ATOM     22  H   LIG    1       28.775 -13.942   3.566  0.00  0.00    +0.209 HD
ENDBRANCH  20  21
ENDBRANCH  17  20
ENDBRANCH  14  17
ENDBRANCH   1  14
TORSDOF 13
ENDMDL
MODEL 8
REMARK VINA RESULT:      -3.5      5.577      6.644
REMARK  Name = *****
REMARK                            x       y       z     vdW  Elec       q    Type
REMARK                         _______ _______ _______ _____ _____    ______ ____
ROOT
ATOM      1  C   LIG    1       25.623 -14.812   2.982  0.00  0.00    +0.177 C 
ENDROOT
BRANCH   1   2
ATOM      2  O   LIG    1       26.034 -14.066   1.816  0.00  0.00    -0.387 OA
ATOM      3  H   LIG    1       26.349 -13.187   2.084  0.00  0.00    +0.210 HD
ENDBRANCH   1   2
BRANCH   1   4
ATOM      4  C   LIG    1       26.869 -14.927   3.914  0.00  0.00    +0.185 C 
BRANCH   4   5
ATOM      5  O   LIG    1       27.588 -16.163   3.697  0.00  0.00    -0.386 OA
ATOM      6  H   LIG    1       27.355 -16.779   4.427  0.00  0.00    +0.210 HD
ENDBRANCH   4   5
BRANCH   4   7
ATOM      7  C   LIG    1       27.927 -13.808   3.842  0.00  0.00    +0.254 C 
BRANCH   7   9
ATOM      8  O   LIG    1       28.785 -12.027   5.272  0.00  0.00    -0.248 OA
ATOM      9  C   LIG    1       28.025 -12.945   5.102  0.00  0.00    +0.336 C 
BRANCH   9  10
ATOM     10  O   LIG    1       27.111 -13.333   6.044  0.00  0.00    -0.479 OA
ATOM     11  H   LIG    1       26.747 -12.540   6.498  0.00  0.00    +0.295 HD
ENDBRANCH   9  10
ENDBRANCH   7   9
BRANCH   7  12
ATOM     12  O   LIG    1       27.753 -12.941   2.709  0.00  0.00    -0.378 OA
ATOM     13  H   LIG    1       28.363 -12.186   2.844  0.00  0.00    +0.211 HD
ENDBRANCH   7  12
ENDBRANCH   4   7
ENDBRANCH   1   4
BRANCH   1  14
ATOM     14  C   LIG    1       24.403 -14.118   3.623  0.00  0.00    +0.176 C 
BRANCH  14  15
ATOM     15  O   LIG    1       24.116 -14.743   4.895  0.00  0.00    -0.387 OA
ATOM     16  H   LIG    1       23.580 -14.086   5.390  0.00  0.00    +0.210 HD
ENDBRANCH  14  15
BRANCH  14  17
ATOM     17  C   LIG    1       24.568 -12.601   3.839  0.00  0.00    +0.171 C 
BRANCH  17  18
ATOM     18  O   LIG    1       23.829 -12.280   5.039  0.00  0.00    -0.387 OA
ATOM     19  H   LIG    1       23.522 -13.134   5.403  0.00  0.00    +0.210 HD
ENDBRANCH  17  18
BRANCH  17  20
ATOM     20  C   LIG    1       24.037 -11.739   2.684  0.00  0.00    +0.190 C 
BRANCH  20  21
ATOM     21  O   LIG    1       25.132 -11.447   1.812  0.00  0.00    -0.392 OA
ATOM     22  H   LIG    1       25.209 -10.476   1.754  0.00  0.00    +0.209 HD
ENDBRANCH  20  21
ENDBRANCH  17  20
ENDBRANCH  14  17
ENDBRANCH   1  14
TORSDOF 13
ENDMDL
MODEL 9
REMARK VINA RESULT:      -3.5      1.078      5.189
REMARK  Name = *****
REMARK                            x       y       z     vdW  Elec       q    Type
REMARK                         _______ _______ _______ _____ _____    ______ ____
ROOT
ATOM      1  C   LIG    1       25.199 -19.333   4.488  0.00  0.00    +0.177 C 
ENDROOT
BRANCH   1   2
ATOM      2  O   LIG    1       25.530 -18.398   3.440  0.00  0.00    -0.387 OA
ATOM      3  H   LIG    1       25.830 -17.561   3.831  0.00  0.00    +0.210 HD
ENDBRANCH   1   2
BRANCH   1   4
ATOM      4  C   LIG    1       23.957 -20.144   4.003  0.00  0.00    +0.185 C 
BRANCH   4   5
ATOM      5  O   LIG    1       24.179 -21.570   4.096  0.00  0.00    -0.386 OA
ATOM      6  H   LIG    1       24.819 -21.728   4.827  0.00  0.00    +0.210 HD
ENDBRANCH   4   5
BRANCH   4   7
ATOM      7  C   LIG    1       22.608 -19.883   4.702  0.00  0.00    +0.254 C 
BRANCH   7   9
ATOM      8  O   LIG    1       20.946 -18.605   3.455  0.00  0.00    -0.248 OA
ATOM      9  C   LIG    1       21.876 -18.629   4.219  0.00  0.00    +0.336 C 
BRANCH   9  10
ATOM     10  O   LIG    1       22.401 -17.496   4.781  0.00  0.00    -0.479 OA
ATOM     11  H   LIG    1       22.930 -17.736   5.575  0.00  0.00    +0.295 HD
ENDBRANCH   9  10
ENDBRANCH   7   9
BRANCH   7  12
ATOM     12  O   LIG    1       22.720 -19.820   6.134  0.00  0.00    -0.378 OA
ATOM     13  H   LIG    1       23.530 -19.303   6.324  0.00  0.00    +0.211 HD
ENDBRANCH   7  12
ENDBRANCH   4   7
ENDBRANCH   1   4
BRANCH   1  14
ATOM     14  C   LIG    1       26.439 -20.191   4.814  0.00  0.00    +0.176 C 
BRANCH  14  15
ATOM     15  O   LIG    1       27.615 -19.350   4.797  0.00  0.00    -0.387 OA
ATOM     16  H   LIG    1       28.332 -19.915   4.433  0.00  0.00    +0.210 HD
ENDBRANCH  14  15
BRANCH  14  17
ATOM     17  C   LIG    1       26.372 -20.929   6.165  0.00  0.00    +0.171 C 
BRANCH  17  18
ATOM     18  O   LIG    1       25.201 -20.423   6.844  0.00  0.00    -0.387 OA
ATOM     19  H   LIG    1       24.442 -20.926   6.486  0.00  0.00    +0.210 HD
ENDBRANCH  17  18
BRANCH  17  20
ATOM     20  C   LIG    1       27.600 -20.712   7.062  0.00  0.00    +0.190 C 
BRANCH  20  21
ATOM     21  O   LIG    1       28.673 -21.499   6.539  0.00  0.00    -0.392 OA
ATOM     22  H   LIG    1       28.332 -22.402   6.395  0.00  0.00    +0.209 HD
ENDBRANCH  20  21
ENDBRANCH  17  20
ENDBRANCH  14  17
ENDBRANCH   1  14
TORSDOF 13
ENDMDL
