MODEL 1
REMARK VINA RESULT:      -4.9      0.000      0.000
REMARK  Name = *****
REMARK                            x       y       z     vdW  Elec       q    Type
REMARK                         _______ _______ _______ _____ _____    ______ ____
ROOT
ATOM      1  C   LIG    1       25.739 -14.182   3.320  0.00  0.00    +0.077 A 
ATOM      2  C   LIG    1       24.908 -13.883   4.389  0.00  0.00    +0.125 A 
ATOM      3  N   LIG    1       24.034 -12.847   4.390  0.00  0.00    -0.262 NA
ATOM      4  C   LIG    1       23.971 -12.101   3.265  0.00  0.00    +0.111 A 
ATOM      5  C   LIG    1       24.742 -12.340   2.138  0.00  0.00    +0.020 A 
ATOM      6  C   LIG    1       25.643 -13.403   2.163  0.00  0.00    +0.018 A 
ENDROOT
BRANCH   1   8
ATOM      7  O   LIG    1       26.335 -16.467   3.146  0.00  0.00    -0.245 OA
ATOM      8  C   LIG    1       26.656 -15.330   3.439  0.00  0.00    +0.338 C 
BRANCH   8   9
ATOM      9  O   LIG    1       27.864 -15.001   3.944  0.00  0.00    -0.477 OA
ATOM     10  H   LIG    1       28.532 -14.732   3.286  0.00  0.00    +0.295 HD
ENDBRANCH   8   9
ENDBRANCH   1   8
TORSDOF 2
ENDMDL
MODEL 2
REMARK VINA RESULT:      -4.8      1.410      2.240
REMARK  Name = *****
REMARK                            x       y       z     vdW  Elec       q    Type
REMARK                         _______ _______ _______ _____ _____    ______ ____
ROOT
ATOM      1  C   LIG    1       26.424 -13.818   3.574  0.00  0.00    +0.077 A 
ATOM      2  C   LIG    1       26.088 -13.244   2.356  0.00  0.00    +0.125 A 
ATOM      3  N   LIG    1       24.824 -12.888   2.020  0.00  0.00    -0.262 NA
ATOM      4  C   LIG    1       23.865 -13.089   2.952  0.00  0.00    +0.111 A 
ATOM      5  C   LIG    1       24.111 -13.631   4.204  0.00  0.00    +0.020 A 
ATOM      6  C   LIG    1       25.416 -14.001   4.524  0.00  0.00    +0.018 A 
ENDROOT
BRANCH   1   8
ATOM      7  O   LIG    1       28.742 -13.366   3.736  0.00  0.00    -0.245 OA
ATOM      8  C   LIG    1       27.833 -14.172   3.821  0.00  0.00    +0.338 C 
BRANCH   8   9
ATOM      9  O   LIG    1       28.015 -15.478   4.108  0.00  0.00    -0.477 OA
ATOM     10  H   LIG    1       27.942 -15.713   5.051  0.00  0.00    +0.295 HD
ENDBRANCH   8   9
ENDBRANCH   1   8
TORSDOF 2
ENDMDL
MODEL 3
REMARK VINA RESULT:      -4.7      3.037      3.989
REMARK  Name = *****
REMARK                            x       y       z     vdW  Elec       q    Type
REMARK                         _______ _______ _______ _____ _____    ______ ____
ROOT
ATOM      1  C   LIG    1       25.151 -12.913   3.424  0.00  0.00    +0.077 A 
ATOM      2  C   LIG    1       25.615 -13.403   2.212  0.00  0.00    +0.125 A 
ATOM      3  N   LIG    1       26.630 -14.295   2.105  0.00  0.00    -0.262 NA
ATOM      4  C   LIG    1       27.180 -14.735   3.259  0.00  0.00    +0.111 A 
ATOM      5  C   LIG    1       26.764 -14.323   4.516  0.00  0.00    +0.020 A 
ATOM      6  C   LIG    1       25.727 -13.396   4.602  0.00  0.00    +0.018 A 
ENDROOT
BRANCH   1   8
ATOM      7  O   LIG    1       23.519 -11.524   4.430  0.00  0.00    -0.245 OA
ATOM      8  C   LIG    1       24.047 -11.937   3.413  0.00  0.00    +0.338 C 
BRANCH   8   9
ATOM      9  O   LIG    1       23.657 -11.583   2.170  0.00  0.00    -0.477 OA
ATOM     10  H   LIG    1       23.090 -12.229   1.711  0.00  0.00    +0.295 HD
ENDBRANCH   8   9
ENDBRANCH   1   8
TORSDOF 2
ENDMDL
MODEL 4
REMARK VINA RESULT:      -4.7      2.690      3.545
REMARK  Name = *****
REMARK                            x       y       z     vdW  Elec       q    Type
REMARK                         _______ _______ _______ _____ _____    ______ ____
ROOT
ATOM      1  C   LIG    1       25.458 -13.838   3.812  0.00  0.00    +0.077 A 
ATOM      2  C   LIG    1       26.245 -14.043   2.689  0.00  0.00    +0.125 A 
ATOM      3  N   LIG    1       27.593 -13.896   2.683  0.00  0.00    -0.262 NA
ATOM      4  C   LIG    1       28.174 -13.558   3.856  0.00  0.00    +0.111 A 
ATOM      5  C   LIG    1       27.472 -13.359   5.034  0.00  0.00    +0.020 A 
ATOM      6  C   LIG    1       26.086 -13.504   5.014  0.00  0.00    +0.018 A 
ENDROOT
BRANCH   1   8
ATOM      7  O   LIG    1       23.372 -14.803   4.382  0.00  0.00    -0.245 OA
ATOM      8  C   LIG    1       24.000 -14.020   3.692  0.00  0.00    +0.338 C 
BRANCH   8   9
ATOM      9  O   LIG    1       23.444 -13.268   2.719  0.00  0.00    -0.477 OA
ATOM     10  H   LIG    1       22.624 -13.626   2.332  0.00  0.00    +0.295 HD
ENDBRANCH   8   9
ENDBRANCH   1   8
TORSDOF 2
ENDMDL
MODEL 5
REMARK VINA RESULT:      -4.6      6.858      7.836
REMARK  Name = *****
REMARK                            x       y       z     vdW  Elec       q    Type
REMARK                         _______ _______ _______ _____ _____    ______ ____
ROOT
ATOM      1  C   LIG    1       23.795 -20.345   5.388  0.00  0.00    +0.077 A 
ATOM      2  C   LIG    1       24.831 -20.063   4.510  0.00  0.00    +0.125 A 
ATOM      3  N   LIG    1       26.140 -20.115   4.856  0.00  0.00    -0.262 NA
ATOM      4  C   LIG    1       26.421 -20.493   6.124  0.00  0.00    +0.111 A 
ATOM      5  C   LIG    1       25.455 -20.820   7.062  0.00  0.00    +0.020 A 
ATOM      6  C   LIG    1       24.114 -20.748   6.687  0.00  0.00    +0.018 A 
ENDROOT
BRANCH   1   8
ATOM      7  O   LIG    1       21.907 -19.193   4.543  0.00  0.00    -0.245 OA
ATOM      8  C   LIG    1       22.409 -20.244   4.898  0.00  0.00    +0.338 C 
BRANCH   8   9
ATOM      9  O   LIG    1       21.744 -21.419   4.922  0.00  0.00    -0.477 OA
ATOM     10  H   LIG    1       21.973 -22.013   5.660  0.00  0.00    +0.295 HD
ENDBRANCH   8   9
ENDBRANCH   1   8
TORSDOF 2
ENDMDL
MODEL 6
REMARK VINA RESULT:      -4.5      6.686      7.149
REMARK  Name = *****
REMARK                            x       y       z     vdW  Elec       q    Type
REMARK                         _______ _______ _______ _____ _____    ______ ____
ROOT
ATOM      1  C   LIG    1       25.445 -20.447   5.758  0.00  0.00    +0.077 A 
ATOM      2  C   LIG    1       24.617 -20.822   6.805  0.00  0.00    +0.125 A 
ATOM      3  N   LIG    1       23.264 -20.850   6.715  0.00  0.00    -0.262 NA
ATOM      4  C   LIG    1       22.725 -20.517   5.521  0.00  0.00    +0.111 A 
ATOM      5  C   LIG    1       23.474 -20.155   4.412  0.00  0.00    +0.020 A 
ATOM      6  C   LIG    1       24.862 -20.122   4.530  0.00  0.00    +0.018 A 
ENDROOT
BRANCH   1   8
ATOM      7  O   LIG    1       27.410 -20.722   7.051  0.00  0.00    -0.245 OA
ATOM      8  C   LIG    1       26.902 -20.446   5.978  0.00  0.00    +0.338 C 
BRANCH   8   9
ATOM      9  O   LIG    1       27.610 -20.072   4.891  0.00  0.00    -0.477 OA
ATOM     10  H   LIG    1       27.621 -20.715   4.159  0.00  0.00    +0.295 HD
ENDBRANCH   8   9
ENDBRANCH   1   8
TORSDOF 2
ENDMDL
MODEL 7
REMARK VINA RESULT:      -4.4      2.681      3.225
REMARK  Name = *****
REMARK                            x       y       z     vdW  Elec       q    Type
REMARK                         _______ _______ _______ _____ _____    ______ ____
ROOT
ATOM      1  C   LIG    1       27.243 -13.618   4.203  0.00  0.00    +0.077 A 
ATOM      2  C   LIG    1       27.286 -14.755   3.409  0.00  0.00    +0.125 A 
ATOM      3  N   LIG    1       26.203 -15.527   3.149  0.00  0.00    -0.262 NA
ATOM      4  C   LIG    1       25.026 -15.127   3.681  0.00  0.00    +0.111 A 
ATOM      5  C   LIG    1       24.882 -13.992   4.464  0.00  0.00    +0.020 A 
ATOM      6  C   LIG    1       26.011 -13.219   4.728  0.00  0.00    +0.018 A 
ENDROOT
BRANCH   1   8
ATOM      7  O   LIG    1       29.443 -12.928   3.668  0.00  0.00    -0.245 OA
ATOM      8  C   LIG    1       28.490 -12.864   4.422  0.00  0.00    +0.338 C 
BRANCH   8   9
ATOM      9  O   LIG    1       28.483 -12.135   5.558  0.00  0.00    -0.477 OA
ATOM     10  H   LIG    1       28.575 -12.646   6.383  0.00  0.00    +0.295 HD
ENDBRANCH   8   9
ENDBRANCH   1   8
TORSDOF 2
ENDMDL
MODEL 8
REMARK VINA RESULT:      -4.4      6.940      7.703
REMARK  Name = *****
REMARK                            x       y       z     vdW  Elec       q    Type
REMARK                         _______ _______ _______ _____ _____    ______ ____
ROOT
ATOM      1  C   LIG    1       23.800 -20.353   5.286  0.00  0.00    +0.077 A 
ATOM      2  C   LIG    1       24.065 -20.815   6.567  0.00  0.00    +0.125 A 
ATOM      3  N   LIG    1       25.317 -20.971   7.061  0.00  0.00    -0.262 NA
ATOM      4  C   LIG    1       26.341 -20.623   6.250  0.00  0.00    +0.111 A 
ATOM      5  C   LIG    1       26.172 -20.128   4.967  0.00  0.00    +0.020 A 
ATOM      6  C   LIG    1       24.876 -19.986   4.474  0.00  0.00    +0.018 A 
ENDROOT
BRANCH   1   8
ATOM      7  O   LIG    1       21.890 -19.175   4.530  0.00  0.00    -0.245 OA
ATOM      8  C   LIG    1       22.395 -20.234   4.856  0.00  0.00    +0.338 C 
BRANCH   8   9
ATOM      9  O   LIG    1       21.719 -21.402   4.903  0.00  0.00    -0.477 OA
ATOM     10  H   LIG    1       22.220 -22.160   5.255  0.00  0.00    +0.295 HD
ENDBRANCH   8   9
ENDBRANCH   1   8
TORSDOF 2
ENDMDL
MODEL 9
REMARK VINA RESULT:      -4.3      6.150      7.452
REMARK  Name = *****
REMARK                            x       y       z     vdW  Elec       q    Type
REMARK                         _______ _______ _______ _____ _____    ______ ____
ROOT
ATOM      1  C   LIG    1       22.954 -19.381   4.724  0.00  0.00    +0.077 A 
ATOM      2  C   LIG    1       23.961 -19.715   3.830  0.00  0.00    +0.125 A 
ATOM      3  N   LIG    1       24.838 -20.727   4.037  0.00  0.00    -0.262 NA
ATOM      4  C   LIG    1       24.682 -21.449   5.170  0.00  0.00    +0.111 A 
ATOM      5  C   LIG    1       23.689 -21.206   6.106  0.00  0.00    +0.020 A 
ATOM      6  C   LIG    1       22.805 -20.153   5.879  0.00  0.00    +0.018 A 
ENDROOT
BRANCH   1   8
ATOM      7  O   LIG    1       22.276 -17.113   4.768  0.00  0.00    -0.245 OA
ATOM      8  C   LIG    1       22.065 -18.253   4.394  0.00  0.00    +0.338 C 
BRANCH   8   9
ATOM      9  O   LIG    1       20.980 -18.616   3.678  0.00  0.00    -0.477 OA
ATOM     10  H   LIG    1       20.572 -17.906   3.150  0.00  0.00    +0.295 HD
ENDBRANCH   8   9
ENDBRANCH   1   8
TORSDOF 2
ENDMDL
