MODEL 1
REMARK VINA RESULT:      12.8      0.000      0.000
REMARK  Name = *****
REMARK                            x       y       z     vdW  Elec       q    Type
REMARK                         _______ _______ _______ _____ _____    ______ ____
ROOT
ATOM      1  C   LIG    1       24.224 -20.399   4.771  0.00  0.00    +0.015 A 
ATOM      2  C   LIG    1       25.512 -20.836   5.113  0.00  0.00    +0.043 A 
ATOM      3  C   LIG    1       26.560 -19.913   4.983  0.00  0.00    +0.067 A 
ATOM      4  C   LIG    1       26.378 -18.612   4.530  0.00  0.00    +0.027 A 
ATOM      5  C   LIG    1       27.690 -18.049   4.492  0.00  0.00    +0.093 A 
ATOM      6  N   LIG    1       28.606 -18.916   4.947  0.00  0.00    -0.173 NA
ATOM      7  C   LIG    1       25.074 -18.177   4.225  0.00  0.00    +0.013 A 
ATOM      8  N   LIG    1       27.899 -20.018   5.236  0.00  0.00    -0.276 N 
ATOM      9  H   LIG    1       28.398 -20.820   5.603  0.00  0.00    +0.189 HD
ATOM     10  C   LIG    1       24.010 -19.079   4.358  0.00  0.00    +0.016 A 
ENDROOT
BRANCH   5  11
ATOM     11  C   LIG    1       28.002 -16.735   4.015  0.00  0.00    +0.032 C 
ATOM     12  C   LIG    1       27.250 -15.646   4.244  0.00  0.00    +0.030 C 
BRANCH  12  13
ATOM     13  C   LIG    1       27.598 -14.321   3.733  0.00  0.00    +0.064 A 
ATOM     14  N   LIG    1       26.701 -13.719   2.917  0.00  0.00    -0.256 NA
ATOM     15  C   LIG    1       27.024 -12.499   2.439  0.00  0.00    +0.111 A 
ATOM     16  C   LIG    1       28.198 -11.835   2.753  0.00  0.00    +0.020 A 
ATOM     17  C   LIG    1       29.103 -12.466   3.601  0.00  0.00    +0.004 A 
ATOM     18  C   LIG    1       28.806 -13.733   4.092  0.00  0.00    +0.028 A 
ENDBRANCH  12  13
ENDBRANCH   5  11
BRANCH   1  19
ATOM     19  S   LIG    1       22.827 -21.492   4.964  0.00  0.00    -0.089 S 
BRANCH  19  21
ATOM     20  C   LIG    1       21.255 -19.186   4.414  0.00  0.00    +0.050 A 
ATOM     21  C   LIG    1       21.476 -20.566   4.220  0.00  0.00    +0.025 A 
ATOM     22  C   LIG    1       20.630 -21.263   3.336  0.00  0.00    +0.016 A 
ATOM     23  C   LIG    1       19.567 -20.629   2.688  0.00  0.00    +0.001 A 
ATOM     24  C   LIG    1       19.350 -19.272   2.880  0.00  0.00    +0.001 A 
ATOM     25  C   LIG    1       20.190 -18.556   3.733  0.00  0.00    +0.014 A 
BRANCH  20  29
ATOM     26  C   LIG    1       22.764 -15.944   5.745  0.00  0.00    +0.128 C 
ATOM     27  N   LIG    1       22.058 -16.937   4.976  0.00  0.00    -0.314 N 
ATOM     28  H   LIG    1       21.653 -16.652   4.092  0.00  0.00    +0.149 HD
ATOM     29  C   LIG    1       22.064 -18.277   5.293  0.00  0.00    +0.245 C 
ATOM     30  O   LIG    1       22.651 -18.728   6.266  0.00  0.00    -0.270 OA
ENDBRANCH  20  29
ENDBRANCH  19  21
ENDBRANCH   1  19
TORSDOF 5
ENDMDL
MODEL 2
REMARK VINA RESULT:      14.3      2.703      8.015
REMARK  Name = *****
REMARK                            x       y       z     vdW  Elec       q    Type
REMARK                         _______ _______ _______ _____ _____    ______ ____
ROOT
ATOM      1  C   LIG    1       27.499 -15.716   3.160  0.00  0.00    +0.015 A 
ATOM      2  C   LIG    1       28.248 -16.654   3.885  0.00  0.00    +0.043 A 
ATOM      3  C   LIG    1       27.600 -17.837   4.267  0.00  0.00    +0.067 A 
ATOM      4  C   LIG    1       26.270 -18.109   3.970  0.00  0.00    +0.027 A 
ATOM      5  C   LIG    1       26.004 -19.368   4.589  0.00  0.00    +0.093 A 
ATOM      6  N   LIG    1       27.104 -19.866   5.172  0.00  0.00    -0.173 NA
ATOM      7  C   LIG    1       25.542 -17.173   3.210  0.00  0.00    +0.013 A 
ATOM      8  N   LIG    1       28.041 -18.932   4.958  0.00  0.00    -0.276 N 
ATOM      9  H   LIG    1       28.972 -19.101   5.320  0.00  0.00    +0.189 HD
ATOM     10  C   LIG    1       26.173 -15.988   2.807  0.00  0.00    +0.016 A 
ENDROOT
BRANCH   5  11
ATOM     11  C   LIG    1       24.728 -20.016   4.607  0.00  0.00    +0.032 C 
ATOM     12  C   LIG    1       23.573 -19.411   4.928  0.00  0.00    +0.030 C 
BRANCH  12  13
ATOM     13  C   LIG    1       22.288 -20.109   4.943  0.00  0.00    +0.064 A 
ATOM     14  N   LIG    1       22.035 -20.915   6.001  0.00  0.00    -0.256 NA
ATOM     15  C   LIG    1       20.854 -21.566   6.011  0.00  0.00    +0.111 A 
ATOM     16  C   LIG    1       19.894 -21.437   5.021  0.00  0.00    +0.020 A 
ATOM     17  C   LIG    1       20.168 -20.597   3.947  0.00  0.00    +0.004 A 
ATOM     18  C   LIG    1       21.388 -19.930   3.898  0.00  0.00    +0.028 A 
ENDBRANCH  12  13
ENDBRANCH   5  11
BRANCH   1  19
ATOM     19  S   LIG    1       28.265 -14.211   2.584  0.00  0.00    -0.089 S 
BRANCH  19  21
ATOM     20  C   LIG    1       26.997 -12.767   4.682  0.00  0.00    +0.050 A 
ATOM     21  C   LIG    1       28.190 -13.135   4.024  0.00  0.00    +0.025 A 
ATOM     22  C   LIG    1       29.415 -12.693   4.560  0.00  0.00    +0.016 A 
ATOM     23  C   LIG    1       29.466 -11.875   5.691  0.00  0.00    +0.001 A 
ATOM     24  C   LIG    1       28.292 -11.512   6.336  0.00  0.00    +0.001 A 
ATOM     25  C   LIG    1       27.068 -11.959   5.838  0.00  0.00    +0.014 A 
BRANCH  20  29
ATOM     26  C   LIG    1       23.823 -12.940   2.571  0.00  0.00    +0.128 C 
ATOM     27  N   LIG    1       25.127 -12.629   3.101  0.00  0.00    -0.314 N 
ATOM     28  H   LIG    1       25.653 -11.886   2.656  0.00  0.00    +0.149 HD
ATOM     29  C   LIG    1       25.607 -13.162   4.275  0.00  0.00    +0.245 C 
ATOM     30  O   LIG    1       24.974 -13.959   4.952  0.00  0.00    -0.270 OA
ENDBRANCH  20  29
ENDBRANCH  19  21
ENDBRANCH   1  19
TORSDOF 5
ENDMDL
MODEL 3
REMARK VINA RESULT:      14.5      2.504      4.618
REMARK  Name = *****
REMARK                            x       y       z     vdW  Elec       q    Type
REMARK                         _______ _______ _______ _____ _____    ______ ____
ROOT
ATOM      1  C   LIG    1       22.068 -17.435   4.075  0.00  0.00    +0.015 A 
ATOM      2  C   LIG    1       21.493 -16.454   3.254  0.00  0.00    +0.043 A 
ATOM      3  C   LIG    1       22.226 -15.277   3.048  0.00  0.00    +0.067 A 
ATOM      4  C   LIG    1       23.472 -15.044   3.618  0.00  0.00    +0.027 A 
ATOM      5  C   LIG    1       23.825 -13.724   3.207  0.00  0.00    +0.093 A 
ATOM      6  N   LIG    1       22.897 -13.203   2.391  0.00  0.00    -0.173 NA
ATOM      7  C   LIG    1       24.052 -16.054   4.411  0.00  0.00    +0.013 A 
ATOM      8  N   LIG    1       21.958 -14.156   2.312  0.00  0.00    -0.276 N 
ATOM      9  H   LIG    1       21.144 -13.974   1.736  0.00  0.00    +0.189 HD
ATOM     10  C   LIG    1       23.342 -17.244   4.621  0.00  0.00    +0.016 A 
ENDROOT
BRANCH   5  11
ATOM     11  C   LIG    1       25.007 -13.028   3.618  0.00  0.00    +0.032 C 
ATOM     12  C   LIG    1       26.080 -13.615   4.172  0.00  0.00    +0.030 C 
BRANCH  12  13
ATOM     13  C   LIG    1       27.267 -12.869   4.587  0.00  0.00    +0.064 A 
ATOM     14  N   LIG    1       27.375 -12.562   5.901  0.00  0.00    -0.256 NA
ATOM     15  C   LIG    1       28.466 -11.867   6.284  0.00  0.00    +0.111 A 
ATOM     16  C   LIG    1       29.474 -11.477   5.417  0.00  0.00    +0.020 A 
ATOM     17  C   LIG    1       29.350 -11.810   4.073  0.00  0.00    +0.004 A 
ATOM     18  C   LIG    1       28.225 -12.508   3.646  0.00  0.00    +0.028 A 
ENDBRANCH  12  13
ENDBRANCH   5  11
BRANCH   1  19
ATOM     19  S   LIG    1       21.227 -18.986   4.341  0.00  0.00    -0.089 S 
BRANCH  19  21
ATOM     20  C   LIG    1       23.782 -20.209   4.597  0.00  0.00    +0.050 A 
ATOM     21  C   LIG    1       22.487 -20.007   5.118  0.00  0.00    +0.025 A 
ATOM     22  C   LIG    1       22.167 -20.584   6.364  0.00  0.00    +0.016 A 
ATOM     23  C   LIG    1       23.085 -21.373   7.061  0.00  0.00    +0.001 A 
ATOM     24  C   LIG    1       24.358 -21.572   6.546  0.00  0.00    +0.001 A 
ATOM     25  C   LIG    1       24.705 -20.990   5.327  0.00  0.00    +0.014 A 
BRANCH  20  29
ATOM     26  C   LIG    1       26.110 -18.353   2.211  0.00  0.00    +0.128 C 
ATOM     27  N   LIG    1       25.472 -18.921   3.371  0.00  0.00    -0.314 N 
ATOM     28  H   LIG    1       25.823 -18.653   4.284  0.00  0.00    +0.149 HD
ATOM     29  C   LIG    1       24.310 -19.656   3.305  0.00  0.00    +0.245 C 
ATOM     30  O   LIG    1       23.739 -19.905   2.253  0.00  0.00    -0.270 OA
ENDBRANCH  20  29
ENDBRANCH  19  21
ENDBRANCH   1  19
TORSDOF 5
ENDMDL
MODEL 4
REMARK VINA RESULT:      15.3      1.732      2.075
REMARK  Name = *****
REMARK                            x       y       z     vdW  Elec       q    Type
REMARK                         _______ _______ _______ _____ _____    ______ ____
ROOT
ATOM      1  C   LIG    1       24.907 -20.476   5.262  0.00  0.00    +0.015 A 
ATOM      2  C   LIG    1       26.202 -20.971   5.476  0.00  0.00    +0.043 A 
ATOM      3  C   LIG    1       27.257 -20.049   5.430  0.00  0.00    +0.067 A 
ATOM      4  C   LIG    1       27.077 -18.694   5.179  0.00  0.00    +0.027 A 
ATOM      5  C   LIG    1       28.395 -18.145   5.159  0.00  0.00    +0.093 A 
ATOM      6  N   LIG    1       29.316 -19.078   5.439  0.00  0.00    -0.173 NA
ATOM      7  C   LIG    1       25.767 -18.208   5.003  0.00  0.00    +0.013 A 
ATOM      8  N   LIG    1       28.605 -20.203   5.601  0.00  0.00    -0.276 N 
ATOM      9  H   LIG    1       29.107 -21.055   5.823  0.00  0.00    +0.189 HD
ATOM     10  C   LIG    1       24.695 -19.109   5.056  0.00  0.00    +0.016 A 
ENDROOT
BRANCH   5  11
ATOM     11  C   LIG    1       28.706 -16.779   4.864  0.00  0.00    +0.032 C 
ATOM     12  C   LIG    1       27.794 -15.801   4.741  0.00  0.00    +0.030 C 
BRANCH  12  13
ATOM     13  C   LIG    1       28.150 -14.418   4.430  0.00  0.00    +0.064 A 
ATOM     14  N   LIG    1       28.341 -14.108   3.126  0.00  0.00    -0.256 NA
ATOM     15  C   LIG    1       28.678 -12.833   2.839  0.00  0.00    +0.111 A 
ATOM     16  C   LIG    1       28.816 -11.839   3.793  0.00  0.00    +0.020 A 
ATOM     17  C   LIG    1       28.606 -12.174   5.126  0.00  0.00    +0.004 A 
ATOM     18  C   LIG    1       28.279 -13.486   5.454  0.00  0.00    +0.028 A 
ENDBRANCH  12  13
ENDBRANCH   5  11
BRANCH   1  19
ATOM     19  S   LIG    1       23.502 -21.572   5.362  0.00  0.00    -0.089 S 
BRANCH  19  21
ATOM     20  C   LIG    1       22.367 -19.658   3.590  0.00  0.00    +0.050 A 
ATOM     21  C   LIG    1       22.178 -20.612   4.613  0.00  0.00    +0.025 A 
ATOM     22  C   LIG    1       20.864 -20.889   5.037  0.00  0.00    +0.016 A 
ATOM     23  C   LIG    1       19.765 -20.216   4.499  0.00  0.00    +0.001 A 
ATOM     24  C   LIG    1       19.951 -19.278   3.494  0.00  0.00    +0.001 A 
ATOM     25  C   LIG    1       21.242 -19.004   3.041  0.00  0.00    +0.014 A 
BRANCH  20  29
ATOM     26  C   LIG    1       25.724 -20.008   1.812  0.00  0.00    +0.128 C 
ATOM     27  N   LIG    1       24.453 -20.252   2.445  0.00  0.00    -0.314 N 
ATOM     28  H   LIG    1       24.182 -21.214   2.608  0.00  0.00    +0.149 HD
ATOM     29  C   LIG    1       23.683 -19.251   2.994  0.00  0.00    +0.245 C 
ATOM     30  O   LIG    1       24.007 -18.073   2.968  0.00  0.00    -0.270 OA
ENDBRANCH  20  29
ENDBRANCH  19  21
ENDBRANCH   1  19
TORSDOF 5
ENDMDL
