MODEL 1
REMARK VINA RESULT:      -5.8      0.000      0.000
REMARK  Name = *****
REMARK                            x       y       z     vdW  Elec       q    Type
REMARK                         _______ _______ _______ _____ _____    ______ ____
ROOT
ATOM      1  N   LIG    1       24.994 -16.957   3.174  0.00  0.00    -0.314 N 
ATOM      2  H   LIG    1       24.851 -16.925   2.165  0.00  0.00    +0.152 HD
ENDROOT
BRANCH   1   7
ATOM      3  C   LIG    1       22.381 -20.716   5.273  0.00  0.00    +0.044 C 
ATOM      4  C   LIG    1       23.657 -20.090   4.773  0.00  0.00    -0.046 A 
ATOM      5  C   LIG    1       23.669 -18.835   4.105  0.00  0.00    -0.026 A 
ATOM      6  C   LIG    1       22.359 -18.120   3.871  0.00  0.00    +0.046 C 
ATOM      7  C   LIG    1       24.910 -18.261   3.724  0.00  0.00    +0.035 A 
ATOM      8  C   LIG    1       26.093 -18.971   3.996  0.00  0.00    +0.023 A 
ATOM      9  C   LIG    1       26.071 -20.222   4.605  0.00  0.00    +0.002 A 
ATOM     10  C   LIG    1       24.860 -20.775   4.996  0.00  0.00    +0.003 A 
ENDBRANCH   1   7
BRANCH   1  11
ATOM     11  C   LIG    1       25.774 -15.849   3.599  0.00  0.00    +0.045 A 
ATOM     12  C   LIG    1       25.153 -14.638   3.971  0.00  0.00    +0.080 A 
ATOM     13  C   LIG    1       25.925 -13.539   4.384  0.00  0.00    +0.017 A 
ATOM     14  C   LIG    1       27.313 -13.639   4.444  0.00  0.00    +0.001 A 
ATOM     15  C   LIG    1       27.938 -14.825   4.071  0.00  0.00    +0.002 A 
ATOM     16  C   LIG    1       27.176 -15.915   3.641  0.00  0.00    +0.024 A 
BRANCH  12  17
ATOM     17  C   LIG    1       23.678 -14.451   3.972  0.00  0.00    +0.339 C 
ATOM     18  O   LIG    1       22.934 -15.063   4.717  0.00  0.00    -0.245 OA
BRANCH  17  19
ATOM     19  O   LIG    1       23.232 -13.583   3.036  0.00  0.00    -0.477 OA
ATOM     20  H   LIG    1       23.231 -12.650   3.343  0.00  0.00    +0.295 HD
ENDBRANCH  17  19
ENDBRANCH  12  17
ENDBRANCH   1  11
TORSDOF 4
ENDMDL
MODEL 2
REMARK VINA RESULT:      -5.1      2.574      6.170
REMARK  Name = *****
REMARK                            x       y       z     vdW  Elec       q    Type
REMARK                         _______ _______ _______ _____ _____    ______ ____
ROOT
ATOM      1  N   LIG    1       24.692 -18.518   3.730  0.00  0.00    -0.314 N 
ATOM      2  H   LIG    1       24.947 -18.857   2.803  0.00  0.00    +0.152 HD
ENDROOT
BRANCH   1   7
ATOM      3  C   LIG    1       26.574 -13.848   3.821  0.00  0.00    +0.044 C 
ATOM      4  C   LIG    1       25.435 -14.833   3.877  0.00  0.00    -0.046 A 
ATOM      5  C   LIG    1       25.631 -16.224   3.663  0.00  0.00    -0.026 A 
ATOM      6  C   LIG    1       27.021 -16.726   3.349  0.00  0.00    +0.046 C 
ATOM      7  C   LIG    1       24.532 -17.111   3.803  0.00  0.00    +0.035 A 
ATOM      8  C   LIG    1       23.271 -16.578   4.122  0.00  0.00    +0.023 A 
ATOM      9  C   LIG    1       23.075 -15.209   4.281  0.00  0.00    +0.002 A 
ATOM     10  C   LIG    1       24.153 -14.343   4.165  0.00  0.00    +0.003 A 
ENDBRANCH   1   7
BRANCH   1  11
ATOM     11  C   LIG    1       24.033 -19.538   4.466  0.00  0.00    +0.045 A 
ATOM     12  C   LIG    1       24.756 -20.359   5.358  0.00  0.00    +0.080 A 
ATOM     13  C   LIG    1       24.105 -21.373   6.079  0.00  0.00    +0.017 A 
ATOM     14  C   LIG    1       22.734 -21.571   5.933  0.00  0.00    +0.001 A 
ATOM     15  C   LIG    1       22.011 -20.775   5.050  0.00  0.00    +0.002 A 
ATOM     16  C   LIG    1       22.658 -19.777   4.315  0.00  0.00    +0.024 A 
BRANCH  12  17
ATOM     17  C   LIG    1       26.214 -20.198   5.604  0.00  0.00    +0.339 C 
ATOM     18  O   LIG    1       26.694 -20.149   6.722  0.00  0.00    -0.245 OA
BRANCH  17  19
ATOM     19  O   LIG    1       26.950 -20.059   4.479  0.00  0.00    -0.477 OA
ATOM     20  H   LIG    1       26.938 -20.858   3.907  0.00  0.00    +0.295 HD
ENDBRANCH  17  19
ENDBRANCH  12  17
ENDBRANCH   1  11
TORSDOF 4
ENDMDL
MODEL 3
REMARK VINA RESULT:      -5.1      2.513      5.750
REMARK  Name = *****
REMARK                            x       y       z     vdW  Elec       q    Type
REMARK                         _______ _______ _______ _____ _____    ______ ____
ROOT
ATOM      1  N   LIG    1       24.994 -18.107   3.338  0.00  0.00    -0.314 N 
ATOM      2  H   LIG    1       24.836 -18.287   2.347  0.00  0.00    +0.152 HD
ENDROOT
BRANCH   1   7
ATOM      3  C   LIG    1       24.154 -13.249   4.362  0.00  0.00    +0.044 C 
ATOM      4  C   LIG    1       25.060 -14.420   4.087  0.00  0.00    -0.046 A 
ATOM      5  C   LIG    1       24.560 -15.743   3.949  0.00  0.00    -0.026 A 
ATOM      6  C   LIG    1       23.076 -15.983   4.104  0.00  0.00    +0.046 C 
ATOM      7  C   LIG    1       25.453 -16.794   3.616  0.00  0.00    +0.035 A 
ATOM      8  C   LIG    1       26.818 -16.495   3.461  0.00  0.00    +0.023 A 
ATOM      9  C   LIG    1       27.310 -15.207   3.647  0.00  0.00    +0.002 A 
ATOM     10  C   LIG    1       26.434 -14.175   3.952  0.00  0.00    +0.003 A 
ENDBRANCH   1   7
BRANCH   1  11
ATOM     11  C   LIG    1       24.189 -18.966   4.132  0.00  0.00    +0.045 A 
ATOM     12  C   LIG    1       24.786 -19.904   5.001  0.00  0.00    +0.080 A 
ATOM     13  C   LIG    1       23.990 -20.760   5.780  0.00  0.00    +0.017 A 
ATOM     14  C   LIG    1       22.600 -20.682   5.714  0.00  0.00    +0.001 A 
ATOM     15  C   LIG    1       22.000 -19.767   4.855  0.00  0.00    +0.002 A 
ATOM     16  C   LIG    1       22.787 -18.926   4.063  0.00  0.00    +0.024 A 
BRANCH  12  17
ATOM     17  C   LIG    1       26.258 -20.036   5.162  0.00  0.00    +0.339 C 
ATOM     18  O   LIG    1       26.804 -20.058   6.250  0.00  0.00    -0.245 OA
BRANCH  17  19
ATOM     19  O   LIG    1       26.939 -20.076   3.995  0.00  0.00    -0.477 OA
ATOM     20  H   LIG    1       27.667 -20.735   3.993  0.00  0.00    +0.295 HD
ENDBRANCH  17  19
ENDBRANCH  12  17
ENDBRANCH   1  11
TORSDOF 4
ENDMDL
MODEL 4
REMARK VINA RESULT:      -5.0      2.046      5.466
REMARK  Name = *****
REMARK                            x       y       z     vdW  Elec       q    Type
REMARK                         _______ _______ _______ _____ _____    ______ ____
ROOT
ATOM      1  N   LIG    1       24.467 -18.202   3.678  0.00  0.00    -0.314 N 
ATOM      2  H   LIG    1       23.489 -18.233   3.394  0.00  0.00    +0.152 HD
ENDROOT
BRANCH   1   7
ATOM      3  C   LIG    1       23.999 -13.216   4.208  0.00  0.00    +0.044 C 
ATOM      4  C   LIG    1       24.799 -14.463   3.934  0.00  0.00    -0.046 A 
ATOM      5  C   LIG    1       24.234 -15.761   4.050  0.00  0.00    -0.026 A 
ATOM      6  C   LIG    1       22.792 -15.894   4.484  0.00  0.00    +0.046 C 
ATOM      7  C   LIG    1       25.016 -16.894   3.706  0.00  0.00    +0.035 A 
ATOM      8  C   LIG    1       26.343 -16.695   3.286  0.00  0.00    +0.023 A 
ATOM      9  C   LIG    1       26.906 -15.425   3.222  0.00  0.00    +0.002 A 
ATOM     10  C   LIG    1       26.136 -14.315   3.538  0.00  0.00    +0.003 A 
ENDBRANCH   1   7
BRANCH   1  11
ATOM     11  C   LIG    1       24.785 -19.329   4.481  0.00  0.00    +0.045 A 
ATOM     12  C   LIG    1       23.764 -20.169   4.972  0.00  0.00    +0.080 A 
ATOM     13  C   LIG    1       24.078 -21.279   5.774  0.00  0.00    +0.017 A 
ATOM     14  C   LIG    1       25.405 -21.571   6.081  0.00  0.00    +0.001 A 
ATOM     15  C   LIG    1       26.421 -20.745   5.611  0.00  0.00    +0.002 A 
ATOM     16  C   LIG    1       26.112 -19.629   4.828  0.00  0.00    +0.024 A 
BRANCH  12  17
ATOM     17  C   LIG    1       22.324 -19.955   4.667  0.00  0.00    +0.339 C 
ATOM     18  O   LIG    1       21.860 -18.861   4.403  0.00  0.00    -0.245 OA
BRANCH  17  19
ATOM     19  O   LIG    1       21.569 -21.073   4.762  0.00  0.00    -0.477 OA
ATOM     20  H   LIG    1       22.097 -21.882   4.944  0.00  0.00    +0.295 HD
ENDBRANCH  17  19
ENDBRANCH  12  17
ENDBRANCH   1  11
TORSDOF 4
ENDMDL
MODEL 5
REMARK VINA RESULT:      -5.0      2.724      5.620
REMARK  Name = *****
REMARK                            x       y       z     vdW  Elec       q    Type
REMARK                         _______ _______ _______ _____ _____    ______ ____
ROOT
ATOM      1  N   LIG    1       25.210 -19.102   3.786  0.00  0.00    -0.314 N 
ATOM      2  H   LIG    1       24.915 -19.717   3.030  0.00  0.00    +0.152 HD
ENDROOT
BRANCH   1   7
ATOM      3  C   LIG    1       24.870 -14.078   3.831  0.00  0.00    +0.044 C 
ATOM      4  C   LIG    1       24.278 -15.460   3.932  0.00  0.00    -0.046 A 
ATOM      5  C   LIG    1       25.050 -16.629   3.696  0.00  0.00    -0.026 A 
ATOM      6  C   LIG    1       26.504 -16.479   3.312  0.00  0.00    +0.046 C 
ATOM      7  C   LIG    1       24.456 -17.905   3.880  0.00  0.00    +0.035 A 
ATOM      8  C   LIG    1       23.105 -17.970   4.263  0.00  0.00    +0.023 A 
ATOM      9  C   LIG    1       22.340 -16.822   4.444  0.00  0.00    +0.002 A 
ATOM     10  C   LIG    1       22.926 -15.574   4.285  0.00  0.00    +0.003 A 
ENDBRANCH   1   7
BRANCH   1  11
ATOM     11  C   LIG    1       25.842 -19.850   4.815  0.00  0.00    +0.045 A 
ATOM     12  C   LIG    1       25.126 -20.838   5.524  0.00  0.00    +0.080 A 
ATOM     13  C   LIG    1       25.749 -21.572   6.547  0.00  0.00    +0.017 A 
ATOM     14  C   LIG    1       27.086 -21.342   6.863  0.00  0.00    +0.001 A 
ATOM     15  C   LIG    1       27.800 -20.365   6.177  0.00  0.00    +0.002 A 
ATOM     16  C   LIG    1       27.180 -19.618   5.172  0.00  0.00    +0.024 A 
BRANCH  12  17
ATOM     17  C   LIG    1       23.708 -21.175   5.233  0.00  0.00    +0.339 C 
ATOM     18  O   LIG    1       22.834 -21.144   6.080  0.00  0.00    -0.245 OA
BRANCH  17  19
ATOM     19  O   LIG    1       23.486 -21.571   3.959  0.00  0.00    -0.477 OA
ATOM     20  H   LIG    1       24.276 -21.478   3.382  0.00  0.00    +0.295 HD
ENDBRANCH  17  19
ENDBRANCH  12  17
ENDBRANCH   1  11
TORSDOF 4
ENDMDL
MODEL 6
REMARK VINA RESULT:      -4.9      0.578      1.835
REMARK  Name = *****
REMARK                            x       y       z     vdW  Elec       q    Type
REMARK                         _______ _______ _______ _____ _____    ______ ____
ROOT
ATOM      1  N   LIG    1       24.964 -17.053   3.136  0.00  0.00    -0.314 N 
ATOM      2  H   LIG    1       25.274 -17.344   2.210  0.00  0.00    +0.152 HD
ENDROOT
BRANCH   1   7
ATOM      3  C   LIG    1       24.934 -21.571   5.358  0.00  0.00    +0.044 C 
ATOM      4  C   LIG    1       24.274 -20.285   4.933  0.00  0.00    -0.046 A 
ATOM      5  C   LIG    1       25.003 -19.232   4.318  0.00  0.00    -0.026 A 
ATOM      6  C   LIG    1       26.490 -19.402   4.103  0.00  0.00    +0.046 C 
ATOM      7  C   LIG    1       24.313 -18.076   3.872  0.00  0.00    +0.035 A 
ATOM      8  C   LIG    1       22.925 -17.996   4.081  0.00  0.00    +0.023 A 
ATOM      9  C   LIG    1       22.224 -19.008   4.730  0.00  0.00    +0.002 A 
ATOM     10  C   LIG    1       22.895 -20.149   5.148  0.00  0.00    +0.003 A 
ENDBRANCH   1   7
BRANCH   1  11
ATOM     11  C   LIG    1       25.755 -15.971   3.605  0.00  0.00    +0.045 A 
ATOM     12  C   LIG    1       25.150 -14.754   3.985  0.00  0.00    +0.080 A 
ATOM     13  C   LIG    1       25.934 -13.681   4.441  0.00  0.00    +0.017 A 
ATOM     14  C   LIG    1       27.317 -13.812   4.538  0.00  0.00    +0.001 A 
ATOM     15  C   LIG    1       27.927 -15.003   4.159  0.00  0.00    +0.002 A 
ATOM     16  C   LIG    1       27.154 -16.068   3.686  0.00  0.00    +0.024 A 
BRANCH  12  17
ATOM     17  C   LIG    1       23.680 -14.535   3.948  0.00  0.00    +0.339 C 
ATOM     18  O   LIG    1       22.909 -15.093   4.707  0.00  0.00    -0.245 OA
BRANCH  17  19
ATOM     19  O   LIG    1       23.272 -13.703   2.963  0.00  0.00    -0.477 OA
ATOM     20  H   LIG    1       22.393 -13.940   2.595  0.00  0.00    +0.295 HD
ENDBRANCH  17  19
ENDBRANCH  12  17
ENDBRANCH   1  11
TORSDOF 4
ENDMDL
MODEL 7
REMARK VINA RESULT:      -4.9      2.093      2.899
REMARK  Name = *****
REMARK                            x       y       z     vdW  Elec       q    Type
REMARK                         _______ _______ _______ _____ _____    ______ ____
ROOT
ATOM      1  N   LIG    1       25.995 -16.675   3.100  0.00  0.00    -0.314 N 
ATOM      2  H   LIG    1       26.588 -16.432   2.309  0.00  0.00    +0.152 HD
ENDROOT
BRANCH   1   7
ATOM      3  C   LIG    1       25.070 -21.224   5.051  0.00  0.00    +0.044 C 
ATOM      4  C   LIG    1       25.967 -20.046   4.770  0.00  0.00    -0.046 A 
ATOM      5  C   LIG    1       25.548 -18.958   3.958  0.00  0.00    -0.026 A 
ATOM      6  C   LIG    1       24.169 -18.997   3.340  0.00  0.00    +0.046 C 
ATOM      7  C   LIG    1       26.408 -17.843   3.791  0.00  0.00    +0.035 A 
ATOM      8  C   LIG    1       27.668 -17.863   4.416  0.00  0.00    +0.023 A 
ATOM      9  C   LIG    1       28.092 -18.953   5.169  0.00  0.00    +0.002 A 
ATOM     10  C   LIG    1       27.243 -20.035   5.350  0.00  0.00    +0.003 A 
ENDBRANCH   1   7
BRANCH   1  11
ATOM     11  C   LIG    1       25.338 -15.519   3.600  0.00  0.00    +0.045 A 
ATOM     12  C   LIG    1       26.006 -14.277   3.637  0.00  0.00    +0.080 A 
ATOM     13  C   LIG    1       25.360 -13.135   4.140  0.00  0.00    +0.017 A 
ATOM     14  C   LIG    1       24.045 -13.214   4.594  0.00  0.00    +0.001 A 
ATOM     15  C   LIG    1       23.378 -14.435   4.571  0.00  0.00    +0.002 A 
ATOM     16  C   LIG    1       24.023 -15.578   4.090  0.00  0.00    +0.024 A 
BRANCH  12  17
ATOM     17  C   LIG    1       27.396 -14.090   3.143  0.00  0.00    +0.339 C 
ATOM     18  O   LIG    1       28.315 -13.749   3.866  0.00  0.00    -0.245 OA
BRANCH  17  19
ATOM     19  O   LIG    1       27.538 -14.280   1.812  0.00  0.00    -0.477 OA
ATOM     20  H   LIG    1       28.006 -15.114   1.588  0.00  0.00    +0.295 HD
ENDBRANCH  17  19
ENDBRANCH  12  17
ENDBRANCH   1  11
TORSDOF 4
ENDMDL
MODEL 8
REMARK VINA RESULT:      -4.9      1.279      5.268
REMARK  Name = *****
REMARK                            x       y       z     vdW  Elec       q    Type
REMARK                         _______ _______ _______ _____ _____    ______ ____
ROOT
ATOM      1  N   LIG    1       24.677 -17.223   3.247  0.00  0.00    -0.314 N 
ATOM      2  H   LIG    1       23.801 -17.023   2.767  0.00  0.00    +0.152 HD
ENDROOT
BRANCH   1   7
ATOM      3  C   LIG    1       24.861 -12.395   4.667  0.00  0.00    +0.044 C 
ATOM      4  C   LIG    1       25.505 -13.707   4.298  0.00  0.00    -0.046 A 
ATOM      5  C   LIG    1       24.740 -14.878   4.050  0.00  0.00    -0.026 A 
ATOM      6  C   LIG    1       23.236 -14.809   4.181  0.00  0.00    +0.046 C 
ATOM      7  C   LIG    1       25.397 -16.064   3.633  0.00  0.00    +0.035 A 
ATOM      8  C   LIG    1       26.798 -16.050   3.507  0.00  0.00    +0.023 A 
ATOM      9  C   LIG    1       27.547 -14.915   3.800  0.00  0.00    +0.002 A 
ATOM     10  C   LIG    1       26.903 -13.748   4.188  0.00  0.00    +0.003 A 
ENDBRANCH   1   7
BRANCH   1  11
ATOM     11  C   LIG    1       24.621 -18.498   3.870  0.00  0.00    +0.045 A 
ATOM     12  C   LIG    1       23.413 -18.970   4.425  0.00  0.00    +0.080 A 
ATOM     13  C   LIG    1       23.359 -20.227   5.050  0.00  0.00    +0.017 A 
ATOM     14  C   LIG    1       24.497 -21.029   5.116  0.00  0.00    +0.001 A 
ATOM     15  C   LIG    1       25.697 -20.570   4.580  0.00  0.00    +0.002 A 
ATOM     16  C   LIG    1       25.760 -19.312   3.975  0.00  0.00    +0.024 A 
BRANCH  12  17
ATOM     17  C   LIG    1       22.142 -18.200   4.372  0.00  0.00    +0.339 C 
ATOM     18  O   LIG    1       21.993 -17.131   4.935  0.00  0.00    -0.245 OA
BRANCH  17  19
ATOM     19  O   LIG    1       21.153 -18.816   3.687  0.00  0.00    -0.477 OA
ATOM     20  H   LIG    1       20.578 -18.193   3.191  0.00  0.00    +0.295 HD
ENDBRANCH  17  19
ENDBRANCH  12  17
ENDBRANCH   1  11
TORSDOF 4
ENDMDL
MODEL 9
REMARK VINA RESULT:      -4.8      2.047      5.380
REMARK  Name = *****
REMARK                            x       y       z     vdW  Elec       q    Type
REMARK                         _______ _______ _______ _____ _____    ______ ____
ROOT
ATOM      1  N   LIG    1       25.854 -16.951   3.234  0.00  0.00    -0.314 N 
ATOM      2  H   LIG    1       24.952 -17.226   2.847  0.00  0.00    +0.152 HD
ENDROOT
BRANCH   1   7
ATOM      3  C   LIG    1       23.978 -12.395   4.272  0.00  0.00    +0.044 C 
ATOM      4  C   LIG    1       25.099 -13.323   3.880  0.00  0.00    -0.046 A 
ATOM      5  C   LIG    1       24.934 -14.734   3.854  0.00  0.00    -0.026 A 
ATOM      6  C   LIG    1       23.600 -15.321   4.254  0.00  0.00    +0.046 C 
ATOM      7  C   LIG    1       26.003 -15.551   3.404  0.00  0.00    +0.035 A 
ATOM      8  C   LIG    1       27.209 -14.936   3.023  0.00  0.00    +0.023 A 
ATOM      9  C   LIG    1       27.381 -13.557   3.098  0.00  0.00    +0.002 A 
ATOM     10  C   LIG    1       26.329 -12.755   3.518  0.00  0.00    +0.003 A 
ENDBRANCH   1   7
BRANCH   1  11
ATOM     11  C   LIG    1       26.413 -18.014   3.991  0.00  0.00    +0.045 A 
ATOM     12  C   LIG    1       25.667 -19.188   4.236  0.00  0.00    +0.080 A 
ATOM     13  C   LIG    1       26.217 -20.236   4.993  0.00  0.00    +0.017 A 
ATOM     14  C   LIG    1       27.511 -20.134   5.499  0.00  0.00    +0.001 A 
ATOM     15  C   LIG    1       28.253 -18.979   5.273  0.00  0.00    +0.002 A 
ATOM     16  C   LIG    1       27.704 -17.926   4.536  0.00  0.00    +0.024 A 
BRANCH  12  17
ATOM     17  C   LIG    1       24.294 -19.398   3.707  0.00  0.00    +0.339 C 
ATOM     18  O   LIG    1       23.373 -18.636   3.938  0.00  0.00    -0.245 OA
BRANCH  17  19
ATOM     19  O   LIG    1       24.147 -20.537   2.994  0.00  0.00    -0.477 OA
ATOM     20  H   LIG    1       23.438 -20.481   2.316  0.00  0.00    +0.295 HD
ENDBRANCH  17  19
ENDBRANCH  12  17
ENDBRANCH   1  11
TORSDOF 4
ENDMDL
