MODEL 1
REMARK VINA RESULT:      16.1      0.000      0.000
REMARK  Name = *****
REMARK                            x       y       z     vdW  Elec       q    Type
REMARK                         _______ _______ _______ _____ _____    ______ ____
ROOT
ATOM      1  O   LIG    1       23.459 -17.675   3.500  0.00  0.00    -0.339 OA
ENDROOT
BRANCH   1   7
ATOM      2  C   LIG    1       24.704 -15.518   4.565  0.00  0.00    +0.218 C 
ATOM      3  C   LIG    1       23.457 -14.673   4.370  0.00  0.00    +0.177 C 
ATOM      4  C   LIG    1       22.437 -15.454   5.176  0.00  0.00    +0.160 C 
ATOM      5  C   LIG    1       21.486 -14.841   6.170  0.00  0.00    +0.041 C 
ATOM      6  O   LIG    1       23.018 -16.701   5.609  0.00  0.00    -0.342 OA
ATOM      7  C   LIG    1       24.035 -16.973   4.660  0.00  0.00    +0.283 C 
BRANCH   3   8
ATOM      8  O   LIG    1       23.433 -13.289   4.660  0.00  0.00    -0.376 OA
ATOM      9  H   LIG    1       23.544 -13.250   5.639  0.00  0.00    +0.211 HD
ENDBRANCH   3   8
BRANCH   3  10
ATOM     10  C   LIG    1       23.089 -14.653   2.884  0.00  0.00    +0.263 C 
ATOM     11  O   LIG    1       23.215 -13.620   2.220  0.00  0.00    -0.298 OA
ENDBRANCH   3  10
BRANCH   2  12
ATOM     12  O   LIG    1       25.554 -15.036   5.694  0.00  0.00    -0.338 OA
BRANCH  12  14
ATOM     13  C   LIG    1       27.700 -15.088   4.172  0.00  0.00    +0.141 C 
ATOM     14  C   LIG    1       26.986 -14.746   5.583  0.00  0.00    +0.271 C 
ATOM     15  O   LIG    1       27.313 -13.379   5.857  0.00  0.00    -0.342 OA
ATOM     16  C   LIG    1       27.544 -12.403   4.817  0.00  0.00    +0.178 C 
ATOM     17  C   LIG    1       26.981 -12.720   3.425  0.00  0.00    +0.175 C 
ATOM     18  C   LIG    1       26.940 -14.237   3.114  0.00  0.00    +0.167 C 
BRANCH  13  20
ATOM     19  C   LIG    1       28.808 -17.238   4.924  0.00  0.00    +0.101 C 
ATOM     20  N   LIG    1       28.068 -16.517   3.848  0.00  0.00    -0.310 NA
ATOM     21  H   LIG    1       27.179 -17.020   3.801  0.00  0.00    +0.122 HD
ENDBRANCH  13  20
BRANCH  17  22
ATOM     22  O   LIG    1       25.707 -12.102   3.179  0.00  0.00    -0.387 OA
ATOM     23  H   LIG    1       25.828 -11.321   2.608  0.00  0.00    +0.210 HD
ENDBRANCH  17  22
BRANCH  18  24
ATOM     24  O   LIG    1       27.525 -14.404   1.813  0.00  0.00    -0.387 OA
ATOM     25  H   LIG    1       28.297 -13.812   1.791  0.00  0.00    +0.210 HD
ENDBRANCH  18  24
BRANCH  16  26
ATOM     26  C   LIG    1       29.052 -12.082   4.616  0.00  0.00    +0.190 C 
BRANCH  26  27
ATOM     27  O   LIG    1       29.399 -11.834   3.265  0.00  0.00    -0.392 OA
ATOM     28  H   LIG    1       28.916 -11.036   2.993  0.00  0.00    +0.209 HD
ENDBRANCH  26  27
ENDBRANCH  16  26
ENDBRANCH  12  14
ENDBRANCH   2  12
ENDBRANCH   1   7
BRANCH   1  29
ATOM     29  C   LIG    1       23.130 -19.110   3.457  0.00  0.00    +0.192 C 
ATOM     30  C   LIG    1       22.385 -19.838   4.663  0.00  0.00    +0.208 C 
ATOM     31  C   LIG    1       23.247 -19.821   5.927  0.00  0.00    +0.193 C 
ATOM     32  C   LIG    1       24.744 -19.774   5.572  0.00  0.00    +0.207 C 
ATOM     33  C   LIG    1       25.082 -20.380   4.215  0.00  0.00    +0.185 C 
ATOM     34  C   LIG    1       24.323 -19.949   2.997  0.00  0.00    +0.178 C 
BRANCH  30  35
ATOM     35  N   LIG    1       21.688 -21.131   4.371  0.00  0.00    -0.268 N 
ATOM     36  H   LIG    1       22.011 -21.865   5.006  0.00  0.00    +0.258 HD
BRANCH  35  37
ATOM     37  C   LIG    1       20.384 -21.425   4.075  0.00  0.00    +0.377 C 
ATOM     38  N   LIG    1       19.908 -21.571   2.918  0.00  0.00    -0.130 NA
ATOM     39  H   LIG    1       18.888 -21.720   3.024  0.00  0.00    +0.306 HD
BRANCH  37  40
ATOM     40  N   LIG    1       19.563 -21.571   5.132  0.00  0.00    -0.289 N 
ATOM     41  H   LIG    1       19.247 -20.706   5.570  0.00  0.00    +0.255 HD
ATOM     42  H   LIG    1       18.691 -21.838   4.743  0.00  0.00    +0.255 HD
ENDBRANCH  37  40
ENDBRANCH  35  37
ENDBRANCH  30  35
BRANCH  31  43
ATOM     43  O   LIG    1       22.880 -18.597   6.628  0.00  0.00    -0.385 OA
ATOM     44  H   LIG    1       23.182 -18.630   7.548  0.00  0.00    +0.210 HD
ENDBRANCH  31  43
BRANCH  32  45
ATOM     45  N   LIG    1       25.572 -20.408   6.627  0.00  0.00    -0.268 N 
ATOM     46  H   LIG    1       25.226 -20.095   7.533  0.00  0.00    +0.258 HD
BRANCH  45  47
ATOM     47  C   LIG    1       26.908 -20.503   6.696  0.00  0.00    +0.377 C 
ATOM     48  N   LIG    1       27.797 -21.486   6.474  0.00  0.00    -0.130 NA
ATOM     49  H   LIG    1       27.452 -22.318   6.063  0.00  0.00    +0.306 HD
BRANCH  47  50
ATOM     50  N   LIG    1       27.518 -19.402   7.060  0.00  0.00    -0.289 N 
ATOM     51  H   LIG    1       27.586 -19.330   8.068  0.00  0.00    +0.255 HD
ATOM     52  H   LIG    1       27.280 -18.525   6.588  0.00  0.00    +0.255 HD
ENDBRANCH  47  50
ENDBRANCH  45  47
ENDBRANCH  32  45
BRANCH  33  53
ATOM     53  O   LIG    1       26.475 -20.204   3.966  0.00  0.00    -0.386 OA
ATOM     54  H   LIG    1       26.596 -20.176   3.004  0.00  0.00    +0.210 HD
ENDBRANCH  33  53
BRANCH  34  55
ATOM     55  O   LIG    1       24.005 -21.183   2.295  0.00  0.00    -0.386 OA
ATOM     56  H   LIG    1       23.147 -21.121   1.820  0.00  0.00    +0.210 HD
ENDBRANCH  34  55
ENDBRANCH   1  29
TORSDOF 20
ENDMDL
MODEL 2
REMARK VINA RESULT:      18.1      2.609      7.555
REMARK  Name = *****
REMARK                            x       y       z     vdW  Elec       q    Type
REMARK                         _______ _______ _______ _____ _____    ______ ____
ROOT
ATOM      1  O   LIG    1       24.726 -16.538   4.817  0.00  0.00    -0.339 OA
ENDROOT
BRANCH   1   7
ATOM      2  C   LIG    1       24.886 -18.597   3.065  0.00  0.00    +0.218 C 
ATOM      3  C   LIG    1       26.118 -19.135   3.773  0.00  0.00    +0.177 C 
ATOM      4  C   LIG    1       25.586 -19.352   5.176  0.00  0.00    +0.160 C 
ATOM      5  C   LIG    1       25.800 -20.605   5.984  0.00  0.00    +0.041 C 
ATOM      6  O   LIG    1       24.253 -18.809   5.276  0.00  0.00    -0.342 OA
ATOM      7  C   LIG    1       24.199 -17.803   4.278  0.00  0.00    +0.283 C 
BRANCH   3   8
ATOM      8  O   LIG    1       26.838 -20.251   3.287  0.00  0.00    -0.376 OA
ATOM      9  H   LIG    1       27.732 -20.148   3.689  0.00  0.00    +0.211 HD
ENDBRANCH   3   8
BRANCH   3  10
ATOM     10  C   LIG    1       27.215 -18.067   3.758  0.00  0.00    +0.263 C 
ATOM     11  O   LIG    1       27.945 -17.903   4.739  0.00  0.00    -0.298 OA
ENDBRANCH   3  10
BRANCH   2  12
ATOM     12  O   LIG    1       24.112 -19.667   2.368  0.00  0.00    -0.338 OA
BRANCH  12  14
ATOM     13  C   LIG    1       22.405 -20.260   4.280  0.00  0.00    +0.141 C 
ATOM     14  C   LIG    1       22.741 -20.050   2.711  0.00  0.00    +0.271 C 
ATOM     15  O   LIG    1       21.755 -19.130   2.228  0.00  0.00    -0.342 OA
ATOM     16  C   LIG    1       21.150 -18.118   3.063  0.00  0.00    +0.178 C 
ATOM     17  C   LIG    1       21.903 -17.726   4.341  0.00  0.00    +0.175 C 
ATOM     18  C   LIG    1       22.720 -18.892   4.951  0.00  0.00    +0.167 C 
BRANCH  13  20
ATOM     19  C   LIG    1       22.586 -21.570   6.441  0.00  0.00    +0.101 C 
ATOM     20  N   LIG    1       22.827 -21.537   4.969  0.00  0.00    -0.310 NA
ATOM     21  H   LIG    1       22.193 -22.257   4.614  0.00  0.00    +0.122 HD
ENDBRANCH  13  20
BRANCH  17  22
ATOM     22  O   LIG    1       22.713 -16.550   4.179  0.00  0.00    -0.387 OA
ATOM     23  H   LIG    1       22.725 -16.045   5.013  0.00  0.00    +0.210 HD
ENDBRANCH  17  22
BRANCH  18  24
ATOM     24  O   LIG    1       22.400 -18.928   6.351  0.00  0.00    -0.387 OA
ATOM     25  H   LIG    1       21.435 -19.040   6.400  0.00  0.00    +0.210 HD
ENDBRANCH  18  24
BRANCH  16  26
ATOM     26  C   LIG    1       19.704 -18.484   3.502  0.00  0.00    +0.190 C 
BRANCH  26  27
ATOM     27  O   LIG    1       19.504 -19.876   3.676  0.00  0.00    -0.392 OA
ATOM     28  H   LIG    1       18.966 -20.178   2.924  0.00  0.00    +0.209 HD
ENDBRANCH  26  27
ENDBRANCH  16  26
ENDBRANCH  12  14
ENDBRANCH   2  12
ENDBRANCH   1   7
BRANCH   1  29
ATOM     29  C   LIG    1       24.472 -15.204   4.248  0.00  0.00    +0.192 C 
ATOM     30  C   LIG    1       25.034 -14.778   2.820  0.00  0.00    +0.208 C 
ATOM     31  C   LIG    1       26.564 -14.758   2.820  0.00  0.00    +0.193 C 
ATOM     32  C   LIG    1       27.112 -14.464   4.226  0.00  0.00    +0.207 C 
ATOM     33  C   LIG    1       26.165 -13.656   5.107  0.00  0.00    +0.185 C 
ATOM     34  C   LIG    1       24.742 -14.096   5.268  0.00  0.00    +0.178 C 
BRANCH  30  35
ATOM     35  N   LIG    1       24.372 -13.628   2.126  0.00  0.00    -0.268 N 
ATOM     36  H   LIG    1       23.354 -13.722   2.164  0.00  0.00    +0.258 HD
BRANCH  35  37
ATOM     37  C   LIG    1       24.634 -12.283   2.125  0.00  0.00    +0.377 C 
ATOM     38  N   LIG    1       25.733 -11.751   1.817  0.00  0.00    -0.130 NA
ATOM     39  H   LIG    1       25.633 -10.731   1.977  0.00  0.00    +0.306 HD
BRANCH  37  40
ATOM     40  N   LIG    1       23.608 -11.487   2.481  0.00  0.00    -0.289 N 
ATOM     41  H   LIG    1       23.542 -11.269   3.474  0.00  0.00    +0.255 HD
ATOM     42  H   LIG    1       23.871 -10.581   2.173  0.00  0.00    +0.255 HD
ENDBRANCH  37  40
ENDBRANCH  35  37
ENDBRANCH  30  35
BRANCH  31  43
ATOM     43  O   LIG    1       26.967 -16.101   2.418  0.00  0.00    -0.385 OA
ATOM     44  H   LIG    1       26.274 -16.742   2.636  0.00  0.00    +0.210 HD
ENDBRANCH  31  43
BRANCH  32  45
ATOM     45  N   LIG    1       28.435 -13.795   4.165  0.00  0.00    -0.268 N 
ATOM     46  H   LIG    1       29.110 -14.380   4.657  0.00  0.00    +0.258 HD
BRANCH  45  47
ATOM     47  C   LIG    1       28.735 -12.511   4.411  0.00  0.00    +0.377 C 
ATOM     48  N   LIG    1       28.959 -11.790   5.522  0.00  0.00    -0.130 NA
ATOM     49  H   LIG    1       29.038 -12.290   6.373  0.00  0.00    +0.306 HD
BRANCH  47  50
ATOM     50  N   LIG    1       28.843 -11.760   3.343  0.00  0.00    -0.289 N 
ATOM     51  H   LIG    1       29.739 -11.884   2.889  0.00  0.00    +0.255 HD
ATOM     52  H   LIG    1       28.521 -10.788   3.386  0.00  0.00    +0.255 HD
ENDBRANCH  47  50
ENDBRANCH  45  47
ENDBRANCH  32  45
BRANCH  33  53
ATOM     53  O   LIG    1       26.745 -13.519   6.403  0.00  0.00    -0.386 OA
ATOM     54  H   LIG    1       26.032 -13.622   7.052  0.00  0.00    +0.210 HD
ENDBRANCH  33  53
BRANCH  34  55
ATOM     55  O   LIG    1       23.953 -12.881   5.117  0.00  0.00    -0.386 OA
ATOM     56  H   LIG    1       24.519 -12.079   5.105  0.00  0.00    +0.210 HD
ENDBRANCH  34  55
ENDBRANCH   1  29
TORSDOF 20
ENDMDL
MODEL 3
REMARK VINA RESULT:      18.6      1.782      2.836
REMARK  Name = *****
REMARK                            x       y       z     vdW  Elec       q    Type
REMARK                         _______ _______ _______ _____ _____    ______ ____
ROOT
ATOM      1  O   LIG    1       23.622 -16.124   4.788  0.00  0.00    -0.339 OA
ENDROOT
BRANCH   1   7
ATOM      2  C   LIG    1       24.926 -14.549   3.011  0.00  0.00    +0.218 C 
ATOM      3  C   LIG    1       23.812 -13.519   3.070  0.00  0.00    +0.177 C 
ATOM      4  C   LIG    1       23.799 -13.175   4.547  0.00  0.00    +0.160 C 
ATOM      5  C   LIG    1       23.770 -11.772   5.095  0.00  0.00    +0.041 C 
ATOM      6  O   LIG    1       24.686 -14.065   5.256  0.00  0.00    -0.342 OA
ATOM      7  C   LIG    1       24.744 -15.231   4.452  0.00  0.00    +0.283 C 
BRANCH   3   8
ATOM      8  O   LIG    1       23.804 -12.370   2.245  0.00  0.00    -0.376 OA
ATOM      9  H   LIG    1       22.920 -11.967   2.410  0.00  0.00    +0.211 HD
ENDBRANCH   3   8
BRANCH   3  10
ATOM     10  C   LIG    1       22.495 -14.176   2.646  0.00  0.00    +0.263 C 
ATOM     11  O   LIG    1       21.876 -14.904   3.426  0.00  0.00    -0.298 OA
ENDBRANCH   3  10
BRANCH   2  12
ATOM     12  O   LIG    1       26.246 -13.948   2.655  0.00  0.00    -0.338 OA
BRANCH  12  14
ATOM     13  C   LIG    1       28.674 -13.638   3.619  0.00  0.00    +0.141 C 
ATOM     14  C   LIG    1       27.540 -14.571   2.940  0.00  0.00    +0.271 C 
ATOM     15  O   LIG    1       27.443 -15.728   3.778  0.00  0.00    -0.342 OA
ATOM     16  C   LIG    1       27.710 -15.693   5.198  0.00  0.00    +0.178 C 
ATOM     17  C   LIG    1       27.643 -14.325   5.888  0.00  0.00    +0.175 C 
ATOM     18  C   LIG    1       28.053 -13.153   4.961  0.00  0.00    +0.167 C 
BRANCH  13  20
ATOM     19  C   LIG    1       28.685 -11.448   2.346  0.00  0.00    +0.101 C 
ATOM     20  N   LIG    1       29.447 -12.661   2.765  0.00  0.00    -0.310 NA
ATOM     21  H   LIG    1       30.171 -12.280   3.378  0.00  0.00    +0.122 HD
ENDBRANCH  13  20
BRANCH  17  22
ATOM     22  O   LIG    1       26.376 -14.073   6.518  0.00  0.00    -0.387 OA
ATOM     23  H   LIG    1       25.660 -14.445   5.971  0.00  0.00    +0.210 HD
ENDBRANCH  17  22
BRANCH  18  24
ATOM     24  O   LIG    1       28.994 -12.357   5.698  0.00  0.00    -0.387 OA
ATOM     25  H   LIG    1       29.874 -12.668   5.426  0.00  0.00    +0.210 HD
ENDBRANCH  18  24
BRANCH  16  26
ATOM     26  C   LIG    1       29.094 -16.301   5.566  0.00  0.00    +0.190 C 
BRANCH  26  27
ATOM     27  O   LIG    1       29.157 -17.705   5.385  0.00  0.00    -0.392 OA
ATOM     28  H   LIG    1       30.031 -17.989   5.704  0.00  0.00    +0.209 HD
ENDBRANCH  26  27
ENDBRANCH  16  26
ENDBRANCH  12  14
ENDBRANCH   2  12
ENDBRANCH   1   7
BRANCH   1  29
ATOM     29  C   LIG    1       23.215 -17.304   4.006  0.00  0.00    +0.192 C 
ATOM     30  C   LIG    1       22.333 -18.469   4.639  0.00  0.00    +0.208 C 
ATOM     31  C   LIG    1       23.087 -19.171   5.770  0.00  0.00    +0.193 C 
ATOM     32  C   LIG    1       24.608 -19.088   5.553  0.00  0.00    +0.207 C 
ATOM     33  C   LIG    1       25.022 -18.954   4.092  0.00  0.00    +0.185 C 
ATOM     34  C   LIG    1       24.393 -17.901   3.233  0.00  0.00    +0.178 C 
BRANCH  30  35
ATOM     35  N   LIG    1       21.590 -19.368   3.700  0.00  0.00    -0.268 N 
ATOM     36  H   LIG    1       21.908 -20.335   3.801  0.00  0.00    +0.258 HD
BRANCH  35  37
ATOM     37  C   LIG    1       20.270 -19.433   3.342  0.00  0.00    +0.377 C 
ATOM     38  N   LIG    1       19.580 -18.472   2.907  0.00  0.00    -0.130 NA
ATOM     39  H   LIG    1       18.610 -18.821   2.791  0.00  0.00    +0.306 HD
BRANCH  37  40
ATOM     40  N   LIG    1       19.687 -20.639   3.471  0.00  0.00    -0.289 N 
ATOM     41  H   LIG    1       19.449 -20.916   4.422  0.00  0.00    +0.255 HD
ATOM     42  H   LIG    1       18.759 -20.510   3.145  0.00  0.00    +0.255 HD
ENDBRANCH  37  40
ENDBRANCH  35  37
ENDBRANCH  30  35
BRANCH  31  43
ATOM     43  O   LIG    1       22.734 -18.440   6.982  0.00  0.00    -0.385 OA
ATOM     44  H   LIG    1       23.390 -18.600   7.677  0.00  0.00    +0.210 HD
ENDBRANCH  31  43
BRANCH  32  45
ATOM     45  N   LIG    1       25.309 -20.241   6.171  0.00  0.00    -0.268 N 
ATOM     46  H   LIG    1       25.012 -20.308   7.144  0.00  0.00    +0.258 HD
BRANCH  45  47
ATOM     47  C   LIG    1       26.610 -20.561   6.105  0.00  0.00    +0.377 C 
ATOM     48  N   LIG    1       27.667 -20.080   5.430  0.00  0.00    -0.130 NA
ATOM     49  H   LIG    1       27.536 -19.232   4.937  0.00  0.00    +0.306 HD
BRANCH  47  50
ATOM     50  N   LIG    1       26.964 -21.570   6.861  0.00  0.00    -0.289 N 
ATOM     51  H   LIG    1       26.186 -22.193   7.040  0.00  0.00    +0.255 HD
ATOM     52  H   LIG    1       27.562 -21.394   7.675  0.00  0.00    +0.255 HD
ENDBRANCH  47  50
ENDBRANCH  45  47
ENDBRANCH  32  45
BRANCH  33  53
ATOM     53  O   LIG    1       26.439 -18.805   4.026  0.00  0.00    -0.386 OA
ATOM     54  H   LIG    1       26.683 -18.090   4.634  0.00  0.00    +0.210 HD
ENDBRANCH  33  53
BRANCH  34  55
ATOM     55  O   LIG    1       24.063 -18.577   1.987  0.00  0.00    -0.386 OA
ATOM     56  H   LIG    1       24.555 -19.422   1.891  0.00  0.00    +0.210 HD
ENDBRANCH  34  55
ENDBRANCH   1  29
TORSDOF 20
ENDMDL
MODEL 4
REMARK VINA RESULT:      18.8      2.421      4.742
REMARK  Name = *****
REMARK                            x       y       z     vdW  Elec       q    Type
REMARK                         _______ _______ _______ _____ _____    ______ ____
ROOT
ATOM      1  O   LIG    1       24.885 -20.509   3.625  0.00  0.00    -0.339 OA
ENDROOT
BRANCH   1   7
ATOM      2  C   LIG    1       25.884 -18.459   5.087  0.00  0.00    +0.218 C 
ATOM      3  C   LIG    1       26.682 -19.428   5.943  0.00  0.00    +0.177 C 
ATOM      4  C   LIG    1       27.534 -20.121   4.897  0.00  0.00    +0.160 C 
ATOM      5  C   LIG    1       29.017 -20.348   5.021  0.00  0.00    +0.041 C 
ATOM      6  O   LIG    1       27.110 -19.709   3.581  0.00  0.00    -0.342 OA
ATOM      7  C   LIG    1       25.754 -19.326   3.743  0.00  0.00    +0.283 C 
BRANCH   3   8
ATOM      8  O   LIG    1       27.436 -18.999   7.061  0.00  0.00    -0.376 OA
ATOM      9  H   LIG    1       28.368 -19.027   6.741  0.00  0.00    +0.211 HD
ENDBRANCH   3   8
BRANCH   3  10
ATOM     10  C   LIG    1       25.723 -20.414   6.616  0.00  0.00    +0.263 C 
ATOM     11  O   LIG    1       26.080 -21.570   6.859  0.00  0.00    -0.298 OA
ENDBRANCH   3  10
BRANCH   2  12
ATOM     12  O   LIG    1       26.509 -17.105   5.019  0.00  0.00    -0.338 OA
BRANCH  12  14
ATOM     13  C   LIG    1       25.433 -14.947   3.967  0.00  0.00    +0.141 C 
ATOM     14  C   LIG    1       26.429 -16.217   3.857  0.00  0.00    +0.271 C 
ATOM     15  O   LIG    1       27.696 -15.677   3.464  0.00  0.00    -0.342 OA
ATOM     16  C   LIG    1       28.128 -14.346   3.825  0.00  0.00    +0.178 C 
ATOM     17  C   LIG    1       27.428 -13.685   5.019  0.00  0.00    +0.175 C 
ATOM     18  C   LIG    1       25.952 -14.126   5.183  0.00  0.00    +0.167 C 
BRANCH  13  20
ATOM     19  C   LIG    1       23.204 -13.955   3.283  0.00  0.00    +0.101 C 
ATOM     20  N   LIG    1       23.946 -15.147   3.789  0.00  0.00    -0.310 NA
ATOM     21  H   LIG    1       23.854 -15.820   3.024  0.00  0.00    +0.122 HD
ENDBRANCH  13  20
BRANCH  17  22
ATOM     22  O   LIG    1       28.155 -13.830   6.250  0.00  0.00    -0.387 OA
ATOM     23  H   LIG    1       27.964 -14.702   6.641  0.00  0.00    +0.210 HD
ENDBRANCH  17  22
BRANCH  18  24
ATOM     24  O   LIG    1       25.182 -12.925   5.350  0.00  0.00    -0.387 OA
ATOM     25  H   LIG    1       25.449 -12.556   6.210  0.00  0.00    +0.210 HD
ENDBRANCH  18  24
BRANCH  16  26
ATOM     26  C   LIG    1       28.026 -13.339   2.645  0.00  0.00    +0.190 C 
BRANCH  26  27
ATOM     27  O   LIG    1       28.440 -12.028   2.987  0.00  0.00    -0.392 OA
ATOM     28  H   LIG    1       28.865 -12.086   3.860  0.00  0.00    +0.209 HD
ENDBRANCH  26  27
ENDBRANCH  16  26
ENDBRANCH  12  14
ENDBRANCH   2  12
ENDBRANCH   1   7
BRANCH   1  29
ATOM     29  C   LIG    1       23.416 -20.473   3.516  0.00  0.00    +0.192 C 
ATOM     30  C   LIG    1       22.648 -19.208   2.927  0.00  0.00    +0.208 C 
ATOM     31  C   LIG    1       22.859 -17.979   3.814  0.00  0.00    +0.193 C 
ATOM     32  C   LIG    1       23.113 -18.390   5.274  0.00  0.00    +0.207 C 
ATOM     33  C   LIG    1       22.495 -19.730   5.660  0.00  0.00    +0.185 C 
ATOM     34  C   LIG    1       22.744 -20.937   4.810  0.00  0.00    +0.178 C 
BRANCH  30  35
ATOM     35  N   LIG    1       21.251 -19.414   2.427  0.00  0.00    -0.268 N 
ATOM     36  H   LIG    1       21.109 -20.386   2.144  0.00  0.00    +0.258 HD
BRANCH  35  37
ATOM     37  C   LIG    1       20.039 -18.965   2.881  0.00  0.00    +0.377 C 
ATOM     38  N   LIG    1       19.395 -19.446   3.850  0.00  0.00    -0.130 NA
ATOM     39  H   LIG    1       18.494 -18.935   3.901  0.00  0.00    +0.306 HD
BRANCH  37  40
ATOM     40  N   LIG    1       19.520 -17.914   2.219  0.00  0.00    -0.289 N 
ATOM     41  H   LIG    1       20.180 -17.370   1.665  0.00  0.00    +0.255 HD
ATOM     42  H   LIG    1       19.021 -18.312   1.459  0.00  0.00    +0.255 HD
ENDBRANCH  37  40
ENDBRANCH  35  37
ENDBRANCH  30  35
BRANCH  31  43
ATOM     43  O   LIG    1       24.049 -17.322   3.286  0.00  0.00    -0.385 OA
ATOM     44  H   LIG    1       24.319 -17.731   2.450  0.00  0.00    +0.210 HD
ENDBRANCH  31  43
BRANCH  32  45
ATOM     45  N   LIG    1       22.666 -17.339   6.221  0.00  0.00    -0.268 N 
ATOM     46  H   LIG    1       22.183 -17.794   6.995  0.00  0.00    +0.258 HD
BRANCH  45  47
ATOM     47  C   LIG    1       22.039 -16.184   5.953  0.00  0.00    +0.377 C 
ATOM     48  N   LIG    1       21.916 -15.008   6.590  0.00  0.00    -0.130 NA
ATOM     49  H   LIG    1       22.482 -14.870   7.390  0.00  0.00    +0.306 HD
BRANCH  47  50
ATOM     50  N   LIG    1       21.388 -16.165   4.817  0.00  0.00    -0.289 N 
ATOM     51  H   LIG    1       21.078 -17.091   4.549  0.00  0.00    +0.255 HD
ATOM     52  H   LIG    1       21.755 -15.601   4.044  0.00  0.00    +0.255 HD
ENDBRANCH  47  50
ENDBRANCH  45  47
ENDBRANCH  32  45
BRANCH  33  53
ATOM     53  O   LIG    1       22.866 -20.038   7.003  0.00  0.00    -0.386 OA
ATOM     54  H   LIG    1       22.794 -21.000   7.110  0.00  0.00    +0.210 HD
ENDBRANCH  33  53
BRANCH  34  55
ATOM     55  O   LIG    1       21.441 -21.569   4.662  0.00  0.00    -0.386 OA
ATOM     56  H   LIG    1       21.324 -22.313   5.292  0.00  0.00    +0.210 HD
ENDBRANCH  34  55
ENDBRANCH   1  29
TORSDOF 20
ENDMDL
