MODEL 1
REMARK VINA RESULT:      -6.5      0.000      0.000
REMARK  Name = *****
REMARK                            x       y       z     vdW  Elec       q    Type
REMARK                         _______ _______ _______ _____ _____    ______ ____
ROOT
ATOM      1  C   LIG    1       26.999 -31.641   9.011  0.00  0.00    +0.162 A 
ATOM      2  C   LIG    1       27.147 -30.390   9.623  0.00  0.00    +0.162 A 
ATOM      3  C   LIG    1       26.512 -29.282   9.052  0.00  0.00    +0.054 A 
ATOM      4  C   LIG    1       25.736 -29.374   7.879  0.00  0.00    -0.023 A 
ATOM      5  C   LIG    1       25.045 -28.122   7.329  0.00  0.00    +0.094 C 
ATOM      6  N   LIG    1       24.263 -28.316   6.079  0.00  0.00    -0.294 NA
ATOM      7  C   LIG    1       23.588 -29.627   6.085  0.00  0.00    +0.089 C 
ATOM      8  C   LIG    1       24.552 -30.822   6.186  0.00  0.00    +0.051 C 
ATOM      9  C   LIG    1       25.021 -28.121   4.835  0.00  0.00    +0.096 C 
ATOM     10  C   LIG    1       25.700 -26.758   4.746  0.00  0.00    +0.070 C 
ATOM     11  C   LIG    1       26.618 -26.700   5.941  0.00  0.00    +0.139 C 
ATOM     12  O   LIG    1       27.806 -26.414   5.829  0.00  0.00    -0.297 OA
ATOM     13  C   LIG    1       25.970 -26.887   7.288  0.00  0.00    +0.098 C 
ATOM     14  C   LIG    1       25.520 -30.645   7.328  0.00  0.00    -0.038 A 
ATOM     15  C   LIG    1       26.194 -31.755   7.865  0.00  0.00    +0.053 A 
ENDROOT
BRANCH   1  17
ATOM     16  C   LIG    1       27.758 -33.825   8.416  0.00  0.00    +0.277 C 
ATOM     17  O   LIG    1       27.555 -32.830   9.416  0.00  0.00    -0.491 OA
ENDBRANCH   1  17
BRANCH   2  18
ATOM     18  O   LIG    1       27.939 -30.297  10.734  0.00  0.00    -0.491 OA
ATOM     19  C   LIG    1       27.849 -29.132  11.540  0.00  0.00    +0.277 C 
ENDBRANCH   2  18
BRANCH  10  20
ATOM     20  C   LIG    1       24.785 -25.520   4.764  0.00  0.00    +0.015 C 
BRANCH  20  21
ATOM     21  C   LIG    1       24.756 -24.693   6.059  0.00  0.00    -0.016 C 
ATOM     22  C   LIG    1       23.344 -24.495   6.605  0.00  0.00    +0.007 C 
ATOM     23  C   LIG    1       25.398 -23.325   5.790  0.00  0.00    +0.007 C 
ENDBRANCH  20  21
ENDBRANCH  10  20
TORSDOF 4
ENDMDL
MODEL 2
REMARK VINA RESULT:      -6.3      6.491     11.964
REMARK  Name = *****
REMARK                            x       y       z     vdW  Elec       q    Type
REMARK                         _______ _______ _______ _____ _____    ______ ____
ROOT
ATOM      1  C   LIG    1       24.535 -15.600   3.841  0.00  0.00    +0.162 A 
ATOM      2  C   LIG    1       25.628 -16.356   3.400  0.00  0.00    +0.162 A 
ATOM      3  C   LIG    1       25.538 -17.752   3.432  0.00  0.00    +0.054 A 
ATOM      4  C   LIG    1       24.391 -18.427   3.899  0.00  0.00    -0.023 A 
ATOM      5  C   LIG    1       24.353 -19.959   3.875  0.00  0.00    +0.094 C 
ATOM      6  N   LIG    1       23.110 -20.579   4.404  0.00  0.00    -0.294 NA
ATOM      7  C   LIG    1       21.930 -19.775   4.036  0.00  0.00    +0.089 C 
ATOM      8  C   LIG    1       21.965 -18.336   4.580  0.00  0.00    +0.051 C 
ATOM      9  C   LIG    1       23.122 -20.866   5.844  0.00  0.00    +0.096 C 
ATOM     10  C   LIG    1       24.293 -21.742   6.278  0.00  0.00    +0.070 C 
ATOM     11  C   LIG    1       25.526 -20.970   5.881  0.00  0.00    +0.139 C 
ATOM     12  O   LIG    1       26.431 -20.743   6.678  0.00  0.00    -0.297 OA
ATOM     13  C   LIG    1       25.643 -20.606   4.424  0.00  0.00    +0.098 C 
ATOM     14  C   LIG    1       23.272 -17.662   4.251  0.00  0.00    -0.038 A 
ATOM     15  C   LIG    1       23.370 -16.259   4.270  0.00  0.00    +0.053 A 
ENDROOT
BRANCH   1  17
ATOM     16  C   LIG    1       23.814 -13.575   2.801  0.00  0.00    +0.277 C 
ATOM     17  O   LIG    1       24.446 -14.230   3.897  0.00  0.00    -0.491 OA
ENDBRANCH   1  17
BRANCH   2  18
ATOM     18  O   LIG    1       26.755 -15.697   2.992  0.00  0.00    -0.491 OA
ATOM     19  C   LIG    1       27.416 -14.843   3.913  0.00  0.00    +0.277 C 
ENDBRANCH   2  18
BRANCH  10  20
ATOM     20  C   LIG    1       24.374 -23.153   5.668  0.00  0.00    +0.015 C 
BRANCH  20  21
ATOM     21  C   LIG    1       24.578 -24.324   6.641  0.00  0.00    -0.016 C 
ATOM     22  C   LIG    1       26.029 -24.476   7.091  0.00  0.00    +0.007 C 
ATOM     23  C   LIG    1       24.112 -25.620   5.965  0.00  0.00    +0.007 C 
ENDBRANCH  20  21
ENDBRANCH  10  20
TORSDOF 4
ENDMDL
MODEL 3
REMARK VINA RESULT:      -6.2      3.975      9.279
REMARK  Name = *****
REMARK                            x       y       z     vdW  Elec       q    Type
REMARK                         _______ _______ _______ _____ _____    ______ ____
ROOT
ATOM      1  C   LIG    1       24.215 -19.581   4.475  0.00  0.00    +0.162 A 
ATOM      2  C   LIG    1       23.071 -20.314   4.816  0.00  0.00    +0.162 A 
ATOM      3  C   LIG    1       23.210 -21.434   5.642  0.00  0.00    +0.054 A 
ATOM      4  C   LIG    1       24.460 -21.861   6.137  0.00  0.00    -0.023 A 
ATOM      5  C   LIG    1       24.530 -23.080   7.062  0.00  0.00    +0.094 C 
ATOM      6  N   LIG    1       25.893 -23.463   7.517  0.00  0.00    -0.294 NA
ATOM      7  C   LIG    1       26.716 -22.264   7.762  0.00  0.00    +0.089 C 
ATOM      8  C   LIG    1       26.905 -21.377   6.519  0.00  0.00    +0.051 C 
ATOM      9  C   LIG    1       26.596 -24.414   6.647  0.00  0.00    +0.096 C 
ATOM     10  C   LIG    1       25.815 -25.701   6.400  0.00  0.00    +0.070 C 
ATOM     11  C   LIG    1       24.521 -25.258   5.765  0.00  0.00    +0.139 C 
ATOM     12  O   LIG    1       24.115 -25.748   4.716  0.00  0.00    -0.297 OA
ATOM     13  C   LIG    1       23.696 -24.275   6.554  0.00  0.00    +0.098 C 
ATOM     14  C   LIG    1       25.583 -21.069   5.864  0.00  0.00    -0.038 A 
ATOM     15  C   LIG    1       25.461 -19.970   4.995  0.00  0.00    +0.053 A 
ENDROOT
BRANCH   1  17
ATOM     16  C   LIG    1       25.571 -18.004   3.303  0.00  0.00    +0.277 C 
ATOM     17  O   LIG    1       24.276 -18.470   3.670  0.00  0.00    -0.491 OA
ENDBRANCH   1  17
BRANCH   2  18
ATOM     18  O   LIG    1       21.868 -19.923   4.296  0.00  0.00    -0.491 OA
ATOM     19  C   LIG    1       21.552 -18.539   4.273  0.00  0.00    +0.277 C 
ENDBRANCH   2  18
BRANCH  10  20
ATOM     20  C   LIG    1       25.492 -26.568   7.630  0.00  0.00    +0.015 C 
BRANCH  20  21
ATOM     21  C   LIG    1       25.770 -28.075   7.515  0.00  0.00    -0.016 C 
ATOM     22  C   LIG    1       24.559 -28.867   7.028  0.00  0.00    +0.007 C 
ATOM     23  C   LIG    1       26.212 -28.606   8.885  0.00  0.00    +0.007 C 
ENDBRANCH  20  21
ENDBRANCH  10  20
TORSDOF 4
ENDMDL
MODEL 4
REMARK VINA RESULT:      -6.1      3.960      7.003
REMARK  Name = *****
REMARK                            x       y       z     vdW  Elec       q    Type
REMARK                         _______ _______ _______ _____ _____    ______ ____
ROOT
ATOM      1  C   LIG    1       25.537 -26.307   6.578  0.00  0.00    +0.162 A 
ATOM      2  C   LIG    1       25.119 -26.078   5.261  0.00  0.00    +0.162 A 
ATOM      3  C   LIG    1       24.962 -24.758   4.825  0.00  0.00    +0.054 A 
ATOM      4  C   LIG    1       25.198 -23.649   5.663  0.00  0.00    -0.023 A 
ATOM      5  C   LIG    1       25.034 -22.231   5.106  0.00  0.00    +0.094 C 
ATOM      6  N   LIG    1       25.288 -21.128   6.070  0.00  0.00    -0.294 NA
ATOM      7  C   LIG    1       26.399 -21.474   6.976  0.00  0.00    +0.089 C 
ATOM      8  C   LIG    1       26.144 -22.738   7.816  0.00  0.00    +0.051 C 
ATOM      9  C   LIG    1       24.112 -20.681   6.828  0.00  0.00    +0.096 C 
ATOM     10  C   LIG    1       22.945 -20.257   5.942  0.00  0.00    +0.070 C 
ATOM     11  C   LIG    1       22.614 -21.478   5.121  0.00  0.00    +0.139 C 
ATOM     12  O   LIG    1       21.472 -21.920   5.052  0.00  0.00    -0.297 OA
ATOM     13  C   LIG    1       23.736 -22.046   4.291  0.00  0.00    +0.098 C 
ATOM     14  C   LIG    1       25.702 -23.888   6.949  0.00  0.00    -0.038 A 
ATOM     15  C   LIG    1       25.816 -25.211   7.412  0.00  0.00    +0.053 A 
ENDROOT
BRANCH   1  17
ATOM     16  C   LIG    1       26.463 -27.532   8.406  0.00  0.00    +0.277 C 
ATOM     17  O   LIG    1       25.731 -27.525   7.184  0.00  0.00    -0.491 OA
ENDBRANCH   1  17
BRANCH   2  18
ATOM     18  O   LIG    1       24.847 -27.157   4.466  0.00  0.00    -0.491 OA
ATOM     19  C   LIG    1       24.459 -28.376   5.082  0.00  0.00    +0.277 C 
ENDBRANCH   2  18
BRANCH  10  20
ATOM     20  C   LIG    1       23.186 -19.071   4.990  0.00  0.00    +0.015 C 
BRANCH  20  21
ATOM     21  C   LIG    1       22.002 -18.124   4.742  0.00  0.00    -0.016 C 
ATOM     22  C   LIG    1       21.147 -18.542   3.549  0.00  0.00    +0.007 C 
ATOM     23  C   LIG    1       22.539 -16.704   4.516  0.00  0.00    +0.007 C 
ENDBRANCH  20  21
ENDBRANCH  10  20
TORSDOF 4
ENDMDL
MODEL 5
REMARK VINA RESULT:      -5.8      4.154      6.921
REMARK  Name = *****
REMARK                            x       y       z     vdW  Elec       q    Type
REMARK                         _______ _______ _______ _____ _____    ______ ____
ROOT
ATOM      1  C   LIG    1       24.235 -26.750  13.535  0.00  0.00    +0.162 A 
ATOM      2  C   LIG    1       23.323 -27.801  13.376  0.00  0.00    +0.162 A 
ATOM      3  C   LIG    1       23.722 -28.936  12.662  0.00  0.00    +0.054 A 
ATOM      4  C   LIG    1       25.005 -29.058  12.087  0.00  0.00    -0.023 A 
ATOM      5  C   LIG    1       25.381 -30.344  11.344  0.00  0.00    +0.094 C 
ATOM      6  N   LIG    1       26.747 -30.371  10.759  0.00  0.00    -0.294 NA
ATOM      7  C   LIG    1       27.707 -29.686  11.644  0.00  0.00    +0.089 C 
ATOM      8  C   LIG    1       27.371 -28.206  11.897  0.00  0.00    +0.051 C 
ATOM      9  C   LIG    1       26.845 -29.864   9.384  0.00  0.00    +0.096 C 
ATOM     10  C   LIG    1       25.912 -30.573   8.408  0.00  0.00    +0.070 C 
ATOM     11  C   LIG    1       24.526 -30.349   8.959  0.00  0.00    +0.139 C 
ATOM     12  O   LIG    1       23.620 -29.901   8.264  0.00  0.00    -0.297 OA
ATOM     13  C   LIG    1       24.286 -30.823  10.368  0.00  0.00    +0.098 C 
ATOM     14  C   LIG    1       25.937 -28.040  12.330  0.00  0.00    -0.038 A 
ATOM     15  C   LIG    1       25.529 -26.875  13.004  0.00  0.00    +0.053 A 
ENDROOT
BRANCH   1  17
ATOM     16  C   LIG    1       25.162 -24.758  14.469  0.00  0.00    +0.277 C 
ATOM     17  O   LIG    1       24.019 -25.559  14.187  0.00  0.00    -0.491 OA
ENDBRANCH   1  17
BRANCH   2  18
ATOM     18  O   LIG    1       22.066 -27.658  13.895  0.00  0.00    -0.491 OA
ATOM     19  C   LIG    1       21.048 -27.108  13.072  0.00  0.00    +0.277 C 
ENDBRANCH   2  18
BRANCH  10  20
ATOM     20  C   LIG    1       26.128 -32.084   8.210  0.00  0.00    +0.015 C 
BRANCH  20  21
ATOM     21  C   LIG    1       26.336 -32.577   6.769  0.00  0.00    -0.016 C 
ATOM     22  C   LIG    1       27.770 -33.019   6.494  0.00  0.00    +0.007 C 
ATOM     23  C   LIG    1       25.949 -31.454   5.798  0.00  0.00    +0.007 C 
ENDBRANCH  20  21
ENDBRANCH  10  20
TORSDOF 4
ENDMDL
MODEL 6
REMARK VINA RESULT:      -5.8      8.588     10.529
REMARK  Name = *****
REMARK                            x       y       z     vdW  Elec       q    Type
REMARK                         _______ _______ _______ _____ _____    ______ ____
ROOT
ATOM      1  C   LIG    1       23.628 -20.399   5.489  0.00  0.00    +0.162 A 
ATOM      2  C   LIG    1       24.552 -20.602   4.456  0.00  0.00    +0.162 A 
ATOM      3  C   LIG    1       25.904 -20.755   4.782  0.00  0.00    +0.054 A 
ATOM      4  C   LIG    1       26.374 -20.704   6.111  0.00  0.00    -0.023 A 
ATOM      5  C   LIG    1       27.865 -20.911   6.394  0.00  0.00    +0.094 C 
ATOM      6  N   LIG    1       28.266 -20.822   7.823  0.00  0.00    -0.294 NA
ATOM      7  C   LIG    1       27.230 -21.409   8.693  0.00  0.00    +0.089 C 
ATOM      8  C   LIG    1       25.860 -20.717   8.580  0.00  0.00    +0.051 C 
ATOM      9  C   LIG    1       28.638 -19.477   8.282  0.00  0.00    +0.096 C 
ATOM     10  C   LIG    1       29.746 -18.838   7.453  0.00  0.00    +0.070 C 
ATOM     11  C   LIG    1       29.202 -18.787   6.047  0.00  0.00    +0.139 C 
ATOM     12  O   LIG    1       29.202 -17.749   5.391  0.00  0.00    -0.297 OA
ATOM     13  C   LIG    1       28.780 -20.103   5.449  0.00  0.00    +0.098 C 
ATOM     14  C   LIG    1       25.430 -20.592   7.141  0.00  0.00    -0.038 A 
ATOM     15  C   LIG    1       24.077 -20.388   6.821  0.00  0.00    +0.053 A 
ENDROOT
BRANCH   1  17
ATOM     16  C   LIG    1       21.840 -19.051   4.663  0.00  0.00    +0.277 C 
ATOM     17  O   LIG    1       22.273 -20.214   5.362  0.00  0.00    -0.491 OA
ENDBRANCH   1  17
BRANCH   2  18
ATOM     18  O   LIG    1       24.098 -20.604   3.166  0.00  0.00    -0.491 OA
ATOM     19  C   LIG    1       24.672 -19.694   2.240  0.00  0.00    +0.277 C 
ENDBRANCH   2  18
BRANCH  10  20
ATOM     20  C   LIG    1       31.107 -19.558   7.432  0.00  0.00    +0.015 C 
BRANCH  20  21
ATOM     21  C   LIG    1       31.774 -19.829   8.789  0.00  0.00    -0.016 C 
ATOM     22  C   LIG    1       31.425 -21.201   9.359  0.00  0.00    +0.007 C 
ATOM     23  C   LIG    1       31.348 -18.738   9.780  0.00  0.00    +0.007 C 
ENDBRANCH  20  21
ENDBRANCH  10  20
TORSDOF 4
ENDMDL
MODEL 7
REMARK VINA RESULT:      -5.6      4.333      7.590
REMARK  Name = *****
REMARK                            x       y       z     vdW  Elec       q    Type
REMARK                         _______ _______ _______ _____ _____    ______ ____
ROOT
ATOM      1  C   LIG    1       24.826 -25.180   5.538  0.00  0.00    +0.162 A 
ATOM      2  C   LIG    1       25.318 -25.229   6.848  0.00  0.00    +0.162 A 
ATOM      3  C   LIG    1       25.782 -24.048   7.437  0.00  0.00    +0.054 A 
ATOM      4  C   LIG    1       25.783 -22.812   6.759  0.00  0.00    -0.023 A 
ATOM      5  C   LIG    1       26.280 -21.554   7.480  0.00  0.00    +0.094 C 
ATOM      6  N   LIG    1       26.258 -20.303   6.677  0.00  0.00    -0.294 NA
ATOM      7  C   LIG    1       25.075 -20.269   5.797  0.00  0.00    +0.089 C 
ATOM      8  C   LIG    1       25.015 -21.432   4.793  0.00  0.00    +0.051 C 
ATOM      9  C   LIG    1       27.486 -20.030   5.918  0.00  0.00    +0.096 C 
ATOM     10  C   LIG    1       28.740 -19.999   6.785  0.00  0.00    +0.070 C 
ATOM     11  C   LIG    1       28.806 -21.363   7.427  0.00  0.00    +0.139 C 
ATOM     12  O   LIG    1       29.819 -22.052   7.376  0.00  0.00    -0.297 OA
ATOM     13  C   LIG    1       27.606 -21.773   8.239  0.00  0.00    +0.098 C 
ATOM     14  C   LIG    1       25.206 -22.758   5.483  0.00  0.00    -0.038 A 
ATOM     15  C   LIG    1       24.782 -23.948   4.865  0.00  0.00    +0.053 A 
ENDROOT
BRANCH   1  17
ATOM     16  C   LIG    1       25.306 -27.128   4.243  0.00  0.00    +0.277 C 
ATOM     17  O   LIG    1       24.346 -26.232   4.795  0.00  0.00    -0.491 OA
ENDBRANCH   1  17
BRANCH   2  18
ATOM     18  O   LIG    1       25.359 -26.439   7.485  0.00  0.00    -0.491 OA
ATOM     19  C   LIG    1       26.556 -27.200   7.427  0.00  0.00    +0.277 C 
ENDBRANCH   2  18
BRANCH  10  20
ATOM     20  C   LIG    1       28.800 -18.929   7.890  0.00  0.00    +0.015 C 
BRANCH  20  21
ATOM     21  C   LIG    1       30.131 -18.774   8.641  0.00  0.00    -0.016 C 
ATOM     22  C   LIG    1       30.208 -17.483   9.452  0.00  0.00    +0.007 C 
ATOM     23  C   LIG    1       31.282 -18.813   7.628  0.00  0.00    +0.007 C 
ENDBRANCH  20  21
ENDBRANCH  10  20
TORSDOF 4
ENDMDL
MODEL 8
REMARK VINA RESULT:      -5.5      5.203      7.609
REMARK  Name = *****
REMARK                            x       y       z     vdW  Elec       q    Type
REMARK                         _______ _______ _______ _____ _____    ______ ____
ROOT
ATOM      1  C   LIG    1       21.397 -27.475  13.549  0.00  0.00    +0.162 A 
ATOM      2  C   LIG    1       21.107 -28.789  13.159  0.00  0.00    +0.162 A 
ATOM      3  C   LIG    1       22.135 -29.576  12.630  0.00  0.00    +0.054 A 
ATOM      4  C   LIG    1       23.450 -29.095  12.464  0.00  0.00    -0.023 A 
ATOM      5  C   LIG    1       24.531 -30.026  11.905  0.00  0.00    +0.094 C 
ATOM      6  N   LIG    1       25.881 -29.423  11.751  0.00  0.00    -0.294 NA
ATOM      7  C   LIG    1       26.166 -28.492  12.859  0.00  0.00    +0.089 C 
ATOM      8  C   LIG    1       25.173 -27.321  12.955  0.00  0.00    +0.051 C 
ATOM      9  C   LIG    1       26.133 -28.786  10.451  0.00  0.00    +0.096 C 
ATOM     10  C   LIG    1       25.907 -29.718   9.265  0.00  0.00    +0.070 C 
ATOM     11  C   LIG    1       24.466 -30.147   9.375  0.00  0.00    +0.139 C 
ATOM     12  O   LIG    1       23.689 -30.051   8.429  0.00  0.00    -0.297 OA
ATOM     13  C   LIG    1       24.068 -30.818  10.664  0.00  0.00    +0.098 C 
ATOM     14  C   LIG    1       23.749 -27.811  12.940  0.00  0.00    -0.038 A 
ATOM     15  C   LIG    1       22.712 -26.996  13.428  0.00  0.00    +0.053 A 
ENDROOT
BRANCH   1  17
ATOM     16  C   LIG    1       20.440 -26.468  15.491  0.00  0.00    +0.277 C 
ATOM     17  O   LIG    1       20.520 -26.555  14.071  0.00  0.00    -0.491 OA
ENDBRANCH   1  17
BRANCH   2  18
ATOM     18  O   LIG    1       19.820 -29.236  13.279  0.00  0.00    -0.491 OA
ATOM     19  C   LIG    1       19.461 -29.978  14.435  0.00  0.00    +0.277 C 
ENDBRANCH   2  18
BRANCH  10  20
ATOM     20  C   LIG    1       26.794 -30.974   9.186  0.00  0.00    +0.015 C 
BRANCH  20  21
ATOM     21  C   LIG    1       26.253 -32.160   8.372  0.00  0.00    -0.016 C 
ATOM     22  C   LIG    1       26.826 -33.500   8.823  0.00  0.00    +0.007 C 
ATOM     23  C   LIG    1       26.577 -31.935   6.889  0.00  0.00    +0.007 C 
ENDBRANCH  20  21
ENDBRANCH  10  20
TORSDOF 4
ENDMDL
MODEL 9
REMARK VINA RESULT:      -5.5      5.653      6.951
REMARK  Name = *****
REMARK                            x       y       z     vdW  Elec       q    Type
REMARK                         _______ _______ _______ _____ _____    ______ ____
ROOT
ATOM      1  C   LIG    1       25.365 -30.133   9.194  0.00  0.00    +0.162 A 
ATOM      2  C   LIG    1       26.042 -29.753  10.360  0.00  0.00    +0.162 A 
ATOM      3  C   LIG    1       25.304 -29.559  11.533  0.00  0.00    +0.054 A 
ATOM      4  C   LIG    1       23.904 -29.722  11.584  0.00  0.00    -0.023 A 
ATOM      5  C   LIG    1       23.168 -29.521  12.913  0.00  0.00    +0.094 C 
ATOM      6  N   LIG    1       21.693 -29.698  12.863  0.00  0.00    -0.294 NA
ATOM      7  C   LIG    1       21.330 -30.790  11.940  0.00  0.00    +0.089 C 
ATOM      8  C   LIG    1       21.790 -30.555  10.491  0.00  0.00    +0.051 C 
ATOM      9  C   LIG    1       20.930 -28.479  12.562  0.00  0.00    +0.096 C 
ATOM     10  C   LIG    1       21.223 -27.328  13.518  0.00  0.00    +0.070 C 
ATOM     11  C   LIG    1       22.704 -27.074  13.382  0.00  0.00    +0.139 C 
ATOM     12  O   LIG    1       23.149 -25.953  13.158  0.00  0.00    -0.297 OA
ATOM     13  C   LIG    1       23.608 -28.246  13.664  0.00  0.00    +0.098 C 
ATOM     14  C   LIG    1       23.251 -30.189  10.436  0.00  0.00    -0.038 A 
ATOM     15  C   LIG    1       23.976 -30.340   9.241  0.00  0.00    +0.053 A 
ENDROOT
BRANCH   1  17
ATOM     16  C   LIG    1       25.041 -30.259   6.832  0.00  0.00    +0.277 C 
ATOM     17  O   LIG    1       25.914 -30.353   7.954  0.00  0.00    -0.491 OA
ENDBRANCH   1  17
BRANCH   2  18
ATOM     18  O   LIG    1       27.392 -29.550  10.293  0.00  0.00    -0.491 OA
ATOM     19  C   LIG    1       28.078 -29.135  11.465  0.00  0.00    +0.277 C 
ENDBRANCH   2  18
BRANCH  10  20
ATOM     20  C   LIG    1       20.894 -27.555  15.005  0.00  0.00    +0.015 C 
BRANCH  20  21
ATOM     21  C   LIG    1       19.437 -27.333  15.439  0.00  0.00    -0.016 C 
ATOM     22  C   LIG    1       18.631 -28.627  15.498  0.00  0.00    +0.007 C 
ATOM     23  C   LIG    1       18.770 -26.356  14.462  0.00  0.00    +0.007 C 
ENDBRANCH  20  21
ENDBRANCH  10  20
TORSDOF 4
ENDMDL
