MODEL 1
REMARK VINA RESULT:      38.6      0.000      0.000
REMARK  Name = *****
REMARK                            x       y       z     vdW  Elec       q    Type
REMARK                         _______ _______ _______ _____ _____    ______ ____
ROOT
ATOM      1  C   LIG    1       21.704 -19.932   5.194  0.00  0.00    +0.133 C 
ATOM      2  C   LIG    1       22.805 -18.812   4.884  0.00  0.00    +0.012 C 
ATOM      3  C   LIG    1       22.949 -18.498   3.363  0.00  0.00    +0.011 C 
ATOM      4  C   LIG    1       22.050 -17.311   2.917  0.00  0.00    +0.089 C 
ATOM      5  N   LIG    1       22.225 -16.054   3.686  0.00  0.00    -0.293 NA
ATOM      6  C   LIG    1       23.230 -16.187   4.776  0.00  0.00    +0.104 C 
ATOM      7  C   LIG    1       23.650 -14.788   5.315  0.00  0.00    +0.038 C 
ATOM      8  C   LIG    1       23.571 -13.624   4.542  0.00  0.00    -0.016 C 
ATOM      9  C   LIG    1       24.792 -12.896   4.719  0.00  0.00    +0.003 C 
ATOM     10  C   LIG    1       25.448 -13.493   5.794  0.00  0.00    +0.051 C 
ATOM     11  C   LIG    1       26.778 -13.150   6.143  0.00  0.00    +0.072 C 
ATOM     12  C   LIG    1       27.482 -12.272   5.298  0.00  0.00    +0.122 C 
ATOM     13  C   LIG    1       26.827 -11.647   4.238  0.00  0.00    +0.046 C 
ATOM     14  C   LIG    1       25.473 -11.903   3.973  0.00  0.00    +0.014 C 
ATOM     15  C   LIG    1       22.589 -13.525   3.437  0.00  0.00    +0.053 C 
ATOM     16  N   LIG    1       24.579 -14.471   6.294  0.00  0.00    -0.356 NA
ATOM     17  H   LIG    1       24.768 -15.010   7.125  0.00  0.00    +0.166 HD
ATOM     18  C   LIG    1       22.448 -14.905   2.762  0.00  0.00    +0.090 C 
ATOM     19  C   LIG    1       22.893 -19.698   2.397  0.00  0.00    +0.052 C 
ATOM     20  C   LIG    1       22.738 -21.038   3.096  0.00  0.00    +0.206 C 
ATOM     21  C   LIG    1       22.784 -17.404   5.685  0.00  0.00    +0.030 C 
ATOM     22  C   LIG    1       21.540 -21.022   4.072  0.00  0.00    +0.172 C 
ENDROOT
BRANCH   1  23
ATOM     23  C   LIG    1       21.895 -20.756   6.481  0.00  0.00    +0.313 C 
ATOM     24  O   LIG    1       21.078 -21.571   6.897  0.00  0.00    -0.250 OA
BRANCH  23  26
ATOM     25  C   LIG    1       24.150 -21.493   6.836  0.00  0.00    +0.280 C 
ATOM     26  O   LIG    1       23.097 -20.541   7.062  0.00  0.00    -0.468 OA
ENDBRANCH  23  26
ENDBRANCH   1  23
BRANCH  12  27
ATOM     27  O   LIG    1       28.837 -12.057   5.317  0.00  0.00    -0.495 OA
ATOM     28  C   LIG    1       29.469 -11.553   4.149  0.00  0.00    +0.277 C 
ENDBRANCH  12  27
BRANCH  22  29
ATOM     29  O   LIG    1       20.297 -20.865   3.353  0.00  0.00    -0.375 OA
ATOM     30  C   LIG    1       19.799 -19.521   3.399  0.00  0.00    +0.194 C 
ENDBRANCH  22  29
BRANCH  20  31
ATOM     31  O   LIG    1       23.964 -21.290   3.833  0.00  0.00    -0.456 OA
BRANCH  31  32
ATOM     32  C   LIG    1       25.084 -20.777   3.259  0.00  0.00    +0.332 C 
ATOM     33  O   LIG    1       25.112 -20.292   2.183  0.00  0.00    -0.246 OA
BRANCH  32  34
ATOM     34  C   LIG    1       26.259 -21.139   4.138  0.00  0.00    +0.092 C 
ATOM     35  C   LIG    1       27.293 -20.438   4.607  0.00  0.00    +0.015 C 
BRANCH  35  36
ATOM     36  C   LIG    1       27.538 -18.999   4.606  0.00  0.00    -0.018 A 
ATOM     37  C   LIG    1       28.404 -18.381   5.490  0.00  0.00    +0.057 A 
ATOM     38  C   LIG    1       28.648 -17.017   5.517  0.00  0.00    +0.166 A 
ATOM     39  C   LIG    1       28.146 -16.200   4.518  0.00  0.00    +0.203 A 
ATOM     40  C   LIG    1       27.231 -16.809   3.611  0.00  0.00    +0.166 A 
ATOM     41  C   LIG    1       26.936 -18.187   3.663  0.00  0.00    +0.057 A 
BRANCH  38  42
ATOM     42  O   LIG    1       29.389 -16.470   6.514  0.00  0.00    -0.491 OA
ATOM     43  C   LIG    1       28.982 -15.230   7.058  0.00  0.00    +0.277 C 
ENDBRANCH  38  42
BRANCH  39  44
ATOM     44  O   LIG    1       28.424 -14.851   4.494  0.00  0.00    -0.488 OA
ATOM     45  C   LIG    1       28.625 -14.144   3.256  0.00  0.00    +0.277 C 
ENDBRANCH  39  44
BRANCH  40  46
ATOM     46  O   LIG    1       26.486 -16.245   2.607  0.00  0.00    -0.491 OA
ATOM     47  C   LIG    1       26.025 -14.946   2.875  0.00  0.00    +0.277 C 
ENDBRANCH  40  46
ENDBRANCH  35  36
ENDBRANCH  32  34
ENDBRANCH  31  32
ENDBRANCH  20  31
TORSDOF 11
ENDMDL
MODEL 2
REMARK VINA RESULT:      40.2      0.642      1.798
REMARK  Name = *****
REMARK                            x       y       z     vdW  Elec       q    Type
REMARK                         _______ _______ _______ _____ _____    ______ ____
ROOT
ATOM      1  C   LIG    1       21.800 -20.184   5.149  0.00  0.00    +0.133 C 
ATOM      2  C   LIG    1       22.867 -19.037   4.818  0.00  0.00    +0.012 C 
ATOM      3  C   LIG    1       23.108 -18.847   3.289  0.00  0.00    +0.011 C 
ATOM      4  C   LIG    1       22.190 -17.753   2.677  0.00  0.00    +0.089 C 
ATOM      5  N   LIG    1       22.247 -16.427   3.342  0.00  0.00    -0.293 NA
ATOM      6  C   LIG    1       23.173 -16.411   4.507  0.00  0.00    +0.104 C 
ATOM      7  C   LIG    1       23.485 -14.952   4.948  0.00  0.00    +0.038 C 
ATOM      8  C   LIG    1       23.409 -13.864   4.071  0.00  0.00    -0.016 C 
ATOM      9  C   LIG    1       24.577 -13.059   4.267  0.00  0.00    +0.003 C 
ATOM     10  C   LIG    1       25.179 -13.525   5.434  0.00  0.00    +0.051 C 
ATOM     11  C   LIG    1       26.462 -13.083   5.843  0.00  0.00    +0.072 C 
ATOM     12  C   LIG    1       27.184 -12.243   4.975  0.00  0.00    +0.122 C 
ATOM     13  C   LIG    1       26.581 -11.748   3.820  0.00  0.00    +0.046 C 
ATOM     14  C   LIG    1       25.264 -12.098   3.485  0.00  0.00    +0.014 C 
ATOM     15  C   LIG    1       22.508 -13.912   2.895  0.00  0.00    +0.053 C 
ATOM     16  N   LIG    1       24.323 -14.502   5.956  0.00  0.00    -0.356 NA
ATOM     17  H   LIG    1       24.475 -14.957   6.844  0.00  0.00    +0.166 HD
ATOM     18  C   LIG    1       22.483 -15.350   2.337  0.00  0.00    +0.090 C 
ATOM     19  C   LIG    1       23.181 -20.126   2.433  0.00  0.00    +0.052 C 
ATOM     20  C   LIG    1       23.039 -21.408   3.235  0.00  0.00    +0.206 C 
ATOM     21  C   LIG    1       22.719 -17.569   5.488  0.00  0.00    +0.030 C 
ATOM     22  C   LIG    1       21.772 -21.373   4.120  0.00  0.00    +0.172 C 
ENDROOT
BRANCH   1  23
ATOM     23  C   LIG    1       21.934 -20.884   6.514  0.00  0.00    +0.313 C 
ATOM     24  O   LIG    1       21.046 -21.559   7.025  0.00  0.00    -0.250 OA
BRANCH  23  26
ATOM     25  C   LIG    1       24.231 -21.572   6.566  0.00  0.00    +0.280 C 
ATOM     26  O   LIG    1       23.165 -20.740   7.054  0.00  0.00    -0.468 OA
ENDBRANCH  23  26
ENDBRANCH   1  23
BRANCH  12  27
ATOM     27  O   LIG    1       28.522 -11.955   5.069  0.00  0.00    -0.495 OA
ATOM     28  C   LIG    1       29.448 -12.739   4.332  0.00  0.00    +0.277 C 
ENDBRANCH  12  27
BRANCH  22  29
ATOM     29  O   LIG    1       20.580 -21.345   3.305  0.00  0.00    -0.375 OA
ATOM     30  C   LIG    1       19.392 -21.111   4.073  0.00  0.00    +0.194 C 
ENDBRANCH  22  29
BRANCH  20  31
ATOM     31  O   LIG    1       24.217 -21.530   4.075  0.00  0.00    -0.456 OA
BRANCH  31  32
ATOM     32  C   LIG    1       25.389 -21.242   3.450  0.00  0.00    +0.332 C 
ATOM     33  O   LIG    1       25.516 -21.183   2.278  0.00  0.00    -0.246 OA
BRANCH  32  34
ATOM     34  C   LIG    1       26.480 -21.238   4.497  0.00  0.00    +0.092 C 
ATOM     35  C   LIG    1       27.353 -20.311   4.896  0.00  0.00    +0.015 C 
BRANCH  35  36
ATOM     36  C   LIG    1       27.418 -18.884   4.599  0.00  0.00    -0.018 A 
ATOM     37  C   LIG    1       26.513 -18.245   3.770  0.00  0.00    +0.057 A 
ATOM     38  C   LIG    1       26.556 -16.894   3.464  0.00  0.00    +0.166 A 
ATOM     39  C   LIG    1       27.438 -16.057   4.127  0.00  0.00    +0.203 A 
ATOM     40  C   LIG    1       28.396 -16.696   4.967  0.00  0.00    +0.166 A 
ATOM     41  C   LIG    1       28.380 -18.088   5.191  0.00  0.00    +0.057 A 
BRANCH  38  42
ATOM     42  O   LIG    1       25.729 -16.375   2.521  0.00  0.00    -0.491 OA
ATOM     43  C   LIG    1       26.021 -15.096   1.993  0.00  0.00    +0.277 C 
ENDBRANCH  38  42
BRANCH  39  44
ATOM     44  O   LIG    1       27.457 -14.703   3.879  0.00  0.00    -0.488 OA
ATOM     45  C   LIG    1       27.979 -14.167   2.648  0.00  0.00    +0.277 C 
ENDBRANCH  39  44
BRANCH  40  46
ATOM     46  O   LIG    1       29.457 -16.160   5.650  0.00  0.00    -0.491 OA
ATOM     47  C   LIG    1       29.300 -16.120   7.046  0.00  0.00    +0.277 C 
ENDBRANCH  40  46
ENDBRANCH  35  36
ENDBRANCH  32  34
ENDBRANCH  31  32
ENDBRANCH  20  31
TORSDOF 11
ENDMDL
