MODEL 1
REMARK VINA RESULT:      -7.3      0.000      0.000
REMARK  Name = *****
REMARK                            x       y       z     vdW  Elec       q    Type
REMARK                         _______ _______ _______ _____ _____    ______ ____
ROOT
ATOM      1  C   LIG    1       24.694 -22.000   6.581  0.00  0.00    +0.011 C 
ATOM      2  C   LIG    1       24.764 -21.408   8.055  0.00  0.00    +0.013 C 
ATOM      3  C   LIG    1       23.396 -20.753   7.886  0.00  0.00    +0.002 C 
ATOM      4  C   LIG    1       23.161 -21.576   6.623  0.00  0.00    +0.013 C 
ENDROOT
BRANCH   1   5
ATOM      5  C   LIG    1       24.853 -23.644   6.473  0.00  0.00    -0.040 A 
ATOM      6  C   LIG    1       23.743 -24.497   6.263  0.00  0.00    +0.006 A 
ATOM      7  C   LIG    1       23.876 -25.877   6.079  0.00  0.00    +0.020 A 
ATOM      8  C   LIG    1       25.113 -26.471   6.212  0.00  0.00    +0.041 A 
ATOM      9 CL   LIG    1       25.280 -28.172   6.027  0.00  0.00    -0.084 Cl
ATOM     10  C   LIG    1       26.228 -25.693   6.515  0.00  0.00    +0.020 A 
ATOM     11  C   LIG    1       26.089 -24.303   6.625  0.00  0.00    +0.006 A 
ENDBRANCH   1   5
BRANCH   1  12
ATOM     12  C   LIG    1       25.553 -21.187   5.501  0.00  0.00    +0.067 C 
BRANCH  12  13
ATOM     13  N   LIG    1       24.821 -20.450   4.444  0.00  0.00    -0.305 NA
ATOM     14  C   LIG    1       25.489 -19.277   3.905  0.00  0.00    +0.105 C 
ATOM     15  C   LIG    1       24.169 -21.216   3.392  0.00  0.00    +0.105 C 
ENDBRANCH  12  13
BRANCH  12  16
ATOM     16  C   LIG    1       26.579 -20.242   6.201  0.00  0.00    +0.022 C 
BRANCH  16  18
ATOM     17  C   LIG    1       28.928 -19.395   6.122  0.00  0.00    +0.007 C 
ATOM     18  C   LIG    1       28.062 -20.654   6.315  0.00  0.00    -0.016 C 
ATOM     19  C   LIG    1       28.421 -21.318   7.637  0.00  0.00    +0.007 C 
ENDBRANCH  16  18
ENDBRANCH  12  16
ENDBRANCH   1  12
TORSDOF 5
ENDMDL
MODEL 2
REMARK VINA RESULT:      -7.3      0.706      1.073
REMARK  Name = *****
REMARK                            x       y       z     vdW  Elec       q    Type
REMARK                         _______ _______ _______ _____ _____    ______ ____
ROOT
ATOM      1  C   LIG    1       24.870 -21.924   6.258  0.00  0.00    +0.011 C 
ATOM      2  C   LIG    1       24.900 -21.441   7.771  0.00  0.00    +0.013 C 
ATOM      3  C   LIG    1       23.492 -20.867   7.644  0.00  0.00    +0.002 C 
ATOM      4  C   LIG    1       23.313 -21.606   6.322  0.00  0.00    +0.013 C 
ENDROOT
BRANCH   1   5
ATOM      5  C   LIG    1       25.139 -23.541   6.028  0.00  0.00    -0.040 A 
ATOM      6  C   LIG    1       25.753 -24.352   7.014  0.00  0.00    +0.006 A 
ATOM      7  C   LIG    1       25.903 -25.734   6.869  0.00  0.00    +0.020 A 
ATOM      8  C   LIG    1       25.545 -26.343   5.685  0.00  0.00    +0.041 A 
ATOM      9 CL   LIG    1       25.762 -28.036   5.482  0.00  0.00    -0.084 Cl
ATOM     10  C   LIG    1       25.025 -25.579   4.641  0.00  0.00    +0.020 A 
ATOM     11  C   LIG    1       24.815 -24.207   4.830  0.00  0.00    +0.006 A 
ENDBRANCH   1   5
BRANCH   1  12
ATOM     12  C   LIG    1       25.675 -20.978   5.246  0.00  0.00    +0.067 C 
BRANCH  12  13
ATOM     13  N   LIG    1       24.892 -20.164   4.287  0.00  0.00    -0.305 NA
ATOM     14  C   LIG    1       25.539 -18.957   3.798  0.00  0.00    +0.105 C 
ATOM     15  C   LIG    1       24.178 -20.849   3.219  0.00  0.00    +0.105 C 
ENDBRANCH  12  13
BRANCH  12  16
ATOM     16  C   LIG    1       26.689 -20.074   6.015  0.00  0.00    +0.022 C 
BRANCH  16  18
ATOM     17  C   LIG    1       29.013 -19.159   6.004  0.00  0.00    +0.007 C 
ATOM     18  C   LIG    1       28.183 -20.455   6.068  0.00  0.00    -0.016 C 
ATOM     19  C   LIG    1       28.577 -21.249   7.307  0.00  0.00    +0.007 C 
ENDBRANCH  16  18
ENDBRANCH  12  16
ENDBRANCH   1  12
TORSDOF 5
ENDMDL
MODEL 3
REMARK VINA RESULT:      -6.9      1.444      3.157
REMARK  Name = *****
REMARK                            x       y       z     vdW  Elec       q    Type
REMARK                         _______ _______ _______ _____ _____    ______ ____
ROOT
ATOM      1  C   LIG    1       25.465 -21.490   7.081  0.00  0.00    +0.011 C 
ATOM      2  C   LIG    1       26.843 -21.191   7.815  0.00  0.00    +0.013 C 
ATOM      3  C   LIG    1       26.118 -20.452   8.935  0.00  0.00    +0.002 C 
ATOM      4  C   LIG    1       24.788 -21.008   8.438  0.00  0.00    +0.013 C 
ENDROOT
BRANCH   1   5
ATOM      5  C   LIG    1       25.151 -23.089   6.794  0.00  0.00    -0.040 A 
ATOM      6  C   LIG    1       23.831 -23.602   6.748  0.00  0.00    +0.006 A 
ATOM      7  C   LIG    1       23.549 -24.931   6.417  0.00  0.00    +0.020 A 
ATOM      8  C   LIG    1       24.581 -25.825   6.228  0.00  0.00    +0.041 A 
ATOM      9 CL   LIG    1       24.245 -27.470   5.859  0.00  0.00    -0.084 Cl
ATOM     10  C   LIG    1       25.902 -25.398   6.356  0.00  0.00    +0.020 A 
ATOM     11  C   LIG    1       26.167 -24.048   6.618  0.00  0.00    +0.006 A 
ENDBRANCH   1   5
BRANCH   1  12
ATOM     12  C   LIG    1       25.157 -20.529   5.837  0.00  0.00    +0.067 C 
BRANCH  12  13
ATOM     13  N   LIG    1       26.269 -20.221   4.907  0.00  0.00    -0.305 NA
ATOM     14  C   LIG    1       25.904 -19.524   3.684  0.00  0.00    +0.105 C 
ATOM     15  C   LIG    1       27.510 -19.700   5.460  0.00  0.00    +0.105 C 
ENDBRANCH  12  13
BRANCH  12  16
ATOM     16  C   LIG    1       23.914 -21.031   5.039  0.00  0.00    +0.022 C 
BRANCH  16  18
ATOM     17  C   LIG    1       22.463 -19.008   4.830  0.00  0.00    +0.007 C 
ATOM     18  C   LIG    1       22.513 -20.459   5.343  0.00  0.00    -0.016 C 
ATOM     19  C   LIG    1       21.371 -21.255   4.726  0.00  0.00    +0.007 C 
ENDBRANCH  16  18
ENDBRANCH  12  16
ENDBRANCH   1  12
TORSDOF 5
ENDMDL
MODEL 4
REMARK VINA RESULT:      -6.7      1.253      2.936
REMARK  Name = *****
REMARK                            x       y       z     vdW  Elec       q    Type
REMARK                         _______ _______ _______ _____ _____    ______ ____
ROOT
ATOM      1  C   LIG    1       24.896 -21.596   6.686  0.00  0.00    +0.011 C 
ATOM      2  C   LIG    1       24.521 -21.375   8.215  0.00  0.00    +0.013 C 
ATOM      3  C   LIG    1       23.216 -20.690   7.824  0.00  0.00    +0.002 C 
ATOM      4  C   LIG    1       23.388 -21.184   6.391  0.00  0.00    +0.013 C 
ENDROOT
BRANCH   1   5
ATOM      5  C   LIG    1       25.179 -23.167   6.249  0.00  0.00    -0.040 A 
ATOM      6  C   LIG    1       25.849 -24.079   7.103  0.00  0.00    +0.006 A 
ATOM      7  C   LIG    1       26.013 -25.430   6.783  0.00  0.00    +0.020 A 
ATOM      8  C   LIG    1       25.615 -25.897   5.548  0.00  0.00    +0.041 A 
ATOM      9 CL   LIG    1       25.849 -27.548   5.131  0.00  0.00    -0.084 Cl
ATOM     10  C   LIG    1       25.038 -25.023   4.629  0.00  0.00    +0.020 A 
ATOM     11  C   LIG    1       24.815 -23.688   4.992  0.00  0.00    +0.006 A 
ENDBRANCH   1   5
BRANCH   1  12
ATOM     12  C   LIG    1       25.968 -20.554   6.112  0.00  0.00    +0.067 C 
BRANCH  12  13
ATOM     13  N   LIG    1       27.403 -20.825   6.364  0.00  0.00    -0.305 NA
ATOM     14  C   LIG    1       28.345 -19.918   5.729  0.00  0.00    +0.105 C 
ATOM     15  C   LIG    1       27.817 -21.150   7.722  0.00  0.00    +0.105 C 
ENDBRANCH  12  13
BRANCH  12  16
ATOM     16  C   LIG    1       25.732 -20.292   4.591  0.00  0.00    +0.022 C 
BRANCH  16  18
ATOM     17  C   LIG    1       25.854 -18.162   3.293  0.00  0.00    +0.007 C 
ATOM     18  C   LIG    1       24.926 -19.059   4.132  0.00  0.00    -0.016 C 
ATOM     19  C   LIG    1       23.681 -19.398   3.323  0.00  0.00    +0.007 C 
ENDBRANCH  16  18
ENDBRANCH  12  16
ENDBRANCH   1  12
TORSDOF 5
ENDMDL
MODEL 5
REMARK VINA RESULT:      -6.7      1.549      2.807
REMARK  Name = *****
REMARK                            x       y       z     vdW  Elec       q    Type
REMARK                         _______ _______ _______ _____ _____    ______ ____
ROOT
ATOM      1  C   LIG    1       25.518 -22.414   6.664  0.00  0.00    +0.011 C 
ATOM      2  C   LIG    1       26.963 -21.807   6.929  0.00  0.00    +0.013 C 
ATOM      3  C   LIG    1       26.538 -21.331   8.314  0.00  0.00    +0.002 C 
ATOM      4  C   LIG    1       25.279 -22.186   8.220  0.00  0.00    +0.013 C 
ENDROOT
BRANCH   1   5
ATOM      5  C   LIG    1       25.488 -24.025   6.287  0.00  0.00    -0.040 A 
ATOM      6  C   LIG    1       25.036 -24.498   5.031  0.00  0.00    +0.006 A 
ATOM      7  C   LIG    1       25.091 -25.848   4.668  0.00  0.00    +0.020 A 
ATOM      8  C   LIG    1       25.495 -26.790   5.590  0.00  0.00    +0.041 A 
ATOM      9 CL   LIG    1       25.528 -28.456   5.166  0.00  0.00    -0.084 Cl
ATOM     10  C   LIG    1       25.859 -26.393   6.875  0.00  0.00    +0.020 A 
ATOM     11  C   LIG    1       25.866 -25.030   7.199  0.00  0.00    +0.006 A 
ENDBRANCH   1   5
BRANCH   1  12
ATOM     12  C   LIG    1       24.581 -21.507   5.733  0.00  0.00    +0.067 C 
BRANCH  12  13
ATOM     13  N   LIG    1       23.218 -21.189   6.221  0.00  0.00    -0.305 NA
ATOM     14  C   LIG    1       22.684 -19.896   5.824  0.00  0.00    +0.105 C 
ATOM     15  C   LIG    1       22.198 -22.225   6.151  0.00  0.00    +0.105 C 
ENDBRANCH  12  13
BRANCH  12  16
ATOM     16  C   LIG    1       25.316 -20.199   5.306  0.00  0.00    +0.022 C 
BRANCH  16  18
ATOM     17  C   LIG    1       24.471 -20.681   3.006  0.00  0.00    +0.007 C 
ATOM     18  C   LIG    1       25.497 -19.862   3.811  0.00  0.00    -0.016 C 
ATOM     19  C   LIG    1       25.334 -18.383   3.485  0.00  0.00    +0.007 C 
ENDBRANCH  16  18
ENDBRANCH  12  16
ENDBRANCH   1  12
TORSDOF 5
ENDMDL
MODEL 6
REMARK VINA RESULT:      -6.6      1.597      2.870
REMARK  Name = *****
REMARK                            x       y       z     vdW  Elec       q    Type
REMARK                         _______ _______ _______ _____ _____    ______ ____
ROOT
ATOM      1  C   LIG    1       24.400 -21.174   5.819  0.00  0.00    +0.011 C 
ATOM      2  C   LIG    1       23.008 -20.425   5.985  0.00  0.00    +0.013 C 
ATOM      3  C   LIG    1       23.240 -19.650   4.692  0.00  0.00    +0.002 C 
ATOM      4  C   LIG    1       24.394 -20.583   4.343  0.00  0.00    +0.013 C 
ENDROOT
BRANCH   1   5
ATOM      5  C   LIG    1       24.315 -22.826   5.800  0.00  0.00    -0.040 A 
ATOM      6  C   LIG    1       25.072 -23.611   4.895  0.00  0.00    +0.006 A 
ATOM      7  C   LIG    1       25.077 -25.008   4.930  0.00  0.00    +0.020 A 
ATOM      8  C   LIG    1       24.238 -25.677   5.797  0.00  0.00    +0.041 A 
ATOM      9 CL   LIG    1       24.209 -27.395   5.819  0.00  0.00    -0.084 Cl
ATOM     10  C   LIG    1       23.398 -24.957   6.644  0.00  0.00    +0.020 A 
ATOM     11  C   LIG    1       23.458 -23.557   6.647  0.00  0.00    +0.006 A 
ENDBRANCH   1   5
BRANCH   1  12
ATOM     12  C   LIG    1       25.577 -20.591   6.736  0.00  0.00    +0.067 C 
BRANCH  12  13
ATOM     13  N   LIG    1       25.715 -21.126   8.111  0.00  0.00    -0.305 NA
ATOM     14  C   LIG    1       26.438 -22.381   8.238  0.00  0.00    +0.105 C 
ATOM     15  C   LIG    1       26.070 -20.204   9.181  0.00  0.00    +0.105 C 
ENDBRANCH  12  13
BRANCH  12  16
ATOM     16  C   LIG    1       26.949 -20.660   5.994  0.00  0.00    +0.022 C 
BRANCH  16  18
ATOM     17  C   LIG    1       29.257 -20.717   6.948  0.00  0.00    +0.007 C 
ATOM     18  C   LIG    1       28.131 -19.785   6.464  0.00  0.00    -0.016 C 
ATOM     19  C   LIG    1       28.673 -18.849   5.392  0.00  0.00    +0.007 C 
ENDBRANCH  16  18
ENDBRANCH  12  16
ENDBRANCH   1  12
TORSDOF 5
ENDMDL
MODEL 7
REMARK VINA RESULT:      -6.4      2.919      5.221
REMARK  Name = *****
REMARK                            x       y       z     vdW  Elec       q    Type
REMARK                         _______ _______ _______ _____ _____    ______ ____
ROOT
ATOM      1  C   LIG    1       25.559 -21.560   6.944  0.00  0.00    +0.011 C 
ATOM      2  C   LIG    1       24.454 -20.495   7.356  0.00  0.00    +0.013 C 
ATOM      3  C   LIG    1       23.996 -21.377   8.513  0.00  0.00    +0.002 C 
ATOM      4  C   LIG    1       25.245 -22.236   8.349  0.00  0.00    +0.013 C 
ENDROOT
BRANCH   1   5
ATOM      5  C   LIG    1       27.110 -20.985   6.893  0.00  0.00    -0.040 A 
ATOM      6  C   LIG    1       27.527 -20.022   5.941  0.00  0.00    +0.006 A 
ATOM      7  C   LIG    1       28.808 -19.462   5.946  0.00  0.00    +0.020 A 
ATOM      8  C   LIG    1       29.756 -19.925   6.833  0.00  0.00    +0.041 A 
ATOM      9 CL   LIG    1       31.346 -19.270   6.820  0.00  0.00    -0.084 Cl
ATOM     10  C   LIG    1       29.431 -20.940   7.730  0.00  0.00    +0.020 A 
ATOM     11  C   LIG    1       28.123 -21.441   7.760  0.00  0.00    +0.006 A 
ENDBRANCH   1   5
BRANCH   1  12
ATOM     12  C   LIG    1       25.160 -22.475   5.691  0.00  0.00    +0.067 C 
BRANCH  12  13
ATOM     13  N   LIG    1       24.756 -23.876   5.955  0.00  0.00    -0.305 NA
ATOM     14  C   LIG    1       23.378 -24.075   6.372  0.00  0.00    +0.105 C 
ATOM     15  C   LIG    1       25.177 -24.907   5.016  0.00  0.00    +0.105 C 
ENDBRANCH  12  13
BRANCH  12  16
ATOM     16  C   LIG    1       24.090 -21.768   4.801  0.00  0.00    +0.022 C 
BRANCH  16  18
ATOM     17  C   LIG    1       24.919 -19.909   3.354  0.00  0.00    +0.007 C 
ATOM     18  C   LIG    1       24.116 -20.235   4.626  0.00  0.00    -0.016 C 
ATOM     19  C   LIG    1       22.736 -19.598   4.532  0.00  0.00    +0.007 C 
ENDBRANCH  16  18
ENDBRANCH  12  16
ENDBRANCH   1  12
TORSDOF 5
ENDMDL
MODEL 8
REMARK VINA RESULT:      -6.4      2.713      5.450
REMARK  Name = *****
REMARK                            x       y       z     vdW  Elec       q    Type
REMARK                         _______ _______ _______ _____ _____    ______ ____
ROOT
ATOM      1  C   LIG    1       25.165 -21.017   5.350  0.00  0.00    +0.011 C 
ATOM      2  C   LIG    1       24.936 -20.941   3.779  0.00  0.00    +0.013 C 
ATOM      3  C   LIG    1       23.765 -19.982   3.969  0.00  0.00    +0.002 C 
ATOM      4  C   LIG    1       24.172 -19.776   5.424  0.00  0.00    +0.013 C 
ENDROOT
BRANCH   1   5
ATOM      5  C   LIG    1       26.682 -20.596   5.863  0.00  0.00    -0.040 A 
ATOM      6  C   LIG    1       27.299 -21.214   6.979  0.00  0.00    +0.006 A 
ATOM      7  C   LIG    1       28.613 -20.932   7.366  0.00  0.00    +0.020 A 
ATOM      8  C   LIG    1       29.321 -19.940   6.721  0.00  0.00    +0.041 A 
ATOM      9 CL   LIG    1       30.922 -19.560   7.216  0.00  0.00    -0.084 Cl
ATOM     10  C   LIG    1       28.729 -19.231   5.678  0.00  0.00    +0.020 A 
ATOM     11  C   LIG    1       27.438 -19.575   5.256  0.00  0.00    +0.006 A 
ENDBRANCH   1   5
BRANCH   1  12
ATOM     12  C   LIG    1       24.586 -22.342   6.040  0.00  0.00    +0.067 C 
BRANCH  12  13
ATOM     13  N   LIG    1       23.267 -22.255   6.709  0.00  0.00    -0.305 NA
ATOM     14  C   LIG    1       22.473 -23.473   6.715  0.00  0.00    +0.105 C 
ATOM     15  C   LIG    1       23.185 -21.566   7.989  0.00  0.00    +0.105 C 
ENDBRANCH  12  13
BRANCH  12  16
ATOM     16  C   LIG    1       24.603 -23.542   5.043  0.00  0.00    +0.022 C 
BRANCH  16  18
ATOM     17  C   LIG    1       25.926 -24.688   6.824  0.00  0.00    +0.007 C 
ATOM     18  C   LIG    1       25.360 -24.838   5.400  0.00  0.00    -0.016 C 
ATOM     19  C   LIG    1       24.507 -26.097   5.323  0.00  0.00    +0.007 C 
ENDBRANCH  16  18
ENDBRANCH  12  16
ENDBRANCH   1  12
TORSDOF 5
ENDMDL
MODEL 9
REMARK VINA RESULT:      -6.1      1.318      1.756
REMARK  Name = *****
REMARK                            x       y       z     vdW  Elec       q    Type
REMARK                         _______ _______ _______ _____ _____    ______ ____
ROOT
ATOM      1  C   LIG    1       24.186 -21.274   5.588  0.00  0.00    +0.011 C 
ATOM      2  C   LIG    1       23.562 -20.514   6.837  0.00  0.00    +0.013 C 
ATOM      3  C   LIG    1       22.542 -19.820   5.939  0.00  0.00    +0.002 C 
ATOM      4  C   LIG    1       22.894 -20.776   4.804  0.00  0.00    +0.013 C 
ENDROOT
BRANCH   1   5
ATOM      5  C   LIG    1       24.210 -22.925   5.707  0.00  0.00    -0.040 A 
ATOM      6  C   LIG    1       25.017 -23.730   4.866  0.00  0.00    +0.006 A 
ATOM      7  C   LIG    1       25.115 -25.117   5.016  0.00  0.00    +0.020 A 
ATOM      8  C   LIG    1       24.324 -25.764   5.941  0.00  0.00    +0.041 A 
ATOM      9 CL   LIG    1       24.409 -27.473   6.107  0.00  0.00    -0.084 Cl
ATOM     10  C   LIG    1       23.439 -25.033   6.731  0.00  0.00    +0.020 A 
ATOM     11  C   LIG    1       23.405 -23.637   6.617  0.00  0.00    +0.006 A 
ENDBRANCH   1   5
BRANCH   1  12
ATOM     12  C   LIG    1       25.551 -20.638   5.042  0.00  0.00    +0.067 C 
BRANCH  12  13
ATOM     13  N   LIG    1       25.456 -19.490   4.109  0.00  0.00    -0.305 NA
ATOM     14  C   LIG    1       26.624 -18.627   4.039  0.00  0.00    +0.105 C 
ATOM     15  C   LIG    1       24.889 -19.718   2.787  0.00  0.00    +0.105 C 
ENDBRANCH  12  13
BRANCH  12  16
ATOM     16  C   LIG    1       26.517 -20.293   6.219  0.00  0.00    +0.022 C 
BRANCH  16  18
ATOM     17  C   LIG    1       28.701 -21.032   7.178  0.00  0.00    +0.007 C 
ATOM     18  C   LIG    1       27.222 -21.422   7.000  0.00  0.00    -0.016 C 
ATOM     19  C   LIG    1       26.606 -21.712   8.362  0.00  0.00    +0.007 C 
ENDBRANCH  16  18
ENDBRANCH  12  16
ENDBRANCH   1  12
TORSDOF 5
ENDMDL
