MODEL 1
REMARK VINA RESULT:       3.5      0.000      0.000
REMARK  Name = *****
REMARK                            x       y       z     vdW  Elec       q    Type
REMARK                         _______ _______ _______ _____ _____    ______ ____
ROOT
ATOM      1  O   LIG    1       23.876 -15.635   4.624  0.00  0.00    -0.284 OA
ENDROOT
BRANCH   1   2
ATOM      2  P   LIG    1       24.033 -14.755   3.212  0.00  0.00    +0.462 P 
ATOM      3  O   LIG    1       22.799 -13.876   3.511  0.00  0.00    -0.228 OA
BRANCH   2   4
ATOM      4  N   LIG    1       25.115 -13.511   3.687  0.00  0.00    -0.199 NA
ATOM      5  H   LIG    1       25.425 -13.756   4.620  0.00  0.00    +0.135 HD
BRANCH   4   6
ATOM      6  C   LIG    1       24.703 -12.093   3.743  0.00  0.00    +0.171 C 
ATOM      7  C   LIG    1       23.576 -11.825   2.747  0.00  0.00    +0.036 C 
BRANCH   6   8
ATOM      8  C   LIG    1       24.236 -11.773   5.193  0.00  0.00    +0.325 C 
ATOM      9  O   LIG    1       23.088 -11.447   5.496  0.00  0.00    -0.249 OA
BRANCH   8  10
ATOM     10  O   LIG    1       25.277 -11.800   6.074  0.00  0.00    -0.461 OA
BRANCH  10  12
ATOM     11  C   LIG    1       27.708 -12.078   5.772  0.00  0.00    +0.051 C 
ATOM     12  C   LIG    1       26.341 -12.745   5.849  0.00  0.00    +0.170 C 
ATOM     13  C   LIG    1       26.302 -13.736   7.013  0.00  0.00    +0.051 C 
ENDBRANCH  10  12
ENDBRANCH   8  10
ENDBRANCH   6   8
ENDBRANCH   4   6
ENDBRANCH   2   4
BRANCH   2  14
ATOM     14  O   LIG    1       25.389 -15.721   2.884  0.00  0.00    -0.413 OA
BRANCH  14  15
ATOM     15  C   LIG    1       26.596 -15.066   3.061  0.00  0.00    +0.131 A 
ATOM     16  C   LIG    1       27.491 -15.517   4.030  0.00  0.00    +0.046 A 
ATOM     17  C   LIG    1       28.660 -14.785   4.291  0.00  0.00    +0.004 A 
ATOM     18  C   LIG    1       28.939 -13.620   3.574  0.00  0.00    +0.000 A 
ATOM     19  C   LIG    1       28.069 -13.199   2.574  0.00  0.00    +0.004 A 
ATOM     20  C   LIG    1       26.908 -13.923   2.314  0.00  0.00    +0.046 A 
ENDBRANCH  14  15
ENDBRANCH   2  14
ENDBRANCH   1   2
BRANCH   1  21
ATOM     21  C   LIG    1       22.691 -16.380   4.887  0.00  0.00    +0.206 C 
BRANCH  21  22
ATOM     22  C   LIG    1       22.562 -17.591   3.959  0.00  0.00    +0.179 C 
ATOM     23  C   LIG    1       21.640 -18.687   4.478  0.00  0.00    +0.186 C 
ATOM     24  C   LIG    1       22.575 -19.756   5.050  0.00  0.00    +0.182 C 
ATOM     25  C   LIG    1       22.664 -19.632   6.563  0.00  0.00    +0.055 C 
ATOM     26  F   LIG    1       22.007 -20.973   4.776  0.00  0.00    -0.235 F 
ATOM     27  C   LIG    1       23.851 -19.557   4.200  0.00  0.00    +0.263 C 
ATOM     28  O   LIG    1       23.871 -18.170   3.788  0.00  0.00    -0.345 OA
BRANCH  27  29
ATOM     29  N   LIG    1       25.177 -19.932   4.749  0.00  0.00    -0.271 N 
ATOM     30  C   LIG    1       26.315 -19.357   4.199  0.00  0.00    +0.331 C 
ATOM     31  O   LIG    1       26.344 -18.742   3.147  0.00  0.00    -0.246 OA
ATOM     32  N   LIG    1       27.487 -19.540   4.908  0.00  0.00    -0.275 N 
ATOM     33  H   LIG    1       28.319 -19.144   4.494  0.00  0.00    +0.173 HD
ATOM     34  C   LIG    1       27.664 -20.413   5.927  0.00  0.00    +0.254 C 
ATOM     35  O   LIG    1       28.778 -20.713   6.379  0.00  0.00    -0.268 OA
ATOM     36  C   LIG    1       26.443 -21.000   6.476  0.00  0.00    +0.088 C 
ATOM     37  C   LIG    1       25.269 -20.703   5.898  0.00  0.00    +0.098 C 
ENDBRANCH  27  29
BRANCH  23  38
ATOM     38  O   LIG    1       20.911 -19.246   3.370  0.00  0.00    -0.386 OA
ATOM     39  H   LIG    1       20.878 -18.544   2.690  0.00  0.00    +0.210 HD
ENDBRANCH  23  38
ENDBRANCH  21  22
ENDBRANCH   1  21
TORSDOF 12
ENDMDL
MODEL 2
REMARK VINA RESULT:       5.8      1.622      3.005
REMARK  Name = *****
REMARK                            x       y       z     vdW  Elec       q    Type
REMARK                         _______ _______ _______ _____ _____    ______ ____
ROOT
ATOM      1  O   LIG    1       24.514 -16.615   3.278  0.00  0.00    -0.284 OA
ENDROOT
BRANCH   1   2
ATOM      2  P   LIG    1       25.456 -15.348   3.831  0.00  0.00    +0.462 P 
ATOM      3  O   LIG    1       26.634 -16.269   4.218  0.00  0.00    -0.228 OA
BRANCH   2   4
ATOM      4  N   LIG    1       26.243 -14.836   2.395  0.00  0.00    -0.199 NA
ATOM      5  H   LIG    1       27.211 -15.123   2.494  0.00  0.00    +0.135 HD
BRANCH   4   6
ATOM      6  C   LIG    1       26.268 -13.420   1.978  0.00  0.00    +0.171 C 
ATOM      7  C   LIG    1       24.852 -12.848   1.943  0.00  0.00    +0.036 C 
BRANCH   6   8
ATOM      8  C   LIG    1       27.152 -12.625   2.983  0.00  0.00    +0.325 C 
ATOM      9  O   LIG    1       27.626 -11.511   2.760  0.00  0.00    -0.249 OA
BRANCH   8  10
ATOM     10  O   LIG    1       27.420 -13.356   4.103  0.00  0.00    -0.461 OA
BRANCH  10  12
ATOM     11  C   LIG    1       28.250 -13.617   6.410  0.00  0.00    +0.051 C 
ATOM     12  C   LIG    1       27.897 -12.665   5.274  0.00  0.00    +0.170 C 
ATOM     13  C   LIG    1       29.131 -11.874   4.845  0.00  0.00    +0.051 C 
ENDBRANCH  10  12
ENDBRANCH   8  10
ENDBRANCH   6   8
ENDBRANCH   4   6
ENDBRANCH   2   4
BRANCH   2  14
ATOM     14  O   LIG    1       24.161 -14.337   3.406  0.00  0.00    -0.413 OA
BRANCH  14  15
ATOM     15  C   LIG    1       23.710 -13.543   4.446  0.00  0.00    +0.131 A 
ATOM     16  C   LIG    1       22.629 -13.965   5.219  0.00  0.00    +0.046 A 
ATOM     17  C   LIG    1       22.098 -13.109   6.196  0.00  0.00    +0.004 A 
ATOM     18  C   LIG    1       22.656 -11.847   6.410  0.00  0.00    +0.000 A 
ATOM     19  C   LIG    1       23.765 -11.448   5.672  0.00  0.00    +0.004 A 
ATOM     20  C   LIG    1       24.293 -12.296   4.701  0.00  0.00    +0.046 A 
ENDBRANCH  14  15
ENDBRANCH   2  14
ENDBRANCH   1   2
BRANCH   1  21
ATOM     21  C   LIG    1       23.412 -17.088   4.045  0.00  0.00    +0.206 C 
BRANCH  21  22
ATOM     22  C   LIG    1       23.102 -18.557   3.751  0.00  0.00    +0.179 C 
ATOM     23  C   LIG    1       22.162 -19.216   4.753  0.00  0.00    +0.186 C 
ATOM     24  C   LIG    1       23.071 -20.029   5.677  0.00  0.00    +0.182 C 
ATOM     25  C   LIG    1       23.323 -19.277   6.975  0.00  0.00    +0.055 C 
ATOM     26  F   LIG    1       22.392 -21.176   5.999  0.00  0.00    -0.235 F 
ATOM     27  C   LIG    1       24.264 -20.356   4.750  0.00  0.00    +0.263 C 
ATOM     28  O   LIG    1       24.342 -19.292   3.772  0.00  0.00    -0.345 OA
BRANCH  27  29
ATOM     29  N   LIG    1       25.609 -20.601   5.327  0.00  0.00    -0.271 N 
ATOM     30  C   LIG    1       26.692 -19.892   4.821  0.00  0.00    +0.331 C 
ATOM     31  O   LIG    1       26.680 -19.250   3.785  0.00  0.00    -0.246 OA
ATOM     32  N   LIG    1       27.859 -19.967   5.557  0.00  0.00    -0.275 N 
ATOM     33  H   LIG    1       28.653 -19.473   5.176  0.00  0.00    +0.173 HD
ATOM     34  C   LIG    1       28.104 -20.842   6.561  0.00  0.00    +0.254 C 
ATOM     35  O   LIG    1       29.232 -21.033   7.035  0.00  0.00    -0.268 OA
ATOM     36  C   LIG    1       26.941 -21.572   7.062  0.00  0.00    +0.088 C 
ATOM     37  C   LIG    1       25.756 -21.387   6.459  0.00  0.00    +0.098 C 
ENDBRANCH  27  29
BRANCH  23  38
ATOM     38  O   LIG    1       21.284 -20.113   4.049  0.00  0.00    -0.386 OA
ATOM     39  H   LIG    1       21.663 -20.209   3.152  0.00  0.00    +0.210 HD
ENDBRANCH  23  38
ENDBRANCH  21  22
ENDBRANCH   1  21
TORSDOF 12
ENDMDL
MODEL 3
REMARK VINA RESULT:       6.4      2.590      7.646
REMARK  Name = *****
REMARK                            x       y       z     vdW  Elec       q    Type
REMARK                         _______ _______ _______ _____ _____    ______ ____
ROOT
ATOM      1  O   LIG    1       26.134 -17.190   3.663  0.00  0.00    -0.284 OA
ENDROOT
BRANCH   1   2
ATOM      2  P   LIG    1       26.256 -18.842   3.890  0.00  0.00    +0.462 P 
ATOM      3  O   LIG    1       27.428 -18.714   4.888  0.00  0.00    -0.228 OA
BRANCH   2   4
ATOM      4  N   LIG    1       25.127 -19.113   5.153  0.00  0.00    -0.199 NA
ATOM      5  H   LIG    1       24.831 -18.193   5.461  0.00  0.00    +0.135 HD
BRANCH   4   6
ATOM      6  C   LIG    1       25.480 -19.867   6.373  0.00  0.00    +0.171 C 
ATOM      7  C   LIG    1       24.225 -20.438   7.030  0.00  0.00    +0.036 C 
BRANCH   6   8
ATOM      8  C   LIG    1       26.457 -21.013   5.978  0.00  0.00    +0.325 C 
ATOM      9  O   LIG    1       26.466 -21.570   4.880  0.00  0.00    -0.249 OA
BRANCH   8  10
ATOM     10  O   LIG    1       27.236 -21.394   7.031  0.00  0.00    -0.461 OA
BRANCH  10  12
ATOM     11  C   LIG    1       29.413 -21.470   5.874  0.00  0.00    +0.051 C 
ATOM     12  C   LIG    1       28.608 -20.956   7.062  0.00  0.00    +0.170 C 
ATOM     13  C   LIG    1       28.582 -19.428   7.060  0.00  0.00    +0.051 C 
ENDBRANCH  10  12
ENDBRANCH   8  10
ENDBRANCH   6   8
ENDBRANCH   4   6
ENDBRANCH   2   4
BRANCH   2  14
ATOM     14  O   LIG    1       24.968 -18.983   2.794  0.00  0.00    -0.413 OA
BRANCH  14  15
ATOM     15  C   LIG    1       23.836 -19.564   3.338  0.00  0.00    +0.131 A 
ATOM     16  C   LIG    1       22.802 -18.754   3.808  0.00  0.00    +0.046 A 
ATOM     17  C   LIG    1       21.707 -19.337   4.465  0.00  0.00    +0.004 A 
ATOM     18  C   LIG    1       21.639 -20.721   4.634  0.00  0.00    +0.000 A 
ATOM     19  C   LIG    1       22.646 -21.530   4.121  0.00  0.00    +0.004 A 
ATOM     20  C   LIG    1       23.735 -20.954   3.469  0.00  0.00    +0.046 A 
ENDBRANCH  14  15
ENDBRANCH   2  14
ENDBRANCH   1   2
BRANCH   1  21
ATOM     21  C   LIG    1       27.214 -16.454   3.099  0.00  0.00    +0.206 C 
BRANCH  21  22
ATOM     22  C   LIG    1       26.799 -15.028   2.729  0.00  0.00    +0.179 C 
ATOM     23  C   LIG    1       27.555 -13.937   3.477  0.00  0.00    +0.186 C 
ATOM     24  C   LIG    1       26.601 -13.478   4.582  0.00  0.00    +0.182 C 
ATOM     25  C   LIG    1       26.971 -14.123   5.909  0.00  0.00    +0.055 C 
ATOM     26  F   LIG    1       26.778 -12.126   4.727  0.00  0.00    -0.235 F 
ATOM     27  C   LIG    1       25.219 -13.773   3.958  0.00  0.00    +0.263 C 
ATOM     28  O   LIG    1       25.399 -14.872   3.034  0.00  0.00    -0.345 OA
BRANCH  27  29
ATOM     29  N   LIG    1       24.051 -14.045   4.832  0.00  0.00    -0.271 N 
ATOM     30  C   LIG    1       23.522 -13.003   5.584  0.00  0.00    +0.331 C 
ATOM     31  O   LIG    1       24.071 -11.932   5.770  0.00  0.00    -0.246 OA
ATOM     32  N   LIG    1       22.295 -13.245   6.171  0.00  0.00    -0.275 N 
ATOM     33  H   LIG    1       21.922 -12.498   6.739  0.00  0.00    +0.173 HD
ATOM     34  C   LIG    1       21.698 -14.456   6.282  0.00  0.00    +0.254 C 
ATOM     35  O   LIG    1       20.720 -14.667   7.012  0.00  0.00    -0.268 OA
ATOM     36  C   LIG    1       22.286 -15.527   5.479  0.00  0.00    +0.088 C 
ATOM     37  C   LIG    1       23.394 -15.264   4.768  0.00  0.00    +0.098 C 
ENDBRANCH  27  29
BRANCH  23  38
ATOM     38  O   LIG    1       27.799 -12.838   2.580  0.00  0.00    -0.386 OA
ATOM     39  H   LIG    1       28.374 -13.193   1.873  0.00  0.00    +0.210 HD
ENDBRANCH  23  38
ENDBRANCH  21  22
ENDBRANCH   1  21
TORSDOF 12
ENDMDL
