MODEL 1
REMARK VINA RESULT:      -7.3      0.000      0.000
REMARK  Name = *****
REMARK                            x       y       z     vdW  Elec       q    Type
REMARK                         _______ _______ _______ _____ _____    ______ ____
ROOT
ATOM      1  C   LIG    1       27.169 -20.854   6.371  0.00  0.00    +0.121 A 
ATOM      2  C   LIG    1       26.790 -19.983   5.341  0.00  0.00    +0.054 A 
ATOM      3  C   LIG    1       25.430 -19.782   4.988  0.00  0.00    -0.011 A 
ATOM      4  C   LIG    1       24.461 -20.545   5.691  0.00  0.00    -0.017 A 
ATOM      5  C   LIG    1       23.103 -20.444   5.374  0.00  0.00    +0.008 A 
ATOM      6  C   LIG    1       22.672 -19.582   4.375  0.00  0.00    +0.001 A 
ATOM      7  C   LIG    1       23.598 -18.794   3.697  0.00  0.00    +0.004 A 
ATOM      8  C   LIG    1       24.848 -21.412   6.715  0.00  0.00    +0.012 A 
ATOM      9  C   LIG    1       24.975 -18.871   3.989  0.00  0.00    -0.038 A 
ATOM     10  C   LIG    1       26.187 -21.558   7.057  0.00  0.00    +0.046 A 
ENDROOT
BRANCH   1  12
ATOM     11  C   LIG    1       29.260 -19.759   6.356  0.00  0.00    +0.277 C 
ATOM     12  O   LIG    1       28.511 -20.941   6.635  0.00  0.00    -0.495 OA
ENDBRANCH   1  12
BRANCH   9  13
ATOM     13  C   LIG    1       25.914 -17.949   3.228  0.00  0.00    +0.054 C 
BRANCH  13  14
ATOM     14  C   LIG    1       25.537 -16.460   3.292  0.00  0.00    +0.109 C 
BRANCH  14  15
ATOM     15  N   LIG    1       26.616 -15.569   3.677  0.00  0.00    -0.315 N 
ATOM     16  H   LIG    1       27.112 -15.754   4.538  0.00  0.00    +0.149 HD
ATOM     17  C   LIG    1       26.955 -14.467   2.922  0.00  0.00    +0.210 C 
ATOM     18  O   LIG    1       26.352 -14.119   1.924  0.00  0.00    -0.276 OA
ATOM     19  C   LIG    1       28.142 -13.709   3.459  0.00  0.00    +0.109 C 
ENDBRANCH  14  15
ENDBRANCH  13  14
ENDBRANCH   9  13
TORSDOF 4
ENDMDL
MODEL 2
REMARK VINA RESULT:      -6.1      2.012      5.610
REMARK  Name = *****
REMARK                            x       y       z     vdW  Elec       q    Type
REMARK                         _______ _______ _______ _____ _____    ______ ____
ROOT
ATOM      1  C   LIG    1       26.034 -14.891   3.334  0.00  0.00    +0.121 A 
ATOM      2  C   LIG    1       25.813 -16.273   3.371  0.00  0.00    +0.054 A 
ATOM      3  C   LIG    1       24.574 -16.825   3.790  0.00  0.00    -0.011 A 
ATOM      4  C   LIG    1       23.576 -15.916   4.226  0.00  0.00    -0.017 A 
ATOM      5  C   LIG    1       22.345 -16.378   4.700  0.00  0.00    +0.008 A 
ATOM      6  C   LIG    1       22.067 -17.738   4.740  0.00  0.00    +0.001 A 
ATOM      7  C   LIG    1       23.013 -18.649   4.281  0.00  0.00    +0.004 A 
ATOM      8  C   LIG    1       23.807 -14.539   4.188  0.00  0.00    +0.012 A 
ATOM      9  C   LIG    1       24.266 -18.219   3.798  0.00  0.00    -0.038 A 
ATOM     10  C   LIG    1       25.019 -14.032   3.739  0.00  0.00    +0.046 A 
ENDROOT
BRANCH   1  12
ATOM     11  C   LIG    1       27.983 -13.636   3.781  0.00  0.00    +0.277 C 
ATOM     12  O   LIG    1       27.262 -14.479   2.884  0.00  0.00    -0.495 OA
ENDBRANCH   1  12
BRANCH   9  13
ATOM     13  C   LIG    1       25.228 -19.276   3.282  0.00  0.00    +0.054 C 
BRANCH  13  14
ATOM     14  C   LIG    1       25.448 -20.461   4.238  0.00  0.00    +0.109 C 
BRANCH  14  15
ATOM     15  N   LIG    1       26.670 -20.403   5.017  0.00  0.00    -0.315 N 
ATOM     16  H   LIG    1       27.555 -20.364   4.528  0.00  0.00    +0.149 HD
ATOM     17  C   LIG    1       26.658 -20.434   6.394  0.00  0.00    +0.210 C 
ATOM     18  O   LIG    1       25.649 -20.572   7.060  0.00  0.00    -0.276 OA
ATOM     19  C   LIG    1       28.026 -20.299   7.014  0.00  0.00    +0.109 C 
ENDBRANCH  14  15
ENDBRANCH  13  14
ENDBRANCH   9  13
TORSDOF 4
ENDMDL
MODEL 3
REMARK VINA RESULT:      -5.5      1.999      3.611
REMARK  Name = *****
REMARK                            x       y       z     vdW  Elec       q    Type
REMARK                         _______ _______ _______ _____ _____    ______ ____
ROOT
ATOM      1  C   LIG    1       22.840 -20.865   5.384  0.00  0.00    +0.121 A 
ATOM      2  C   LIG    1       23.853 -20.143   4.740  0.00  0.00    +0.054 A 
ATOM      3  C   LIG    1       25.187 -20.125   5.223  0.00  0.00    -0.011 A 
ATOM      4  C   LIG    1       25.448 -20.832   6.426  0.00  0.00    -0.017 A 
ATOM      5  C   LIG    1       26.724 -20.827   6.997  0.00  0.00    +0.008 A 
ATOM      6  C   LIG    1       27.768 -20.142   6.390  0.00  0.00    +0.001 A 
ATOM      7  C   LIG    1       27.549 -19.474   5.189  0.00  0.00    +0.004 A 
ATOM      8  C   LIG    1       24.431 -21.548   7.062  0.00  0.00    +0.012 A 
ATOM      9  C   LIG    1       26.274 -19.456   4.586  0.00  0.00    -0.038 A 
ATOM     10  C   LIG    1       23.143 -21.571   6.542  0.00  0.00    +0.046 A 
ENDROOT
BRANCH   1  12
ATOM     11  C   LIG    1       21.309 -19.635   4.074  0.00  0.00    +0.277 C 
ATOM     12  O   LIG    1       21.598 -20.827   4.804  0.00  0.00    -0.495 OA
ENDBRANCH   1  12
BRANCH   9  13
ATOM     13  C   LIG    1       26.129 -18.734   3.257  0.00  0.00    +0.054 C 
BRANCH  13  14
ATOM     14  C   LIG    1       25.654 -17.276   3.370  0.00  0.00    +0.109 C 
BRANCH  14  15
ATOM     15  N   LIG    1       26.712 -16.284   3.392  0.00  0.00    -0.315 N 
ATOM     16  H   LIG    1       27.670 -16.595   3.297  0.00  0.00    +0.149 HD
ATOM     17  C   LIG    1       26.451 -14.943   3.572  0.00  0.00    +0.210 C 
ATOM     18  O   LIG    1       25.340 -14.493   3.786  0.00  0.00    -0.276 OA
ATOM     19  C   LIG    1       27.679 -14.072   3.500  0.00  0.00    +0.109 C 
ENDBRANCH  14  15
ENDBRANCH  13  14
ENDBRANCH   9  13
TORSDOF 4
ENDMDL
MODEL 4
REMARK VINA RESULT:      -5.1      2.948      6.902
REMARK  Name = *****
REMARK                            x       y       z     vdW  Elec       q    Type
REMARK                         _______ _______ _______ _____ _____    ______ ____
ROOT
ATOM      1  C   LIG    1       24.462 -13.166   3.968  0.00  0.00    +0.121 A 
ATOM      2  C   LIG    1       23.833 -14.415   4.049  0.00  0.00    +0.054 A 
ATOM      3  C   LIG    1       24.541 -15.628   3.845  0.00  0.00    -0.011 A 
ATOM      4  C   LIG    1       25.914 -15.525   3.501  0.00  0.00    -0.017 A 
ATOM      5  C   LIG    1       26.674 -16.668   3.236  0.00  0.00    +0.008 A 
ATOM      6  C   LIG    1       26.103 -17.931   3.320  0.00  0.00    +0.001 A 
ATOM      7  C   LIG    1       24.769 -18.063   3.694  0.00  0.00    +0.004 A 
ATOM      8  C   LIG    1       26.532 -14.275   3.422  0.00  0.00    +0.012 A 
ATOM      9  C   LIG    1       23.973 -16.932   3.966  0.00  0.00    -0.038 A 
ATOM     10  C   LIG    1       25.816 -13.109   3.661  0.00  0.00    +0.046 A 
ENDROOT
BRANCH   1  12
ATOM     11  C   LIG    1       23.887 -11.447   5.480  0.00  0.00    +0.277 C 
ATOM     12  O   LIG    1       23.677 -12.069   4.213  0.00  0.00    -0.495 OA
ENDBRANCH   1  12
BRANCH   9  13
ATOM     13  C   LIG    1       22.536 -17.165   4.403  0.00  0.00    +0.054 C 
BRANCH  13  14
ATOM     14  C   LIG    1       22.106 -18.641   4.425  0.00  0.00    +0.109 C 
BRANCH  14  15
ATOM     15  N   LIG    1       22.438 -19.360   5.641  0.00  0.00    -0.315 N 
ATOM     16  H   LIG    1       22.231 -18.927   6.531  0.00  0.00    +0.149 HD
ATOM     17  C   LIG    1       23.053 -20.592   5.614  0.00  0.00    +0.210 C 
ATOM     18  O   LIG    1       23.420 -21.144   4.593  0.00  0.00    -0.276 OA
ATOM     19  C   LIG    1       23.253 -21.198   6.980  0.00  0.00    +0.109 C 
ENDBRANCH  14  15
ENDBRANCH  13  14
ENDBRANCH   9  13
TORSDOF 4
ENDMDL
MODEL 5
REMARK VINA RESULT:      -4.9      2.090      3.738
REMARK  Name = *****
REMARK                            x       y       z     vdW  Elec       q    Type
REMARK                         _______ _______ _______ _____ _____    ______ ____
ROOT
ATOM      1  C   LIG    1       24.450 -20.714   4.997  0.00  0.00    +0.121 A 
ATOM      2  C   LIG    1       25.108 -19.576   4.514  0.00  0.00    +0.054 A 
ATOM      3  C   LIG    1       26.453 -19.281   4.860  0.00  0.00    -0.011 A 
ATOM      4  C   LIG    1       27.095 -20.165   5.767  0.00  0.00    -0.017 A 
ATOM      5  C   LIG    1       28.402 -19.922   6.198  0.00  0.00    +0.008 A 
ATOM      6  C   LIG    1       29.107 -18.819   5.736  0.00  0.00    +0.001 A 
ATOM      7  C   LIG    1       28.515 -17.959   4.816  0.00  0.00    +0.004 A 
ATOM      8  C   LIG    1       26.429 -21.296   6.245  0.00  0.00    +0.012 A 
ATOM      9  C   LIG    1       27.197 -18.171   4.361  0.00  0.00    -0.038 A 
ATOM     10  C   LIG    1       25.124 -21.572   5.857  0.00  0.00    +0.046 A 
ENDROOT
BRANCH   1  12
ATOM     11  C   LIG    1       22.276 -19.813   4.816  0.00  0.00    +0.277 C 
ATOM     12  O   LIG    1       23.162 -20.904   4.567  0.00  0.00    -0.495 OA
ENDBRANCH   1  12
BRANCH   9  13
ATOM     13  C   LIG    1       26.640 -17.205   3.328  0.00  0.00    +0.054 C 
BRANCH  13  14
ATOM     14  C   LIG    1       26.913 -15.722   3.627  0.00  0.00    +0.109 C 
BRANCH  14  15
ATOM     15  N   LIG    1       25.779 -14.838   3.441  0.00  0.00    -0.315 N 
ATOM     16  H   LIG    1       25.171 -14.991   2.648  0.00  0.00    +0.149 HD
ATOM     17  C   LIG    1       25.531 -13.782   4.291  0.00  0.00    +0.210 C 
ATOM     18  O   LIG    1       26.260 -13.470   5.214  0.00  0.00    -0.276 OA
ATOM     19  C   LIG    1       24.269 -13.025   3.961  0.00  0.00    +0.109 C 
ENDBRANCH  14  15
ENDBRANCH  13  14
ENDBRANCH   9  13
TORSDOF 4
ENDMDL
MODEL 6
REMARK VINA RESULT:      -4.8      2.221      4.082
REMARK  Name = *****
REMARK                            x       y       z     vdW  Elec       q    Type
REMARK                         _______ _______ _______ _____ _____    ______ ____
ROOT
ATOM      1  C   LIG    1       21.921 -19.008   4.022  0.00  0.00    +0.121 A 
ATOM      2  C   LIG    1       23.245 -18.626   3.773  0.00  0.00    +0.054 A 
ATOM      3  C   LIG    1       24.344 -19.268   4.399  0.00  0.00    -0.011 A 
ATOM      4  C   LIG    1       24.046 -20.289   5.339  0.00  0.00    -0.017 A 
ATOM      5  C   LIG    1       25.067 -20.941   6.037  0.00  0.00    +0.008 A 
ATOM      6  C   LIG    1       26.398 -20.613   5.813  0.00  0.00    +0.001 A 
ATOM      7  C   LIG    1       26.719 -19.643   4.869  0.00  0.00    +0.004 A 
ATOM      8  C   LIG    1       22.722 -20.663   5.582  0.00  0.00    +0.012 A 
ATOM      9  C   LIG    1       25.716 -18.964   4.148  0.00  0.00    -0.038 A 
ATOM     10  C   LIG    1       21.672 -20.035   4.925  0.00  0.00    +0.046 A 
ENDROOT
BRANCH   1  12
ATOM     11  C   LIG    1       19.665 -18.954   3.330  0.00  0.00    +0.277 C 
ATOM     12  O   LIG    1       20.948 -18.330   3.335  0.00  0.00    -0.495 OA
ENDBRANCH   1  12
BRANCH   9  13
ATOM     13  C   LIG    1       26.155 -17.945   3.109  0.00  0.00    +0.054 C 
BRANCH  13  14
ATOM     14  C   LIG    1       25.659 -16.513   3.369  0.00  0.00    +0.109 C 
BRANCH  14  15
ATOM     15  N   LIG    1       26.686 -15.569   3.767  0.00  0.00    -0.315 N 
ATOM     16  H   LIG    1       27.147 -15.702   4.657  0.00  0.00    +0.149 HD
ATOM     17  C   LIG    1       27.023 -14.487   2.984  0.00  0.00    +0.210 C 
ATOM     18  O   LIG    1       26.457 -14.200   1.945  0.00  0.00    -0.276 OA
ATOM     19  C   LIG    1       28.156 -13.665   3.545  0.00  0.00    +0.109 C 
ENDBRANCH  14  15
ENDBRANCH  13  14
ENDBRANCH   9  13
TORSDOF 4
ENDMDL
MODEL 7
REMARK VINA RESULT:      -4.4      2.423      3.787
REMARK  Name = *****
REMARK                            x       y       z     vdW  Elec       q    Type
REMARK                         _______ _______ _______ _____ _____    ______ ____
ROOT
ATOM      1  C   LIG    1       24.077 -19.510   3.837  0.00  0.00    +0.121 A 
ATOM      2  C   LIG    1       24.785 -18.330   3.578  0.00  0.00    +0.054 A 
ATOM      3  C   LIG    1       24.261 -17.052   3.903  0.00  0.00    -0.011 A 
ATOM      4  C   LIG    1       22.956 -17.011   4.459  0.00  0.00    -0.017 A 
ATOM      5  C   LIG    1       22.344 -15.792   4.765  0.00  0.00    +0.008 A 
ATOM      6  C   LIG    1       23.009 -14.593   4.544  0.00  0.00    +0.001 A 
ATOM      7  C   LIG    1       24.305 -14.606   4.037  0.00  0.00    +0.004 A 
ATOM      8  C   LIG    1       22.257 -18.194   4.712  0.00  0.00    +0.012 A 
ATOM      9  C   LIG    1       24.951 -15.817   3.716  0.00  0.00    -0.038 A 
ATOM     10  C   LIG    1       22.815 -19.430   4.413  0.00  0.00    +0.046 A 
ENDROOT
BRANCH   1  12
ATOM     11  C   LIG    1       24.943 -21.572   4.593  0.00  0.00    +0.277 C 
ATOM     12  O   LIG    1       24.702 -20.684   3.503  0.00  0.00    -0.495 OA
ENDBRANCH   1  12
BRANCH   9  13
ATOM     13  C   LIG    1       26.379 -15.744   3.201  0.00  0.00    +0.054 C 
BRANCH  13  14
ATOM     14  C   LIG    1       26.730 -14.436   2.472  0.00  0.00    +0.109 C 
BRANCH  14  15
ATOM     15  N   LIG    1       27.842 -13.696   3.037  0.00  0.00    -0.315 N 
ATOM     16  H   LIG    1       28.709 -13.655   2.520  0.00  0.00    +0.149 HD
ATOM     17  C   LIG    1       27.757 -13.081   4.267  0.00  0.00    +0.210 C 
ATOM     18  O   LIG    1       26.785 -13.156   4.997  0.00  0.00    -0.276 OA
ATOM     19  C   LIG    1       28.997 -12.311   4.645  0.00  0.00    +0.109 C 
ENDBRANCH  14  15
ENDBRANCH  13  14
ENDBRANCH   9  13
TORSDOF 4
ENDMDL
