MODEL 1
REMARK VINA RESULT:      -8.2      0.000      0.000
REMARK  Name = *****
REMARK                            x       y       z     vdW  Elec       q    Type
REMARK                         _______ _______ _______ _____ _____    ______ ____
ROOT
ATOM      1  N   LIG    1       26.476 -22.227   6.834  0.00  0.00    -0.341 N 
ATOM      2  H   LIG    1       27.127 -22.437   6.080  0.00  0.00    +0.146 HD
ENDROOT
BRANCH   1   3
ATOM      3  C   LIG    1       25.296 -23.007   6.743  0.00  0.00    +0.038 A 
ATOM      4  C   LIG    1       25.321 -24.410   6.475  0.00  0.00    +0.021 A 
ATOM      5  C   LIG    1       24.073 -25.073   6.355  0.00  0.00    +0.074 A 
ATOM      6  C   LIG    1       24.020 -26.417   6.017  0.00  0.00    +0.048 A 
ATOM      7  C   LIG    1       25.177 -27.151   5.801  0.00  0.00    +0.043 A 
ATOM      8  C   LIG    1       26.420 -26.554   5.955  0.00  0.00    +0.021 A 
ATOM      9 CL   LIG    1       25.065 -28.804   5.337  0.00  0.00    -0.084 Cl
ATOM     10  N   LIG    1       22.894 -24.465   6.557  0.00  0.00    -0.255 NA
ATOM     11  C   LIG    1       22.908 -23.173   6.900  0.00  0.00    +0.113 A 
ATOM     12  C   LIG    1       26.493 -25.199   6.294  0.00  0.00    +0.013 A 
ATOM     13  C   LIG    1       24.055 -22.417   7.012  0.00  0.00    +0.043 A 
ENDBRANCH   1   3
BRANCH   1  14
ATOM     14  C   LIG    1       26.341 -20.762   7.015  0.00  0.00    +0.067 C 
ATOM     15  C   LIG    1       26.541 -20.424   8.494  0.00  0.00    +0.027 C 
BRANCH  14  16
ATOM     16  C   LIG    1       27.351 -20.037   6.100  0.00  0.00    +0.023 C 
BRANCH  16  17
ATOM     17  C   LIG    1       28.774 -20.603   6.182  0.00  0.00    +0.017 C 
BRANCH  17  18
ATOM     18  C   LIG    1       29.805 -19.560   6.663  0.00  0.00    +0.084 C 
BRANCH  18  19
ATOM     19  N   LIG    1       30.809 -20.020   7.654  0.00  0.00    -0.300 NA
BRANCH  19  21
ATOM     20  C   LIG    1       30.158 -18.051   9.160  0.00  0.00    +0.020 C 
ATOM     21  C   LIG    1       31.256 -18.892   8.505  0.00  0.00    +0.081 C 
ENDBRANCH  19  21
BRANCH  19  22
ATOM     22  C   LIG    1       30.236 -21.116   8.484  0.00  0.00    +0.112 C 
BRANCH  22  23
ATOM     23  C   LIG    1       31.192 -22.015   9.300  0.00  0.00    +0.171 C 
BRANCH  23  24
ATOM     24  O   LIG    1       32.258 -22.572   8.538  0.00  0.00    -0.394 OA
ATOM     25  H   LIG    1       32.065 -23.514   8.399  0.00  0.00    +0.209 HD
ENDBRANCH  23  24
ENDBRANCH  22  23
ENDBRANCH  19  22
ENDBRANCH  18  19
ENDBRANCH  17  18
ENDBRANCH  16  17
ENDBRANCH  14  16
ENDBRANCH   1  14
TORSDOF 10
ENDMDL
MODEL 2
REMARK VINA RESULT:      -8.2      1.241      1.817
REMARK  Name = *****
REMARK                            x       y       z     vdW  Elec       q    Type
REMARK                         _______ _______ _______ _____ _____    ______ ____
ROOT
ATOM      1  N   LIG    1       26.479 -22.254   6.838  0.00  0.00    -0.341 N 
ATOM      2  H   LIG    1       27.141 -22.477   6.098  0.00  0.00    +0.146 HD
ENDROOT
BRANCH   1   3
ATOM      3  C   LIG    1       25.297 -23.032   6.740  0.00  0.00    +0.038 A 
ATOM      4  C   LIG    1       25.320 -24.431   6.451  0.00  0.00    +0.021 A 
ATOM      5  C   LIG    1       24.071 -25.091   6.327  0.00  0.00    +0.074 A 
ATOM      6  C   LIG    1       24.016 -26.431   5.970  0.00  0.00    +0.048 A 
ATOM      7  C   LIG    1       25.172 -27.162   5.738  0.00  0.00    +0.043 A 
ATOM      8  C   LIG    1       26.416 -26.568   5.897  0.00  0.00    +0.021 A 
ATOM      9 CL   LIG    1       25.057 -28.808   5.252  0.00  0.00    -0.084 Cl
ATOM     10  N   LIG    1       22.894 -24.486   6.543  0.00  0.00    -0.255 NA
ATOM     11  C   LIG    1       22.909 -23.199   6.904  0.00  0.00    +0.113 A 
ATOM     12  C   LIG    1       26.491 -25.218   6.255  0.00  0.00    +0.013 A 
ATOM     13  C   LIG    1       24.057 -22.446   7.023  0.00  0.00    +0.043 A 
ENDBRANCH   1   3
BRANCH   1  14
ATOM     14  C   LIG    1       26.345 -20.786   6.994  0.00  0.00    +0.067 C 
ATOM     15  C   LIG    1       26.463 -20.432   8.479  0.00  0.00    +0.027 C 
BRANCH  14  16
ATOM     16  C   LIG    1       27.412 -20.080   6.130  0.00  0.00    +0.023 C 
BRANCH  16  17
ATOM     17  C   LIG    1       28.843 -20.555   6.407  0.00  0.00    +0.017 C 
BRANCH  17  18
ATOM     18  C   LIG    1       29.724 -19.459   7.043  0.00  0.00    +0.084 C 
BRANCH  18  19
ATOM     19  N   LIG    1       30.046 -19.612   8.484  0.00  0.00    -0.300 NA
BRANCH  19  21
ATOM     20  C   LIG    1       30.973 -21.895   9.193  0.00  0.00    +0.020 C 
ATOM     21  C   LIG    1       31.232 -20.483   8.661  0.00  0.00    +0.081 C 
ENDBRANCH  19  21
BRANCH  19  22
ATOM     22  C   LIG    1       30.273 -18.275   9.098  0.00  0.00    +0.112 C 
BRANCH  22  23
ATOM     23  C   LIG    1       31.718 -17.834   9.419  0.00  0.00    +0.171 C 
BRANCH  23  24
ATOM     24  O   LIG    1       32.346 -17.096   8.376  0.00  0.00    -0.394 OA
ATOM     25  H   LIG    1       33.193 -17.526   8.175  0.00  0.00    +0.209 HD
ENDBRANCH  23  24
ENDBRANCH  22  23
ENDBRANCH  19  22
ENDBRANCH  18  19
ENDBRANCH  17  18
ENDBRANCH  16  17
ENDBRANCH  14  16
ENDBRANCH   1  14
TORSDOF 10
ENDMDL
MODEL 3
REMARK VINA RESULT:      -7.9      2.955      4.046
REMARK  Name = *****
REMARK                            x       y       z     vdW  Elec       q    Type
REMARK                         _______ _______ _______ _____ _____    ______ ____
ROOT
ATOM      1  N   LIG    1       26.802 -21.799   6.198  0.00  0.00    -0.341 N 
ATOM      2  H   LIG    1       27.189 -22.015   5.282  0.00  0.00    +0.146 HD
ENDROOT
BRANCH   1   3
ATOM      3  C   LIG    1       25.399 -22.000   6.240  0.00  0.00    +0.038 A 
ATOM      4  C   LIG    1       24.480 -21.143   5.560  0.00  0.00    +0.021 A 
ATOM      5  C   LIG    1       23.097 -21.415   5.719  0.00  0.00    +0.074 A 
ATOM      6  C   LIG    1       22.146 -20.578   5.153  0.00  0.00    +0.048 A 
ATOM      7  C   LIG    1       22.517 -19.465   4.412  0.00  0.00    +0.043 A 
ATOM      8  C   LIG    1       23.858 -19.190   4.191  0.00  0.00    +0.021 A 
ATOM      9 CL   LIG    1       21.305 -18.427   3.768  0.00  0.00    -0.084 Cl
ATOM     10  N   LIG    1       22.627 -22.469   6.401  0.00  0.00    -0.255 NA
ATOM     11  C   LIG    1       23.516 -23.307   6.946  0.00  0.00    +0.113 A 
ATOM     12  C   LIG    1       24.832 -20.022   4.754  0.00  0.00    +0.013 A 
ATOM     13  C   LIG    1       24.881 -23.127   6.889  0.00  0.00    +0.043 A 
ENDBRANCH   1   3
BRANCH   1  14
ATOM     14  C   LIG    1       27.345 -20.515   6.703  0.00  0.00    +0.067 C 
ATOM     15  C   LIG    1       27.151 -20.457   8.221  0.00  0.00    +0.027 C 
BRANCH  14  16
ATOM     16  C   LIG    1       28.827 -20.387   6.291  0.00  0.00    +0.023 C 
BRANCH  16  17
ATOM     17  C   LIG    1       29.524 -19.153   6.874  0.00  0.00    +0.017 C 
BRANCH  17  18
ATOM     18  C   LIG    1       31.062 -19.290   6.895  0.00  0.00    +0.084 C 
BRANCH  18  19
ATOM     19  N   LIG    1       31.707 -19.385   8.228  0.00  0.00    -0.300 NA
BRANCH  19  21
ATOM     20  C   LIG    1       31.101 -17.703  10.065  0.00  0.00    +0.020 C 
ATOM     21  C   LIG    1       31.906 -18.035   8.807  0.00  0.00    +0.081 C 
ENDBRANCH  19  21
BRANCH  19  22
ATOM     22  C   LIG    1       30.881 -20.233   9.132  0.00  0.00    +0.112 C 
BRANCH  22  23
ATOM     23  C   LIG    1       31.002 -21.770   9.033  0.00  0.00    +0.171 C 
BRANCH  23  24
ATOM     24  O   LIG    1       32.301 -22.229   8.675  0.00  0.00    -0.394 OA
ATOM     25  H   LIG    1       32.898 -22.045   9.418  0.00  0.00    +0.209 HD
ENDBRANCH  23  24
ENDBRANCH  22  23
ENDBRANCH  19  22
ENDBRANCH  18  19
ENDBRANCH  17  18
ENDBRANCH  16  17
ENDBRANCH  14  16
ENDBRANCH   1  14
TORSDOF 10
ENDMDL
MODEL 4
REMARK VINA RESULT:      -7.6      3.268      4.532
REMARK  Name = *****
REMARK                            x       y       z     vdW  Elec       q    Type
REMARK                         _______ _______ _______ _____ _____    ______ ____
ROOT
ATOM      1  N   LIG    1       26.817 -21.765   6.191  0.00  0.00    -0.341 N 
ATOM      2  H   LIG    1       27.197 -21.960   5.268  0.00  0.00    +0.146 HD
ENDROOT
BRANCH   1   3
ATOM      3  C   LIG    1       25.415 -21.967   6.238  0.00  0.00    +0.038 A 
ATOM      4  C   LIG    1       24.493 -21.110   5.562  0.00  0.00    +0.021 A 
ATOM      5  C   LIG    1       23.110 -21.381   5.725  0.00  0.00    +0.074 A 
ATOM      6  C   LIG    1       22.158 -20.545   5.163  0.00  0.00    +0.048 A 
ATOM      7  C   LIG    1       22.525 -19.433   4.419  0.00  0.00    +0.043 A 
ATOM      8  C   LIG    1       23.866 -19.158   4.193  0.00  0.00    +0.021 A 
ATOM      9 CL   LIG    1       21.312 -18.396   3.778  0.00  0.00    -0.084 Cl
ATOM     10  N   LIG    1       22.643 -22.436   6.410  0.00  0.00    -0.255 NA
ATOM     11  C   LIG    1       23.533 -23.273   6.953  0.00  0.00    +0.113 A 
ATOM     12  C   LIG    1       24.842 -19.990   4.753  0.00  0.00    +0.013 A 
ATOM     13  C   LIG    1       24.898 -23.093   6.890  0.00  0.00    +0.043 A 
ENDBRANCH   1   3
BRANCH   1  14
ATOM     14  C   LIG    1       27.364 -20.495   6.724  0.00  0.00    +0.067 C 
ATOM     15  C   LIG    1       27.136 -20.451   8.237  0.00  0.00    +0.027 C 
BRANCH  14  16
ATOM     16  C   LIG    1       28.857 -20.382   6.347  0.00  0.00    +0.023 C 
BRANCH  16  17
ATOM     17  C   LIG    1       29.467 -19.008   6.650  0.00  0.00    +0.017 C 
BRANCH  17  18
ATOM     18  C   LIG    1       30.900 -19.102   7.215  0.00  0.00    +0.084 C 
BRANCH  18  19
ATOM     19  N   LIG    1       31.031 -19.458   8.650  0.00  0.00    -0.300 NA
BRANCH  19  21
ATOM     20  C   LIG    1       30.782 -21.942   9.231  0.00  0.00    +0.020 C 
ATOM     21  C   LIG    1       31.681 -20.781   8.801  0.00  0.00    +0.081 C 
ENDBRANCH  19  21
BRANCH  19  22
ATOM     22  C   LIG    1       31.800 -18.404   9.366  0.00  0.00    +0.112 C 
BRANCH  22  23
ATOM     23  C   LIG    1       31.426 -16.922   9.142  0.00  0.00    +0.171 C 
BRANCH  23  24
ATOM     24  O   LIG    1       32.534 -16.083   8.834  0.00  0.00    -0.394 OA
ATOM     25  H   LIG    1       33.057 -15.968   9.644  0.00  0.00    +0.209 HD
ENDBRANCH  23  24
ENDBRANCH  22  23
ENDBRANCH  19  22
ENDBRANCH  18  19
ENDBRANCH  17  18
ENDBRANCH  16  17
ENDBRANCH  14  16
ENDBRANCH   1  14
TORSDOF 10
ENDMDL
MODEL 5
REMARK VINA RESULT:      -7.3      3.622      4.183
REMARK  Name = *****
REMARK                            x       y       z     vdW  Elec       q    Type
REMARK                         _______ _______ _______ _____ _____    ______ ____
ROOT
ATOM      1  N   LIG    1       28.271 -20.261   5.334  0.00  0.00    -0.341 N 
ATOM      2  H   LIG    1       28.047 -20.647   4.419  0.00  0.00    +0.146 HD
ENDROOT
BRANCH   1   3
ATOM      3  C   LIG    1       27.184 -20.382   6.237  0.00  0.00    +0.038 A 
ATOM      4  C   LIG    1       25.837 -20.569   5.797  0.00  0.00    +0.021 A 
ATOM      5  C   LIG    1       24.828 -20.623   6.792  0.00  0.00    +0.074 A 
ATOM      6  C   LIG    1       23.492 -20.724   6.434  0.00  0.00    +0.048 A 
ATOM      7  C   LIG    1       23.106 -20.786   5.103  0.00  0.00    +0.043 A 
ATOM      8  C   LIG    1       24.063 -20.785   4.099  0.00  0.00    +0.021 A 
ATOM      9 CL   LIG    1       21.435 -20.862   4.702  0.00  0.00    -0.084 Cl
ATOM     10  N   LIG    1       25.089 -20.587   8.107  0.00  0.00    -0.255 NA
ATOM     11  C   LIG    1       26.368 -20.507   8.489  0.00  0.00    +0.113 A 
ATOM     12  C   LIG    1       25.416 -20.683   4.441  0.00  0.00    +0.013 A 
ATOM     13  C   LIG    1       27.429 -20.412   7.615  0.00  0.00    +0.043 A 
ENDBRANCH   1   3
BRANCH   1  14
ATOM     14  C   LIG    1       28.930 -18.941   5.198  0.00  0.00    +0.067 C 
ATOM     15  C   LIG    1       27.885 -17.904   4.781  0.00  0.00    +0.027 C 
BRANCH  14  16
ATOM     16  C   LIG    1       29.628 -18.577   6.526  0.00  0.00    +0.023 C 
BRANCH  16  17
ATOM     17  C   LIG    1       30.935 -19.342   6.765  0.00  0.00    +0.017 C 
BRANCH  17  18
ATOM     18  C   LIG    1       31.783 -18.734   7.903  0.00  0.00    +0.084 C 
BRANCH  18  19
ATOM     19  N   LIG    1       31.709 -19.405   9.224  0.00  0.00    -0.300 NA
BRANCH  19  21
ATOM     20  C   LIG    1       30.226 -17.448   9.961  0.00  0.00    +0.020 C 
ATOM     21  C   LIG    1       31.354 -18.430  10.283  0.00  0.00    +0.081 C 
ENDBRANCH  19  21
BRANCH  19  22
ATOM     22  C   LIG    1       30.719 -20.517   9.174  0.00  0.00    +0.112 C 
BRANCH  22  23
ATOM     23  C   LIG    1       31.208 -21.965   9.397  0.00  0.00    +0.171 C 
BRANCH  23  24
ATOM     24  O   LIG    1       32.302 -22.343   8.568  0.00  0.00    -0.394 OA
ATOM     25  H   LIG    1       32.333 -21.730   7.816  0.00  0.00    +0.209 HD
ENDBRANCH  23  24
ENDBRANCH  22  23
ENDBRANCH  19  22
ENDBRANCH  18  19
ENDBRANCH  17  18
ENDBRANCH  16  17
ENDBRANCH  14  16
ENDBRANCH   1  14
TORSDOF 10
ENDMDL
MODEL 6
REMARK VINA RESULT:      -7.3      4.553      8.719
REMARK  Name = *****
REMARK                            x       y       z     vdW  Elec       q    Type
REMARK                         _______ _______ _______ _____ _____    ______ ____
ROOT
ATOM      1  N   LIG    1       28.104 -19.978   7.733  0.00  0.00    -0.341 N 
ATOM      2  H   LIG    1       28.099 -19.697   6.755  0.00  0.00    +0.146 HD
ENDROOT
BRANCH   1   3
ATOM      3  C   LIG    1       29.423 -20.101   8.239  0.00  0.00    +0.038 A 
ATOM      4  C   LIG    1       30.167 -18.982   8.724  0.00  0.00    +0.021 A 
ATOM      5  C   LIG    1       31.497 -19.222   9.156  0.00  0.00    +0.074 A 
ATOM      6  C   LIG    1       32.304 -18.171   9.565  0.00  0.00    +0.048 A 
ATOM      7  C   LIG    1       31.835 -16.865   9.575  0.00  0.00    +0.043 A 
ATOM      8  C   LIG    1       30.527 -16.592   9.206  0.00  0.00    +0.021 A 
ATOM      9 CL   LIG    1       32.885 -15.586  10.044  0.00  0.00    -0.084 Cl
ATOM     10  N   LIG    1       32.047 -20.445   9.203  0.00  0.00    -0.255 NA
ATOM     11  C   LIG    1       31.292 -21.484   8.832  0.00  0.00    +0.113 A 
ATOM     12  C   LIG    1       29.697 -17.639   8.789  0.00  0.00    +0.013 A 
ATOM     13  C   LIG    1       30.002 -21.370   8.361  0.00  0.00    +0.043 A 
ENDBRANCH   1   3
BRANCH   1  14
ATOM     14  C   LIG    1       27.155 -21.093   7.961  0.00  0.00    +0.067 C 
ATOM     15  C   LIG    1       25.966 -20.575   8.774  0.00  0.00    +0.027 C 
BRANCH  14  16
ATOM     16  C   LIG    1       26.728 -21.689   6.602  0.00  0.00    +0.023 C 
BRANCH  16  17
ATOM     17  C   LIG    1       25.741 -20.809   5.826  0.00  0.00    +0.017 C 
BRANCH  17  18
ATOM     18  C   LIG    1       24.656 -21.630   5.097  0.00  0.00    +0.084 C 
BRANCH  18  19
ATOM     19  N   LIG    1       23.280 -21.560   5.650  0.00  0.00    -0.300 NA
BRANCH  19  21
ATOM     20  C   LIG    1       23.114 -23.894   6.695  0.00  0.00    +0.020 C 
ATOM     21  C   LIG    1       23.173 -22.377   6.882  0.00  0.00    +0.081 C 
ENDBRANCH  19  21
BRANCH  19  22
ATOM     22  C   LIG    1       22.914 -20.142   5.921  0.00  0.00    +0.112 C 
BRANCH  22  23
ATOM     23  C   LIG    1       22.366 -19.277   4.764  0.00  0.00    +0.171 C 
BRANCH  23  24
ATOM     24  O   LIG    1       23.370 -18.766   3.893  0.00  0.00    -0.394 OA
ATOM     25  H   LIG    1       23.048 -17.928   3.524  0.00  0.00    +0.209 HD
ENDBRANCH  23  24
ENDBRANCH  22  23
ENDBRANCH  19  22
ENDBRANCH  18  19
ENDBRANCH  17  18
ENDBRANCH  16  17
ENDBRANCH  14  16
ENDBRANCH   1  14
TORSDOF 10
ENDMDL
MODEL 7
REMARK VINA RESULT:      -7.2      3.916      7.437
REMARK  Name = *****
REMARK                            x       y       z     vdW  Elec       q    Type
REMARK                         _______ _______ _______ _____ _____    ______ ____
ROOT
ATOM      1  N   LIG    1       24.381 -21.324   7.522  0.00  0.00    -0.341 N 
ATOM      2  H   LIG    1       23.556 -20.769   7.741  0.00  0.00    +0.146 HD
ENDROOT
BRANCH   1   3
ATOM      3  C   LIG    1       25.156 -20.732   6.493  0.00  0.00    +0.038 A 
ATOM      4  C   LIG    1       26.560 -20.502   6.626  0.00  0.00    +0.021 A 
ATOM      5  C   LIG    1       27.219 -19.855   5.549  0.00  0.00    +0.074 A 
ATOM      6  C   LIG    1       28.564 -19.529   5.641  0.00  0.00    +0.048 A 
ATOM      7  C   LIG    1       29.303 -19.835   6.775  0.00  0.00    +0.043 A 
ATOM      8  C   LIG    1       28.710 -20.511   7.831  0.00  0.00    +0.021 A 
ATOM      9 CL   LIG    1       30.956 -19.370   6.867  0.00  0.00    -0.084 Cl
ATOM     10  N   LIG    1       26.607 -19.528   4.401  0.00  0.00    -0.255 NA
ATOM     11  C   LIG    1       25.314 -19.842   4.271  0.00  0.00    +0.113 A 
ATOM     12  C   LIG    1       27.354 -20.847   7.757  0.00  0.00    +0.013 A 
ATOM     13  C   LIG    1       24.562 -20.438   5.260  0.00  0.00    +0.043 A 
ENDBRANCH   1   3
BRANCH   1  14
ATOM     14  C   LIG    1       24.028 -22.758   7.401  0.00  0.00    +0.067 C 
ATOM     15  C   LIG    1       22.616 -22.876   6.822  0.00  0.00    +0.027 C 
BRANCH  14  16
ATOM     16  C   LIG    1       25.085 -23.476   6.535  0.00  0.00    +0.023 C 
BRANCH  16  17
ATOM     17  C   LIG    1       25.203 -24.977   6.824  0.00  0.00    +0.017 C 
BRANCH  17  18
ATOM     18  C   LIG    1       24.142 -25.813   6.076  0.00  0.00    +0.084 C 
BRANCH  18  19
ATOM     19  N   LIG    1       24.613 -27.061   5.424  0.00  0.00    -0.300 NA
BRANCH  19  21
ATOM     20  C   LIG    1       27.109 -27.362   4.925  0.00  0.00    +0.020 C 
ATOM     21  C   LIG    1       25.753 -26.778   4.521  0.00  0.00    +0.081 C 
ENDBRANCH  19  21
BRANCH  19  22
ATOM     22  C   LIG    1       24.992 -28.062   6.460  0.00  0.00    +0.112 C 
BRANCH  22  23
ATOM     23  C   LIG    1       24.203 -29.388   6.543  0.00  0.00    +0.171 C 
BRANCH  23  24
ATOM     24  O   LIG    1       23.243 -29.559   5.506  0.00  0.00    -0.394 OA
ATOM     25  H   LIG    1       23.717 -29.571   4.658  0.00  0.00    +0.209 HD
ENDBRANCH  23  24
ENDBRANCH  22  23
ENDBRANCH  19  22
ENDBRANCH  18  19
ENDBRANCH  17  18
ENDBRANCH  16  17
ENDBRANCH  14  16
ENDBRANCH   1  14
TORSDOF 10
ENDMDL
MODEL 8
REMARK VINA RESULT:      -7.1      4.103      8.710
REMARK  Name = *****
REMARK                            x       y       z     vdW  Elec       q    Type
REMARK                         _______ _______ _______ _____ _____    ______ ____
ROOT
ATOM      1  N   LIG    1       28.161 -20.270   7.643  0.00  0.00    -0.341 N 
ATOM      2  H   LIG    1       28.179 -20.270   6.626  0.00  0.00    +0.146 HD
ENDROOT
BRANCH   1   3
ATOM      3  C   LIG    1       29.466 -20.326   8.193  0.00  0.00    +0.038 A 
ATOM      4  C   LIG    1       30.168 -19.160   8.627  0.00  0.00    +0.021 A 
ATOM      5  C   LIG    1       31.489 -19.337   9.112  0.00  0.00    +0.074 A 
ATOM      6  C   LIG    1       32.257 -18.241   9.476  0.00  0.00    +0.048 A 
ATOM      7  C   LIG    1       31.757 -16.950   9.390  0.00  0.00    +0.043 A 
ATOM      8  C   LIG    1       30.453 -16.735   8.967  0.00  0.00    +0.021 A 
ATOM      9 CL   LIG    1       32.760 -15.616   9.807  0.00  0.00    -0.084 Cl
ATOM     10  N   LIG    1       32.068 -20.539   9.251  0.00  0.00    -0.255 NA
ATOM     11  C   LIG    1       31.350 -21.619   8.925  0.00  0.00    +0.113 A 
ATOM     12  C   LIG    1       29.663 -17.828   8.595  0.00  0.00    +0.013 A 
ATOM     13  C   LIG    1       30.072 -21.569   8.411  0.00  0.00    +0.043 A 
ENDBRANCH   1   3
BRANCH   1  14
ATOM     14  C   LIG    1       27.142 -21.220   8.148  0.00  0.00    +0.067 C 
ATOM     15  C   LIG    1       25.937 -20.430   8.664  0.00  0.00    +0.027 C 
BRANCH  14  16
ATOM     16  C   LIG    1       26.764 -22.210   7.026  0.00  0.00    +0.023 C 
BRANCH  16  17
ATOM     17  C   LIG    1       25.994 -23.440   7.522  0.00  0.00    +0.017 C 
BRANCH  17  18
ATOM     18  C   LIG    1       25.900 -24.555   6.459  0.00  0.00    +0.084 C 
BRANCH  18  19
ATOM     19  N   LIG    1       24.596 -24.712   5.768  0.00  0.00    -0.300 NA
BRANCH  19  21
ATOM     20  C   LIG    1       25.744 -26.767   4.753  0.00  0.00    +0.020 C 
ATOM     21  C   LIG    1       24.458 -26.084   5.223  0.00  0.00    +0.081 C 
ENDBRANCH  19  21
BRANCH  19  22
ATOM     22  C   LIG    1       23.484 -24.400   6.707  0.00  0.00    +0.112 C 
BRANCH  22  23
ATOM     23  C   LIG    1       22.720 -23.067   6.546  0.00  0.00    +0.171 C 
BRANCH  23  24
ATOM     24  O   LIG    1       23.227 -22.228   5.514  0.00  0.00    -0.394 OA
ATOM     25  H   LIG    1       23.992 -22.673   5.116  0.00  0.00    +0.209 HD
ENDBRANCH  23  24
ENDBRANCH  22  23
ENDBRANCH  19  22
ENDBRANCH  18  19
ENDBRANCH  17  18
ENDBRANCH  16  17
ENDBRANCH  14  16
ENDBRANCH   1  14
TORSDOF 10
ENDMDL
MODEL 9
REMARK VINA RESULT:      -7.0      3.077      4.622
REMARK  Name = *****
REMARK                            x       y       z     vdW  Elec       q    Type
REMARK                         _______ _______ _______ _____ _____    ______ ____
ROOT
ATOM      1  N   LIG    1       26.494 -22.426   7.325  0.00  0.00    -0.341 N 
ATOM      2  H   LIG    1       27.281 -22.779   6.784  0.00  0.00    +0.146 HD
ENDROOT
BRANCH   1   3
ATOM      3  C   LIG    1       25.299 -23.133   7.039  0.00  0.00    +0.038 A 
ATOM      4  C   LIG    1       25.295 -24.506   6.642  0.00  0.00    +0.021 A 
ATOM      5  C   LIG    1       24.040 -25.091   6.331  0.00  0.00    +0.074 A 
ATOM      6  C   LIG    1       23.969 -26.395   5.863  0.00  0.00    +0.048 A 
ATOM      7  C   LIG    1       25.112 -27.164   5.698  0.00  0.00    +0.043 A 
ATOM      8  C   LIG    1       26.354 -26.648   6.036  0.00  0.00    +0.021 A 
ATOM      9 CL   LIG    1       24.982 -28.760   5.070  0.00  0.00    -0.084 Cl
ATOM     10  N   LIG    1       22.873 -24.445   6.468  0.00  0.00    -0.255 NA
ATOM     11  C   LIG    1       22.903 -23.192   6.933  0.00  0.00    +0.113 A 
ATOM     12  C   LIG    1       26.447 -25.334   6.508  0.00  0.00    +0.013 A 
ATOM     13  C   LIG    1       24.061 -22.509   7.234  0.00  0.00    +0.043 A 
ENDBRANCH   1   3
BRANCH   1  14
ATOM     14  C   LIG    1       26.460 -20.945   7.295  0.00  0.00    +0.067 C 
ATOM     15  C   LIG    1       26.592 -20.416   8.725  0.00  0.00    +0.027 C 
BRANCH  14  16
ATOM     16  C   LIG    1       27.579 -20.426   6.366  0.00  0.00    +0.023 C 
BRANCH  16  17
ATOM     17  C   LIG    1       27.058 -19.671   5.137  0.00  0.00    +0.017 C 
BRANCH  17  18
ATOM     18  C   LIG    1       25.628 -20.095   4.738  0.00  0.00    +0.084 C 
BRANCH  18  19
ATOM     19  N   LIG    1       25.023 -19.395   3.577  0.00  0.00    -0.300 NA
BRANCH  19  21
ATOM     20  C   LIG    1       22.867 -19.763   4.914  0.00  0.00    +0.020 C 
ATOM     21  C   LIG    1       23.657 -18.923   3.909  0.00  0.00    +0.081 C 
ENDBRANCH  19  21
BRANCH  19  22
ATOM     22  C   LIG    1       25.890 -18.258   3.162  0.00  0.00    +0.112 C 
BRANCH  22  23
ATOM     23  C   LIG    1       25.404 -16.813   3.414  0.00  0.00    +0.171 C 
BRANCH  23  24
ATOM     24  O   LIG    1       26.370 -15.813   3.110  0.00  0.00    -0.394 OA
ATOM     25  H   LIG    1       25.942 -15.145   2.550  0.00  0.00    +0.209 HD
ENDBRANCH  23  24
ENDBRANCH  22  23
ENDBRANCH  19  22
ENDBRANCH  18  19
ENDBRANCH  17  18
ENDBRANCH  16  17
ENDBRANCH  14  16
ENDBRANCH   1  14
TORSDOF 10
ENDMDL
