MODEL 1
REMARK VINA RESULT:      -4.5      0.000      0.000
REMARK  Name = *****
REMARK                            x       y       z     vdW  Elec       q    Type
REMARK                         _______ _______ _______ _____ _____    ______ ____
ROOT
ATOM      1  C   LIG    1       25.654 -14.976   3.584  0.00  0.00    +0.123 C 
ATOM      2  C   LIG    1       24.230 -14.702   4.044  0.00  0.00    +0.235 C 
ATOM      3  O   LIG    1       23.471 -15.578   4.457  0.00  0.00    -0.274 OA
ATOM      4  N   LIG    1       23.822 -13.401   4.038  0.00  0.00    -0.239 N 
ATOM      5  H   LIG    1       22.865 -13.248   4.327  0.00  0.00    +0.159 HD
ATOM      6  C   LIG    1       24.335 -12.443   3.224  0.00  0.00    +0.312 C 
ATOM      7  O   LIG    1       23.689 -11.448   2.920  0.00  0.00    -0.252 OA
ATOM      8  N   LIG    1       25.561 -12.684   2.689  0.00  0.00    -0.239 N 
ATOM      9  H   LIG    1       25.887 -11.998   2.023  0.00  0.00    +0.159 HD
ATOM     10  C   LIG    1       26.144 -13.916   2.603  0.00  0.00    +0.235 C 
ATOM     11  O   LIG    1       27.068 -14.099   1.812  0.00  0.00    -0.274 OA
ENDROOT
BRANCH   1  13
ATOM     12  C   LIG    1       26.763 -13.450   5.399  0.00  0.00    +0.005 C 
ATOM     13  C   LIG    1       26.602 -14.849   4.814  0.00  0.00    +0.022 C 
ENDBRANCH   1  13
BRANCH   1  14
ATOM     14  C   LIG    1       25.751 -16.379   2.927  0.00  0.00    +0.026 C 
BRANCH  14  15
ATOM     15  C   LIG    1       26.462 -17.431   3.806  0.00  0.00    +0.004 C 
BRANCH  15  16
ATOM     16  C   LIG    1       25.856 -18.846   3.703  0.00  0.00    -0.017 C 
ATOM     17  C   LIG    1       24.329 -18.832   3.767  0.00  0.00    +0.007 C 
ATOM     18  C   LIG    1       26.407 -19.734   4.824  0.00  0.00    +0.007 C 
ENDBRANCH  15  16
ENDBRANCH  14  15
ENDBRANCH   1  14
TORSDOF 4
ENDMDL
MODEL 2
REMARK VINA RESULT:      -4.2      4.742      6.757
REMARK  Name = *****
REMARK                            x       y       z     vdW  Elec       q    Type
REMARK                         _______ _______ _______ _____ _____    ______ ____
ROOT
ATOM      1  C   LIG    1       24.431 -20.335   4.973  0.00  0.00    +0.123 C 
ATOM      2  C   LIG    1       25.039 -21.073   6.157  0.00  0.00    +0.235 C 
ATOM      3  O   LIG    1       24.370 -21.571   7.061  0.00  0.00    -0.274 OA
ATOM      4  N   LIG    1       26.394 -21.219   6.159  0.00  0.00    -0.239 N 
ATOM      5  H   LIG    1       26.776 -21.694   6.967  0.00  0.00    +0.159 HD
ATOM      6  C   LIG    1       27.255 -20.380   5.528  0.00  0.00    +0.312 C 
ATOM      7  O   LIG    1       28.418 -20.262   5.893  0.00  0.00    -0.252 OA
ATOM      8  N   LIG    1       26.742 -19.609   4.534  0.00  0.00    -0.239 N 
ATOM      9  H   LIG    1       27.379 -18.933   4.135  0.00  0.00    +0.159 HD
ATOM     10  C   LIG    1       25.414 -19.343   4.362  0.00  0.00    +0.235 C 
ATOM     11  O   LIG    1       25.069 -18.381   3.676  0.00  0.00    -0.274 OA
ENDROOT
BRANCH   1  13
ATOM     12  C   LIG    1       24.206 -20.835   2.413  0.00  0.00    +0.005 C 
ATOM     13  C   LIG    1       24.153 -21.368   3.841  0.00  0.00    +0.022 C 
ENDBRANCH   1  13
BRANCH   1  14
ATOM     14  C   LIG    1       23.139 -19.592   5.403  0.00  0.00    +0.026 C 
BRANCH  14  15
ATOM     15  C   LIG    1       21.969 -19.748   4.407  0.00  0.00    +0.004 C 
BRANCH  15  16
ATOM     16  C   LIG    1       21.595 -18.445   3.671  0.00  0.00    -0.017 C 
ATOM     17  C   LIG    1       21.947 -17.197   4.480  0.00  0.00    +0.007 C 
ATOM     18  C   LIG    1       20.097 -18.439   3.346  0.00  0.00    +0.007 C 
ENDBRANCH  15  16
ENDBRANCH  14  15
ENDBRANCH   1  14
TORSDOF 4
ENDMDL
MODEL 3
REMARK VINA RESULT:      -3.9      1.842      2.136
REMARK  Name = *****
REMARK                            x       y       z     vdW  Elec       q    Type
REMARK                         _______ _______ _______ _____ _____    ______ ____
ROOT
ATOM      1  C   LIG    1       26.461 -13.783   3.698  0.00  0.00    +0.123 C 
ATOM      2  C   LIG    1       26.305 -13.445   5.173  0.00  0.00    +0.235 C 
ATOM      3  O   LIG    1       26.936 -14.005   6.068  0.00  0.00    -0.274 OA
ATOM      4  N   LIG    1       25.452 -12.427   5.482  0.00  0.00    -0.239 N 
ATOM      5  H   LIG    1       25.348 -12.236   6.470  0.00  0.00    +0.159 HD
ATOM      6  C   LIG    1       24.398 -12.051   4.713  0.00  0.00    +0.312 C 
ATOM      7  O   LIG    1       23.428 -11.477   5.191  0.00  0.00    -0.252 OA
ATOM      8  N   LIG    1       24.429 -12.425   3.406  0.00  0.00    -0.239 N 
ATOM      9  H   LIG    1       23.598 -12.209   2.873  0.00  0.00    +0.159 HD
ATOM     10  C   LIG    1       25.213 -13.421   2.900  0.00  0.00    +0.235 C 
ATOM     11  O   LIG    1       24.934 -13.924   1.812  0.00  0.00    -0.274 OA
ENDROOT
BRANCH   1  13
ATOM     12  C   LIG    1       28.953 -12.984   3.775  0.00  0.00    +0.005 C 
ATOM     13  C   LIG    1       27.588 -12.884   3.105  0.00  0.00    +0.022 C 
ENDBRANCH   1  13
BRANCH   1  14
ATOM     14  C   LIG    1       26.777 -15.292   3.519  0.00  0.00    +0.026 C 
BRANCH  14  15
ATOM     15  C   LIG    1       25.530 -16.202   3.592  0.00  0.00    +0.004 C 
BRANCH  15  16
ATOM     16  C   LIG    1       25.816 -17.681   3.260  0.00  0.00    -0.017 C 
ATOM     17  C   LIG    1       24.638 -18.593   3.602  0.00  0.00    +0.007 C 
ATOM     18  C   LIG    1       27.065 -18.153   4.012  0.00  0.00    +0.007 C 
ENDBRANCH  15  16
ENDBRANCH  14  15
ENDBRANCH   1  14
TORSDOF 4
ENDMDL
MODEL 4
REMARK VINA RESULT:      -3.6      2.510      3.784
REMARK  Name = *****
REMARK                            x       y       z     vdW  Elec       q    Type
REMARK                         _______ _______ _______ _____ _____    ______ ____
ROOT
ATOM      1  C   LIG    1       25.312 -14.096   3.824  0.00  0.00    +0.123 C 
ATOM      2  C   LIG    1       26.384 -15.040   3.301  0.00  0.00    +0.235 C 
ATOM      3  O   LIG    1       26.170 -16.217   3.013  0.00  0.00    -0.274 OA
ATOM      4  N   LIG    1       27.624 -14.510   3.101  0.00  0.00    -0.239 N 
ATOM      5  H   LIG    1       28.325 -15.163   2.774  0.00  0.00    +0.159 HD
ATOM      6  C   LIG    1       28.112 -13.432   3.767  0.00  0.00    +0.312 C 
ATOM      7  O   LIG    1       29.316 -13.255   3.903  0.00  0.00    -0.252 OA
ATOM      8  N   LIG    1       27.202 -12.612   4.355  0.00  0.00    -0.239 N 
ATOM      9  H   LIG    1       27.589 -11.864   4.914  0.00  0.00    +0.159 HD
ATOM     10  C   LIG    1       25.912 -12.956   4.639  0.00  0.00    +0.235 C 
ATOM     11  O   LIG    1       25.275 -12.304   5.466  0.00  0.00    -0.274 OA
ENDROOT
BRANCH   1  13
ATOM     12  C   LIG    1       23.978 -12.051   2.879  0.00  0.00    +0.005 C 
ATOM     13  C   LIG    1       24.633 -13.401   2.606  0.00  0.00    +0.022 C 
ENDBRANCH   1  13
BRANCH   1  14
ATOM     14  C   LIG    1       24.283 -14.871   4.689  0.00  0.00    +0.026 C 
BRANCH  14  15
ATOM     15  C   LIG    1       23.063 -15.387   3.895  0.00  0.00    +0.004 C 
BRANCH  15  16
ATOM     16  C   LIG    1       22.043 -16.167   4.750  0.00  0.00    -0.017 C 
ATOM     17  C   LIG    1       22.022 -15.698   6.205  0.00  0.00    +0.007 C 
ATOM     18  C   LIG    1       22.357 -17.666   4.700  0.00  0.00    +0.007 C 
ENDBRANCH  15  16
ENDBRANCH  14  15
ENDBRANCH   1  14
TORSDOF 4
ENDMDL
MODEL 5
REMARK VINA RESULT:      -3.5      2.054      3.439
REMARK  Name = *****
REMARK                            x       y       z     vdW  Elec       q    Type
REMARK                         _______ _______ _______ _____ _____    ______ ____
ROOT
ATOM      1  C   LIG    1       24.954 -14.375   3.804  0.00  0.00    +0.123 C 
ATOM      2  C   LIG    1       26.113 -15.241   3.334  0.00  0.00    +0.235 C 
ATOM      3  O   LIG    1       26.011 -16.445   3.103  0.00  0.00    -0.274 OA
ATOM      4  N   LIG    1       27.302 -14.609   3.115  0.00  0.00    -0.239 N 
ATOM      5  H   LIG    1       28.062 -15.209   2.824  0.00  0.00    +0.159 HD
ATOM      6  C   LIG    1       27.682 -13.460   3.730  0.00  0.00    +0.312 C 
ATOM      7  O   LIG    1       28.863 -13.166   3.864  0.00  0.00    -0.252 OA
ATOM      8  N   LIG    1       26.695 -12.699   4.271  0.00  0.00    -0.239 N 
ATOM      9  H   LIG    1       27.006 -11.893   4.796  0.00  0.00    +0.159 HD
ATOM     10  C   LIG    1       25.439 -13.147   4.565  0.00  0.00    +0.235 C 
ATOM     11  O   LIG    1       24.737 -12.517   5.355  0.00  0.00    -0.274 OA
ENDROOT
BRANCH   1  13
ATOM     12  C   LIG    1       24.609 -12.389   2.134  0.00  0.00    +0.005 C 
ATOM     13  C   LIG    1       24.227 -13.805   2.549  0.00  0.00    +0.022 C 
ENDBRANCH   1  13
BRANCH   1  14
ATOM     14  C   LIG    1       23.992 -15.199   4.700  0.00  0.00    +0.026 C 
BRANCH  14  15
ATOM     15  C   LIG    1       23.002 -16.080   3.907  0.00  0.00    +0.004 C 
BRANCH  15  16
ATOM     16  C   LIG    1       22.904 -17.531   4.423  0.00  0.00    -0.017 C 
ATOM     17  C   LIG    1       23.937 -18.452   3.773  0.00  0.00    +0.007 C 
ATOM     18  C   LIG    1       21.496 -18.082   4.170  0.00  0.00    +0.007 C 
ENDBRANCH  15  16
ENDBRANCH  14  15
ENDBRANCH   1  14
TORSDOF 4
ENDMDL
MODEL 6
REMARK VINA RESULT:      -3.5      1.870      3.243
REMARK  Name = *****
REMARK                            x       y       z     vdW  Elec       q    Type
REMARK                         _______ _______ _______ _____ _____    ______ ____
ROOT
ATOM      1  C   LIG    1       25.591 -13.974   3.799  0.00  0.00    +0.123 C 
ATOM      2  C   LIG    1       26.798 -13.835   2.885  0.00  0.00    +0.235 C 
ATOM      3  O   LIG    1       26.908 -14.427   1.812  0.00  0.00    -0.274 OA
ATOM      4  N   LIG    1       27.767 -12.959   3.276  0.00  0.00    -0.239 N 
ATOM      5  H   LIG    1       28.570 -12.900   2.663  0.00  0.00    +0.159 HD
ATOM      6  C   LIG    1       28.006 -12.609   4.567  0.00  0.00    +0.312 C 
ATOM      7  O   LIG    1       29.104 -12.204   4.927  0.00  0.00    -0.252 OA
ATOM      8  N   LIG    1       26.999 -12.819   5.455  0.00  0.00    -0.239 N 
ATOM      9  H   LIG    1       27.226 -12.630   6.421  0.00  0.00    +0.159 HD
ATOM     10  C   LIG    1       25.941 -13.656   5.248  0.00  0.00    +0.235 C 
ATOM     11  O   LIG    1       25.280 -14.051   6.209  0.00  0.00    -0.274 OA
ENDROOT
BRANCH   1  13
ATOM     12  C   LIG    1       24.690 -12.299   2.001  0.00  0.00    +0.005 C 
ATOM     13  C   LIG    1       24.542 -12.895   3.396  0.00  0.00    +0.022 C 
ENDBRANCH   1  13
BRANCH   1  14
ATOM     14  C   LIG    1       25.004 -15.408   3.707  0.00  0.00    +0.026 C 
BRANCH  14  15
ATOM     15  C   LIG    1       26.074 -16.511   3.548  0.00  0.00    +0.004 C 
BRANCH  15  16
ATOM     16  C   LIG    1       25.492 -17.917   3.300  0.00  0.00    -0.017 C 
ATOM     17  C   LIG    1       24.026 -18.024   3.719  0.00  0.00    +0.007 C 
ATOM     18  C   LIG    1       26.318 -18.965   4.054  0.00  0.00    +0.007 C 
ENDBRANCH  15  16
ENDBRANCH  14  15
ENDBRANCH   1  14
TORSDOF 4
ENDMDL
MODEL 7
REMARK VINA RESULT:      -3.5      2.307      3.654
REMARK  Name = *****
REMARK                            x       y       z     vdW  Elec       q    Type
REMARK                         _______ _______ _______ _____ _____    ______ ____
ROOT
ATOM      1  C   LIG    1       25.729 -14.071   4.027  0.00  0.00    +0.123 C 
ATOM      2  C   LIG    1       26.661 -13.788   5.195  0.00  0.00    +0.235 C 
ATOM      3  O   LIG    1       26.313 -13.857   6.373  0.00  0.00    -0.274 OA
ATOM      4  N   LIG    1       27.958 -13.498   4.890  0.00  0.00    -0.239 N 
ATOM      5  H   LIG    1       28.553 -13.292   5.682  0.00  0.00    +0.159 HD
ATOM      6  C   LIG    1       28.364 -12.954   3.713  0.00  0.00    +0.312 C 
ATOM      7  O   LIG    1       29.403 -12.312   3.628  0.00  0.00    -0.252 OA
ATOM      8  N   LIG    1       27.517 -13.077   2.657  0.00  0.00    -0.239 N 
ATOM      9  H   LIG    1       27.799 -12.594   1.815  0.00  0.00    +0.159 HD
ATOM     10  C   LIG    1       26.185 -13.363   2.756  0.00  0.00    +0.235 C 
ATOM     11  O   LIG    1       25.437 -13.114   1.812  0.00  0.00    -0.274 OA
ENDROOT
BRANCH   1  13
ATOM     12  C   LIG    1       27.205 -16.210   3.713  0.00  0.00    +0.005 C 
ATOM     13  C   LIG    1       25.813 -15.590   3.688  0.00  0.00    +0.022 C 
ENDBRANCH   1  13
BRANCH   1  14
ATOM     14  C   LIG    1       24.280 -13.639   4.374  0.00  0.00    +0.026 C 
BRANCH  14  15
ATOM     15  C   LIG    1       23.206 -14.670   3.961  0.00  0.00    +0.004 C 
BRANCH  15  16
ATOM     16  C   LIG    1       22.913 -15.733   5.040  0.00  0.00    -0.017 C 
ATOM     17  C   LIG    1       22.321 -17.014   4.452  0.00  0.00    +0.007 C 
ATOM     18  C   LIG    1       21.954 -15.161   6.090  0.00  0.00    +0.007 C 
ENDBRANCH  15  16
ENDBRANCH  14  15
ENDBRANCH   1  14
TORSDOF 4
ENDMDL
MODEL 8
REMARK VINA RESULT:      -3.1      1.901      2.925
REMARK  Name = *****
REMARK                            x       y       z     vdW  Elec       q    Type
REMARK                         _______ _______ _______ _____ _____    ______ ____
ROOT
ATOM      1  C   LIG    1       26.151 -14.840   3.625  0.00  0.00    +0.123 C 
ATOM      2  C   LIG    1       26.244 -13.635   2.701  0.00  0.00    +0.235 C 
ATOM      3  O   LIG    1       25.428 -13.397   1.812  0.00  0.00    -0.274 OA
ATOM      4  N   LIG    1       27.267 -12.763   2.932  0.00  0.00    -0.239 N 
ATOM      5  H   LIG    1       27.321 -11.982   2.291  0.00  0.00    +0.159 HD
ATOM      6  C   LIG    1       28.442 -13.101   3.522  0.00  0.00    +0.312 C 
ATOM      7  O   LIG    1       29.467 -12.461   3.323  0.00  0.00    -0.252 OA
ATOM      8  N   LIG    1       28.448 -14.236   4.270  0.00  0.00    -0.239 N 
ATOM      9  H   LIG    1       29.350 -14.514   4.631  0.00  0.00    +0.159 HD
ATOM     10  C   LIG    1       27.514 -15.228   4.187  0.00  0.00    +0.235 C 
ATOM     11  O   LIG    1       27.773 -16.348   4.626  0.00  0.00    -0.274 OA
ENDROOT
BRANCH   1  13
ATOM     12  C   LIG    1       23.797 -14.355   4.663  0.00  0.00    +0.005 C 
ATOM     13  C   LIG    1       25.305 -14.440   4.871  0.00  0.00    +0.022 C 
ENDBRANCH   1  13
BRANCH   1  14
ATOM     14  C   LIG    1       25.532 -16.050   2.875  0.00  0.00    +0.026 C 
BRANCH  14  15
ATOM     15  C   LIG    1       26.065 -17.419   3.353  0.00  0.00    +0.004 C 
BRANCH  15  16
ATOM     16  C   LIG    1       25.004 -18.538   3.355  0.00  0.00    -0.017 C 
ATOM     17  C   LIG    1       23.650 -18.057   3.879  0.00  0.00    +0.007 C 
ATOM     18  C   LIG    1       25.491 -19.718   4.203  0.00  0.00    +0.007 C 
ENDBRANCH  15  16
ENDBRANCH  14  15
ENDBRANCH   1  14
TORSDOF 4
ENDMDL
MODEL 9
REMARK VINA RESULT:      -3.1      1.938      3.055
REMARK  Name = *****
REMARK                            x       y       z     vdW  Elec       q    Type
REMARK                         _______ _______ _______ _____ _____    ______ ____
ROOT
ATOM      1  C   LIG    1       25.529 -14.870   3.570  0.00  0.00    +0.123 C 
ATOM      2  C   LIG    1       27.000 -15.234   3.703  0.00  0.00    +0.235 C 
ATOM      3  O   LIG    1       27.461 -16.325   3.372  0.00  0.00    -0.274 OA
ATOM      4  N   LIG    1       27.835 -14.260   4.166  0.00  0.00    -0.239 N 
ATOM      5  H   LIG    1       28.804 -14.533   4.265  0.00  0.00    +0.159 HD
ATOM      6  C   LIG    1       27.444 -13.233   4.965  0.00  0.00    +0.312 C 
ATOM      7  O   LIG    1       28.234 -12.660   5.703  0.00  0.00    -0.252 OA
ATOM      8  N   LIG    1       26.118 -12.935   4.975  0.00  0.00    -0.239 N 
ATOM      9  H   LIG    1       25.837 -12.226   5.637  0.00  0.00    +0.159 HD
ATOM     10  C   LIG    1       25.128 -13.776   4.553  0.00  0.00    +0.235 C 
ATOM     11  O   LIG    1       23.967 -13.580   4.913  0.00  0.00    -0.274 OA
ENDROOT
BRANCH   1  13
ATOM     12  C   LIG    1       24.858 -12.785   2.137  0.00  0.00    +0.005 C 
ATOM     13  C   LIG    1       25.303 -14.243   2.162  0.00  0.00    +0.022 C 
ENDBRANCH   1  13
BRANCH   1  14
ATOM     14  C   LIG    1       24.640 -16.122   3.791  0.00  0.00    +0.026 C 
BRANCH  14  15
ATOM     15  C   LIG    1       25.304 -17.445   3.348  0.00  0.00    +0.004 C 
BRANCH  15  16
ATOM     16  C   LIG    1       24.388 -18.679   3.478  0.00  0.00    -0.017 C 
ATOM     17  C   LIG    1       23.082 -18.363   4.206  0.00  0.00    +0.007 C 
ATOM     18  C   LIG    1       25.127 -19.802   4.215  0.00  0.00    +0.007 C 
ENDBRANCH  15  16
ENDBRANCH  14  15
ENDBRANCH   1  14
TORSDOF 4
ENDMDL
