MODEL 1
REMARK VINA RESULT:      -7.3      0.000      0.000
REMARK  Name = *****
REMARK                            x       y       z     vdW  Elec       q    Type
REMARK                         _______ _______ _______ _____ _____    ______ ____
ROOT
ATOM      1  C   LIG    1       24.836 -30.508   9.279  0.00  0.00    +0.031 C 
ATOM      2  C   LIG    1       25.573 -29.559  10.112  0.00  0.00    +0.050 C 
ATOM      3  N   LIG    1       25.129 -28.942  11.291  0.00  0.00    -0.354 NA
ATOM      4  H   LIG    1       24.204 -29.058  11.690  0.00  0.00    +0.166 HD
ATOM      5  C   LIG    1       26.141 -28.147  11.874  0.00  0.00    +0.049 C 
ATOM      6  C   LIG    1       27.211 -28.246  10.995  0.00  0.00    +0.028 C 
ATOM      7  C   LIG    1       26.026 -27.404  13.158  0.00  0.00    +0.027 C 
ATOM      8  C   LIG    1       24.805 -27.211  13.752  0.00  0.00    +0.052 C 
ATOM      9  C   LIG    1       24.521 -26.505  15.075  0.00  0.00    +0.062 C 
ATOM     10  C   LIG    1       23.163 -26.997  15.500  0.00  0.00    +0.062 C 
ATOM     11  C   LIG    1       22.740 -27.656  14.238  0.00  0.00    +0.052 C 
ATOM     12  C   LIG    1       21.413 -28.334  14.210  0.00  0.00    +0.027 C 
ATOM     13  C   LIG    1       21.520 -29.672  14.267  0.00  0.00    +0.049 C 
ATOM     14  N   LIG    1       20.612 -30.630  13.816  0.00  0.00    -0.354 N 
ATOM     15  H   LIG    1       19.857 -30.246  13.251  0.00  0.00    +0.166 HD
ATOM     16  C   LIG    1       21.390 -31.595  13.178  0.00  0.00    +0.050 C 
ATOM     17  C   LIG    1       22.699 -31.541  13.799  0.00  0.00    +0.028 C 
ATOM     18  C   LIG    1       21.141 -32.154  11.975  0.00  0.00    +0.031 C 
ATOM     19  C   LIG    1       22.313 -32.091  11.038  0.00  0.00    +0.074 C 
ATOM     20  N   LIG    1       23.208 -31.141  10.972  0.00  0.00    -0.246 NA
ATOM     21  C   LIG    1       22.426 -33.144  10.014  0.00  0.00    +0.030 C 
ATOM     22  C   LIG    1       23.421 -32.626   9.289  0.00  0.00    +0.030 C 
ATOM     23  C   LIG    1       22.771 -30.398  14.489  0.00  0.00    +0.028 C 
ATOM     24  N   LIG    1       23.613 -27.723  13.274  0.00  0.00    -0.255 NA
ATOM     25  C   LIG    1       26.893 -29.156   9.965  0.00  0.00    +0.028 C 
ATOM     26  C   LIG    1       23.914 -31.357   9.815  0.00  0.00    +0.074 C 
ENDROOT
BRANCH   1  29
ATOM     27  C   LIG    1       24.899 -29.873   5.462  0.00  0.00    +0.117 A 
ATOM     28  C   LIG    1       24.576 -29.745   6.824  0.00  0.00    +0.054 A 
ATOM     29  C   LIG    1       25.117 -30.621   7.776  0.00  0.00    -0.010 A 
ATOM     30  C   LIG    1       25.964 -31.645   7.297  0.00  0.00    +0.009 A 
ATOM     31  C   LIG    1       26.267 -31.778   5.927  0.00  0.00    +0.004 A 
ATOM     32  C   LIG    1       25.740 -30.881   5.003  0.00  0.00    +0.045 A 
BRANCH  27  33
ATOM     33  O   LIG    1       24.361 -28.965   4.592  0.00  0.00    -0.507 OA
ATOM     34  H   LIG    1       25.047 -28.328   4.331  0.00  0.00    +0.292 HD
ENDBRANCH  27  33
ENDBRANCH   1  29
BRANCH   7  35
ATOM     35  C   LIG    1       27.287 -26.851  13.878  0.00  0.00    -0.011 C 
ATOM     36  C   LIG    1       27.548 -25.477  14.057  0.00  0.00    +0.054 C 
ATOM     37  C   LIG    1       28.627 -25.002  14.811  0.00  0.00    +0.117 C 
ATOM     38  C   LIG    1       29.587 -25.869  15.296  0.00  0.00    +0.045 C 
ATOM     39  C   LIG    1       29.422 -27.229  15.063  0.00  0.00    +0.004 C 
ATOM     40  C   LIG    1       28.268 -27.710  14.411  0.00  0.00    +0.009 C 
BRANCH  37  41
ATOM     41  O   LIG    1       28.687 -23.660  15.052  0.00  0.00    -0.507 OA
ATOM     42  H   LIG    1       28.398 -23.185  14.255  0.00  0.00    +0.292 HD
ENDBRANCH  37  41
ENDBRANCH   7  35
BRANCH  12  43
ATOM     43  C   LIG    1       20.220 -27.586  13.834  0.00  0.00    -0.011 C 
ATOM     44  C   LIG    1       18.990 -27.900  14.421  0.00  0.00    +0.054 C 
ATOM     45  C   LIG    1       17.858 -27.159  14.093  0.00  0.00    +0.117 C 
ATOM     46  C   LIG    1       17.927 -26.111  13.179  0.00  0.00    +0.045 C 
ATOM     47  C   LIG    1       19.149 -25.805  12.580  0.00  0.00    +0.004 C 
ATOM     48  C   LIG    1       20.293 -26.539  12.907  0.00  0.00    +0.009 C 
BRANCH  45  49
ATOM     49  O   LIG    1       16.684 -27.490  14.704  0.00  0.00    -0.507 OA
ATOM     50  H   LIG    1       16.869 -27.713  15.630  0.00  0.00    +0.292 HD
ENDBRANCH  45  49
ENDBRANCH  12  43
BRANCH  18  51
ATOM     51  C   LIG    1       19.765 -32.257  11.430  0.00  0.00    -0.010 A 
ATOM     52  C   LIG    1       19.257 -31.301  10.545  0.00  0.00    +0.054 A 
ATOM     53  C   LIG    1       17.955 -31.422  10.061  0.00  0.00    +0.117 A 
ATOM     54  C   LIG    1       17.138 -32.481  10.446  0.00  0.00    +0.045 A 
ATOM     55  C   LIG    1       17.634 -33.436  11.333  0.00  0.00    +0.004 A 
ATOM     56  C   LIG    1       18.942 -33.324  11.825  0.00  0.00    +0.009 A 
BRANCH  53  57
ATOM     57  O   LIG    1       17.509 -30.469   9.193  0.00  0.00    -0.507 OA
ATOM     58  H   LIG    1       17.053 -30.909   8.456  0.00  0.00    +0.292 HD
ENDBRANCH  53  57
ENDBRANCH  18  51
TORSDOF 8
ENDMDL
MODEL 2
REMARK VINA RESULT:      -6.2      2.104      2.859
REMARK  Name = *****
REMARK                            x       y       z     vdW  Elec       q    Type
REMARK                         _______ _______ _______ _____ _____    ______ ____
ROOT
ATOM      1  C   LIG    1       24.976 -29.508   8.267  0.00  0.00    +0.031 C 
ATOM      2  C   LIG    1       25.798 -29.121   9.413  0.00  0.00    +0.050 C 
ATOM      3  N   LIG    1       25.528 -29.358  10.769  0.00  0.00    -0.354 NA
ATOM      4  H   LIG    1       24.687 -29.804  11.121  0.00  0.00    +0.166 HD
ATOM      5  C   LIG    1       26.587 -28.917  11.595  0.00  0.00    +0.049 C 
ATOM      6  C   LIG    1       27.500 -28.351  10.715  0.00  0.00    +0.028 C 
ATOM      7  C   LIG    1       26.652 -29.069  13.073  0.00  0.00    +0.027 C 
ATOM      8  C   LIG    1       25.539 -29.416  13.795  0.00  0.00    +0.052 C 
ATOM      9  C   LIG    1       25.447 -29.642  15.301  0.00  0.00    +0.062 C 
ATOM     10  C   LIG    1       24.200 -30.464  15.500  0.00  0.00    +0.062 C 
ATOM     11  C   LIG    1       23.604 -30.328  14.146  0.00  0.00    +0.052 C 
ATOM     12  C   LIG    1       22.322 -31.035  13.870  0.00  0.00    +0.027 C 
ATOM     13  C   LIG    1       22.496 -32.135  13.118  0.00  0.00    +0.049 C 
ATOM     14  N   LIG    1       21.569 -32.770  12.291  0.00  0.00    -0.354 N 
ATOM     15  H   LIG    1       20.715 -32.236  12.145  0.00  0.00    +0.166 HD
ATOM     16  C   LIG    1       22.273 -33.081  11.128  0.00  0.00    +0.050 C 
ATOM     17  C   LIG    1       23.663 -33.220  11.516  0.00  0.00    +0.028 C 
ATOM     18  C   LIG    1       21.854 -32.875   9.862  0.00  0.00    +0.031 C 
ATOM     19  C   LIG    1       22.850 -32.131   9.021  0.00  0.00    +0.074 C 
ATOM     20  N   LIG    1       23.680 -31.207   9.429  0.00  0.00    -0.246 NA
ATOM     21  C   LIG    1       22.839 -32.378   7.569  0.00  0.00    +0.030 C 
ATOM     22  C   LIG    1       23.677 -31.412   7.184  0.00  0.00    +0.030 C 
ATOM     23  C   LIG    1       23.797 -32.684  12.733  0.00  0.00    +0.028 C 
ATOM     24  N   LIG    1       24.308 -29.713  13.239  0.00  0.00    -0.255 NA
ATOM     25  C   LIG    1       27.056 -28.536   9.389  0.00  0.00    +0.028 C 
ATOM     26  C   LIG    1       24.193 -30.623   8.298  0.00  0.00    +0.074 C 
ENDROOT
BRANCH   1  29
ATOM     27  C   LIG    1       24.583 -26.691   5.642  0.00  0.00    +0.117 A 
ATOM     28  C   LIG    1       24.490 -27.401   6.852  0.00  0.00    +0.054 A 
ATOM     29  C   LIG    1       25.008 -28.699   6.965  0.00  0.00    -0.010 A 
ATOM     30  C   LIG    1       25.589 -29.261   5.807  0.00  0.00    +0.009 A 
ATOM     31  C   LIG    1       25.660 -28.550   4.591  0.00  0.00    +0.004 A 
ATOM     32  C   LIG    1       25.164 -27.252   4.509  0.00  0.00    +0.045 A 
BRANCH  27  33
ATOM     33  O   LIG    1       24.086 -25.417   5.612  0.00  0.00    -0.507 OA
ATOM     34  H   LIG    1       24.645 -24.844   6.162  0.00  0.00    +0.292 HD
ENDBRANCH  27  33
ENDBRANCH   1  29
BRANCH   7  35
ATOM     35  C   LIG    1       27.989 -28.869  13.839  0.00  0.00    -0.011 C 
ATOM     36  C   LIG    1       29.100 -29.728  13.713  0.00  0.00    +0.054 C 
ATOM     37  C   LIG    1       30.334 -29.464  14.318  0.00  0.00    +0.117 C 
ATOM     38  C   LIG    1       30.479 -28.413  15.202  0.00  0.00    +0.045 C 
ATOM     39  C   LIG    1       29.382 -27.591  15.431  0.00  0.00    +0.004 C 
ATOM     40  C   LIG    1       28.178 -27.788  14.723  0.00  0.00    +0.009 C 
BRANCH  37  41
ATOM     41  O   LIG    1       31.383 -30.276  13.995  0.00  0.00    -0.507 OA
ATOM     42  H   LIG    1       31.187 -31.177  14.302  0.00  0.00    +0.292 HD
ENDBRANCH  37  41
ENDBRANCH   7  35
BRANCH  12  43
ATOM     43  C   LIG    1       21.052 -30.373  14.136  0.00  0.00    -0.011 C 
ATOM     44  C   LIG    1       20.833 -29.075  13.664  0.00  0.00    +0.054 C 
ATOM     45  C   LIG    1       19.604 -28.457  13.881  0.00  0.00    +0.117 C 
ATOM     46  C   LIG    1       18.587 -29.110  14.572  0.00  0.00    +0.045 C 
ATOM     47  C   LIG    1       18.807 -30.399  15.058  0.00  0.00    +0.004 C 
ATOM     48  C   LIG    1       20.034 -31.030  14.840  0.00  0.00    +0.009 C 
BRANCH  45  49
ATOM     49  O   LIG    1       19.431 -27.198  13.387  0.00  0.00    -0.507 OA
ATOM     50  H   LIG    1       19.087 -27.264  12.482  0.00  0.00    +0.292 HD
ENDBRANCH  45  49
ENDBRANCH  12  43
BRANCH  18  51
ATOM     51  C   LIG    1       20.412 -32.828   9.514  0.00  0.00    -0.010 A 
ATOM     52  C   LIG    1       19.575 -31.820  10.005  0.00  0.00    +0.054 A 
ATOM     53  C   LIG    1       18.222 -31.812   9.667  0.00  0.00    +0.117 A 
ATOM     54  C   LIG    1       17.678 -32.797   8.848  0.00  0.00    +0.045 A 
ATOM     55  C   LIG    1       18.504 -33.808   8.358  0.00  0.00    +0.004 A 
ATOM     56  C   LIG    1       19.865 -33.825   8.691  0.00  0.00    +0.009 A 
BRANCH  53  57
ATOM     57  O   LIG    1       17.450 -30.804  10.163  0.00  0.00    -0.507 OA
ATOM     58  H   LIG    1       16.515 -31.060  10.085  0.00  0.00    +0.292 HD
ENDBRANCH  53  57
ENDBRANCH  18  51
TORSDOF 8
ENDMDL
