MODEL 1
REMARK VINA RESULT:      -9.1      0.000      0.000
REMARK  Name = *****
REMARK                            x       y       z     vdW  Elec       q    Type
REMARK                         _______ _______ _______ _____ _____    ______ ____
ROOT
ATOM      1  C   LIG    1       25.144 -22.614   6.577  0.00  0.00    +0.190 C 
ENDROOT
BRANCH   1   2
ATOM      2  C   LIG    1       23.728 -22.159   7.090  0.00  0.00    +0.036 C 
ATOM      3  C   LIG    1       23.542 -20.622   7.162  0.00  0.00    +0.007 C 
ATOM      4  C   LIG    1       23.205 -19.958   5.833  0.00  0.00    +0.000 C 
ATOM      5  C   LIG    1       21.990 -20.603   5.185  0.00  0.00    +0.000 C 
ATOM      6  C   LIG    1       22.158 -22.108   5.031  0.00  0.00    +0.000 C 
ATOM      7  C   LIG    1       22.532 -22.789   6.341  0.00  0.00    +0.007 C 
ENDBRANCH   1   2
BRANCH   1   8
ATOM      8  C   LIG    1       25.273 -24.119   6.259  0.00  0.00    -0.005 A 
ATOM      9  C   LIG    1       25.707 -25.044   7.226  0.00  0.00    +0.007 A 
ATOM     10  C   LIG    1       25.889 -26.393   6.911  0.00  0.00    +0.000 A 
ATOM     11  C   LIG    1       25.667 -26.848   5.615  0.00  0.00    +0.000 A 
ATOM     12  C   LIG    1       25.233 -25.957   4.640  0.00  0.00    +0.000 A 
ATOM     13  C   LIG    1       25.034 -24.610   4.959  0.00  0.00    +0.007 A 
ENDBRANCH   1   8
BRANCH   1  14
ATOM     14  C   LIG    1       26.247 -22.260   7.624  0.00  0.00    +0.345 C 
ATOM     15  O   LIG    1       26.059 -22.364   8.842  0.00  0.00    -0.247 OA
BRANCH  14  16
ATOM     16  O   LIG    1       27.395 -21.838   7.044  0.00  0.00    -0.450 OA
BRANCH  16  17
ATOM     17  C   LIG    1       27.721 -20.448   7.123  0.00  0.00    +0.359 C 
BRANCH  17  20
ATOM     18  C   LIG    1       29.553 -18.438   5.836  0.00  0.00    +0.276 C 
ATOM     19  N   LIG    1       29.950 -19.195   7.013  0.00  0.00    -0.224 N 
ATOM     20  C   LIG    1       29.198 -20.245   7.539  0.00  0.00    +0.321 C 
ATOM     21  N   LIG    1       29.637 -21.096   8.410  0.00  0.00    -0.084 NA
ATOM     22  C   LIG    1       31.022 -21.003   8.870  0.00  0.00    +0.294 C 
ATOM     23  C   LIG    1       31.572 -19.596   8.763  0.00  0.00    +0.093 C 
ATOM     24  C   LIG    1       31.369 -19.114   7.343  0.00  0.00    +0.229 C 
ENDBRANCH  17  20
ENDBRANCH  16  17
ENDBRANCH  14  16
ENDBRANCH   1  14
BRANCH   1  25
ATOM     25  O   LIG    1       25.438 -21.888   5.367  0.00  0.00    -0.373 OA
ATOM     26  H   LIG    1       26.092 -21.205   5.614  0.00  0.00    +0.211 HD
ENDBRANCH   1  25
TORSDOF 7
ENDMDL
MODEL 2
REMARK VINA RESULT:      -9.0      1.206      3.893
REMARK  Name = *****
REMARK                            x       y       z     vdW  Elec       q    Type
REMARK                         _______ _______ _______ _____ _____    ______ ____
ROOT
ATOM      1  C   LIG    1       24.714 -22.568   6.504  0.00  0.00    +0.190 C 
ENDROOT
BRANCH   1   2
ATOM      2  C   LIG    1       25.508 -23.670   5.712  0.00  0.00    +0.036 C 
ATOM      3  C   LIG    1       26.383 -24.586   6.603  0.00  0.00    +0.007 C 
ATOM      4  C   LIG    1       25.627 -25.715   7.293  0.00  0.00    +0.000 C 
ATOM      5  C   LIG    1       24.847 -26.550   6.290  0.00  0.00    +0.000 C 
ATOM      6  C   LIG    1       23.919 -25.697   5.437  0.00  0.00    +0.000 C 
ATOM      7  C   LIG    1       24.647 -24.539   4.767  0.00  0.00    +0.007 C 
ENDBRANCH   1   2
BRANCH   1   8
ATOM      8  C   LIG    1       24.151 -21.418   5.640  0.00  0.00    -0.005 A 
ATOM      9  C   LIG    1       24.811 -20.974   4.481  0.00  0.00    +0.007 A 
ATOM     10  C   LIG    1       24.333 -19.886   3.744  0.00  0.00    +0.000 A 
ATOM     11  C   LIG    1       23.198 -19.200   4.162  0.00  0.00    +0.000 A 
ATOM     12  C   LIG    1       22.523 -19.620   5.302  0.00  0.00    +0.000 A 
ATOM     13  C   LIG    1       22.990 -20.718   6.031  0.00  0.00    +0.007 A 
ENDBRANCH   1   8
BRANCH   1  14
ATOM     14  C   LIG    1       25.615 -21.927   7.606  0.00  0.00    +0.345 C 
ATOM     15  O   LIG    1       25.185 -21.647   8.731  0.00  0.00    -0.247 OA
BRANCH  14  16
ATOM     16  O   LIG    1       26.885 -21.724   7.182  0.00  0.00    -0.450 OA
BRANCH  16  17
ATOM     17  C   LIG    1       27.373 -20.381   7.131  0.00  0.00    +0.359 C 
BRANCH  17  20
ATOM     18  C   LIG    1       29.331 -18.531   5.790  0.00  0.00    +0.276 C 
ATOM     19  N   LIG    1       29.703 -19.338   6.941  0.00  0.00    -0.224 N 
ATOM     20  C   LIG    1       28.879 -20.321   7.487  0.00  0.00    +0.321 C 
ATOM     21  N   LIG    1       29.272 -21.222   8.329  0.00  0.00    -0.084 NA
ATOM     22  C   LIG    1       30.677 -21.265   8.732  0.00  0.00    +0.294 C 
ATOM     23  C   LIG    1       31.351 -19.913   8.617  0.00  0.00    +0.093 C 
ATOM     24  C   LIG    1       31.136 -19.394   7.212  0.00  0.00    +0.229 C 
ENDBRANCH  17  20
ENDBRANCH  16  17
ENDBRANCH  14  16
ENDBRANCH   1  14
BRANCH   1  25
ATOM     25  O   LIG    1       23.600 -23.202   7.162  0.00  0.00    -0.373 OA
ATOM     26  H   LIG    1       22.941 -23.383   6.462  0.00  0.00    +0.211 HD
ENDBRANCH   1  25
TORSDOF 7
ENDMDL
MODEL 3
REMARK VINA RESULT:      -8.8      0.697      1.501
REMARK  Name = *****
REMARK                            x       y       z     vdW  Elec       q    Type
REMARK                         _______ _______ _______ _____ _____    ______ ____
ROOT
ATOM      1  C   LIG    1       25.163 -22.286   6.544  0.00  0.00    +0.190 C 
ENDROOT
BRANCH   1   2
ATOM      2  C   LIG    1       23.758 -21.820   7.075  0.00  0.00    +0.036 C 
ATOM      3  C   LIG    1       23.503 -20.297   6.948  0.00  0.00    +0.007 C 
ATOM      4  C   LIG    1       23.063 -19.838   5.564  0.00  0.00    +0.000 C 
ATOM      5  C   LIG    1       21.846 -20.613   5.086  0.00  0.00    +0.000 C 
ATOM      6  C   LIG    1       22.076 -22.117   5.127  0.00  0.00    +0.000 C 
ATOM      7  C   LIG    1       22.553 -22.595   6.493  0.00  0.00    +0.007 C 
ENDBRANCH   1   2
BRANCH   1   8
ATOM      8  C   LIG    1       25.282 -23.796   6.245  0.00  0.00    -0.005 A 
ATOM      9  C   LIG    1       25.750 -24.705   7.210  0.00  0.00    +0.007 A 
ATOM     10  C   LIG    1       25.923 -26.060   6.910  0.00  0.00    +0.000 A 
ATOM     11  C   LIG    1       25.658 -26.534   5.629  0.00  0.00    +0.000 A 
ATOM     12  C   LIG    1       25.191 -25.658   4.656  0.00  0.00    +0.000 A 
ATOM     13  C   LIG    1       25.001 -24.306   4.961  0.00  0.00    +0.007 A 
ENDBRANCH   1   8
BRANCH   1  14
ATOM     14  C   LIG    1       26.285 -21.921   7.567  0.00  0.00    +0.345 C 
ATOM     15  O   LIG    1       26.139 -22.064   8.786  0.00  0.00    -0.247 OA
BRANCH  14  16
ATOM     16  O   LIG    1       27.399 -21.442   6.964  0.00  0.00    -0.450 OA
BRANCH  16  17
ATOM     17  C   LIG    1       28.670 -21.873   7.456  0.00  0.00    +0.359 C 
BRANCH  17  20
ATOM     18  C   LIG    1       31.053 -22.030   9.287  0.00  0.00    +0.276 C 
ATOM     19  N   LIG    1       30.755 -20.833   8.516  0.00  0.00    -0.224 N 
ATOM     20  C   LIG    1       29.579 -20.664   7.786  0.00  0.00    +0.321 C 
ATOM     21  N   LIG    1       29.168 -19.533   7.310  0.00  0.00    -0.084 NA
ATOM     22  C   LIG    1       29.946 -18.321   7.566  0.00  0.00    +0.294 C 
ATOM     23  C   LIG    1       31.412 -18.616   7.803  0.00  0.00    +0.093 C 
ATOM     24  C   LIG    1       31.516 -19.650   8.904  0.00  0.00    +0.229 C 
ENDBRANCH  17  20
ENDBRANCH  16  17
ENDBRANCH  14  16
ENDBRANCH   1  14
BRANCH   1  25
ATOM     25  O   LIG    1       25.437 -21.578   5.319  0.00  0.00    -0.373 OA
ATOM     26  H   LIG    1       25.457 -20.629   5.555  0.00  0.00    +0.211 HD
ENDBRANCH   1  25
TORSDOF 7
ENDMDL
MODEL 4
REMARK VINA RESULT:      -7.8      3.452      6.579
REMARK  Name = *****
REMARK                            x       y       z     vdW  Elec       q    Type
REMARK                         _______ _______ _______ _____ _____    ______ ____
ROOT
ATOM      1  C   LIG    1       24.093 -22.782   6.109  0.00  0.00    +0.190 C 
ENDROOT
BRANCH   1   2
ATOM      2  C   LIG    1       23.469 -22.103   4.835  0.00  0.00    +0.036 C 
ATOM      3  C   LIG    1       22.257 -21.185   5.134  0.00  0.00    +0.007 C 
ATOM      4  C   LIG    1       22.620 -19.789   5.624  0.00  0.00    +0.000 C 
ATOM      5  C   LIG    1       23.576 -19.099   4.664  0.00  0.00    +0.000 C 
ATOM      6  C   LIG    1       24.818 -19.936   4.394  0.00  0.00    +0.000 C 
ATOM      7  C   LIG    1       24.478 -21.350   3.939  0.00  0.00    +0.007 C 
ENDBRANCH   1   2
BRANCH   1   8
ATOM      8  C   LIG    1       25.194 -21.960   6.816  0.00  0.00    -0.005 A 
ATOM      9  C   LIG    1       26.553 -22.109   6.487  0.00  0.00    +0.007 A 
ATOM     10  C   LIG    1       27.549 -21.415   7.179  0.00  0.00    +0.000 A 
ATOM     11  C   LIG    1       27.213 -20.574   8.235  0.00  0.00    +0.000 A 
ATOM     12  C   LIG    1       25.877 -20.404   8.580  0.00  0.00    +0.000 A 
ATOM     13  C   LIG    1       24.879 -21.086   7.876  0.00  0.00    +0.007 A 
ENDBRANCH   1   8
BRANCH   1  14
ATOM     14  C   LIG    1       24.706 -24.171   5.746  0.00  0.00    +0.345 C 
ATOM     15  O   LIG    1       25.043 -24.464   4.592  0.00  0.00    -0.247 OA
BRANCH  14  16
ATOM     16  O   LIG    1       24.816 -24.985   6.822  0.00  0.00    -0.450 OA
BRANCH  16  17
ATOM     17  C   LIG    1       25.913 -25.902   6.866  0.00  0.00    +0.359 C 
BRANCH  17  20
ATOM     18  C   LIG    1       26.415 -28.128   8.828  0.00  0.00    +0.276 C 
ATOM     19  N   LIG    1       25.559 -28.308   7.666  0.00  0.00    -0.224 N 
ATOM     20  C   LIG    1       25.431 -27.358   6.653  0.00  0.00    +0.321 C 
ATOM     21  N   LIG    1       24.894 -27.587   5.497  0.00  0.00    -0.084 NA
ATOM     22  C   LIG    1       24.410 -28.930   5.184  0.00  0.00    +0.294 C 
ATOM     23  C   LIG    1       24.025 -29.708   6.425  0.00  0.00    +0.093 C 
ATOM     24  C   LIG    1       25.200 -29.693   7.378  0.00  0.00    +0.229 C 
ENDBRANCH  17  20
ENDBRANCH  16  17
ENDBRANCH  14  16
ENDBRANCH   1  14
BRANCH   1  25
ATOM     25  O   LIG    1       23.037 -23.004   7.064  0.00  0.00    -0.373 OA
ATOM     26  H   LIG    1       23.473 -23.085   7.935  0.00  0.00    +0.211 HD
ENDBRANCH   1  25
TORSDOF 7
ENDMDL
MODEL 5
REMARK VINA RESULT:      -7.5      1.505      3.632
REMARK  Name = *****
REMARK                            x       y       z     vdW  Elec       q    Type
REMARK                         _______ _______ _______ _____ _____    ______ ____
ROOT
ATOM      1  C   LIG    1       24.595 -21.023   7.512  0.00  0.00    +0.190 C 
ENDROOT
BRANCH   1   2
ATOM      2  C   LIG    1       24.398 -22.566   7.747  0.00  0.00    +0.036 C 
ATOM      3  C   LIG    1       23.325 -23.215   6.837  0.00  0.00    +0.007 C 
ATOM      4  C   LIG    1       23.802 -23.553   5.431  0.00  0.00    +0.000 C 
ATOM      5  C   LIG    1       25.053 -24.417   5.464  0.00  0.00    +0.000 C 
ATOM      6  C   LIG    1       26.162 -23.783   6.292  0.00  0.00    +0.000 C 
ATOM      7  C   LIG    1       25.697 -23.402   7.692  0.00  0.00    +0.007 C 
ENDBRANCH   1   2
BRANCH   1   8
ATOM      8  C   LIG    1       24.382 -20.550   6.058  0.00  0.00    -0.005 A 
ATOM      9  C   LIG    1       25.416 -20.604   5.105  0.00  0.00    +0.007 A 
ATOM     10  C   LIG    1       25.237 -20.108   3.810  0.00  0.00    +0.000 A 
ATOM     11  C   LIG    1       24.030 -19.523   3.443  0.00  0.00    +0.000 A 
ATOM     12  C   LIG    1       22.990 -19.460   4.363  0.00  0.00    +0.000 A 
ATOM     13  C   LIG    1       23.162 -19.971   5.654  0.00  0.00    +0.007 A 
ENDBRANCH   1   8
BRANCH   1  14
ATOM     14  C   LIG    1       26.029 -20.581   7.944  0.00  0.00    +0.345 C 
ATOM     15  O   LIG    1       26.381 -20.546   9.129  0.00  0.00    -0.247 OA
BRANCH  14  16
ATOM     16  O   LIG    1       26.808 -20.250   6.887  0.00  0.00    -0.450 OA
BRANCH  16  17
ATOM     17  C   LIG    1       28.009 -20.996   6.675  0.00  0.00    +0.359 C 
BRANCH  17  20
ATOM     18  C   LIG    1       29.265 -18.481   5.602  0.00  0.00    +0.276 C 
ATOM     19  N   LIG    1       29.663 -19.053   6.879  0.00  0.00    -0.224 N 
ATOM     20  C   LIG    1       29.224 -20.296   7.332  0.00  0.00    +0.321 C 
ATOM     21  N   LIG    1       29.750 -20.944   8.322  0.00  0.00    -0.084 NA
ATOM     22  C   LIG    1       30.909 -20.380   9.014  0.00  0.00    +0.294 C 
ATOM     23  C   LIG    1       30.962 -18.870   8.913  0.00  0.00    +0.093 C 
ATOM     24  C   LIG    1       30.882 -18.489   7.450  0.00  0.00    +0.229 C 
ENDBRANCH  17  20
ENDBRANCH  16  17
ENDBRANCH  14  16
ENDBRANCH   1  14
BRANCH   1  25
ATOM     25  O   LIG    1       23.650 -20.318   8.340  0.00  0.00    -0.373 OA
ATOM     26  H   LIG    1       22.956 -20.967   8.571  0.00  0.00    +0.211 HD
ENDBRANCH   1  25
TORSDOF 7
ENDMDL
MODEL 6
REMARK VINA RESULT:      -7.4      1.555      3.912
REMARK  Name = *****
REMARK                            x       y       z     vdW  Elec       q    Type
REMARK                         _______ _______ _______ _____ _____    ______ ____
ROOT
ATOM      1  C   LIG    1       25.210 -21.077   7.173  0.00  0.00    +0.190 C 
ENDROOT
BRANCH   1   2
ATOM      2  C   LIG    1       25.004 -22.559   7.657  0.00  0.00    +0.036 C 
ATOM      3  C   LIG    1       23.526 -23.024   7.669  0.00  0.00    +0.007 C 
ATOM      4  C   LIG    1       22.983 -23.457   6.313  0.00  0.00    +0.000 C 
ATOM      5  C   LIG    1       23.862 -24.524   5.681  0.00  0.00    +0.000 C 
ATOM      6  C   LIG    1       25.316 -24.082   5.585  0.00  0.00    +0.000 C 
ATOM      7  C   LIG    1       25.869 -23.609   6.923  0.00  0.00    +0.007 C 
ENDBRANCH   1   2
BRANCH   1   8
ATOM      8  C   LIG    1       24.341 -20.656   5.968  0.00  0.00    -0.005 A 
ATOM      9  C   LIG    1       24.786 -20.816   4.644  0.00  0.00    +0.007 A 
ATOM     10  C   LIG    1       24.024 -20.367   3.561  0.00  0.00    +0.000 A 
ATOM     11  C   LIG    1       22.811 -19.722   3.777  0.00  0.00    +0.000 A 
ATOM     12  C   LIG    1       22.344 -19.554   5.075  0.00  0.00    +0.000 A 
ATOM     13  C   LIG    1       23.097 -20.018   6.158  0.00  0.00    +0.007 A 
ENDBRANCH   1   8
BRANCH   1  14
ATOM     14  C   LIG    1       26.701 -20.829   6.784  0.00  0.00    +0.345 C 
ATOM     15  O   LIG    1       27.030 -20.376   5.681  0.00  0.00    -0.247 OA
BRANCH  14  16
ATOM     16  O   LIG    1       27.558 -21.165   7.777  0.00  0.00    -0.450 OA
BRANCH  16  17
ATOM     17  C   LIG    1       28.924 -21.415   7.435  0.00  0.00    +0.359 C 
BRANCH  17  20
ATOM     18  C   LIG    1       31.356 -21.970   9.118  0.00  0.00    +0.276 C 
ATOM     19  N   LIG    1       31.045 -20.633   8.636  0.00  0.00    -0.224 N 
ATOM     20  C   LIG    1       29.850 -20.308   7.994  0.00  0.00    +0.321 C 
ATOM     21  N   LIG    1       29.433 -19.099   7.789  0.00  0.00    -0.084 NA
ATOM     22  C   LIG    1       30.226 -17.973   8.282  0.00  0.00    +0.294 C 
ATOM     23  C   LIG    1       31.696 -18.314   8.405  0.00  0.00    +0.093 C 
ATOM     24  C   LIG    1       31.824 -19.563   9.250  0.00  0.00    +0.229 C 
ENDBRANCH  17  20
ENDBRANCH  16  17
ENDBRANCH  14  16
ENDBRANCH   1  14
BRANCH   1  25
ATOM     25  O   LIG    1       24.889 -20.198   8.268  0.00  0.00    -0.373 OA
ATOM     26  H   LIG    1       25.299 -19.337   8.051  0.00  0.00    +0.211 HD
ENDBRANCH   1  25
TORSDOF 7
ENDMDL
MODEL 7
REMARK VINA RESULT:      -7.1      2.741      6.128
REMARK  Name = *****
REMARK                            x       y       z     vdW  Elec       q    Type
REMARK                         _______ _______ _______ _____ _____    ______ ____
ROOT
ATOM      1  C   LIG    1       24.605 -21.152   6.200  0.00  0.00    +0.190 C 
ENDROOT
BRANCH   1   2
ATOM      2  C   LIG    1       24.150 -21.007   4.702  0.00  0.00    +0.036 C 
ATOM      3  C   LIG    1       22.614 -20.930   4.509  0.00  0.00    +0.007 C 
ATOM      4  C   LIG    1       22.009 -19.555   4.761  0.00  0.00    +0.000 C 
ATOM      5  C   LIG    1       22.696 -18.487   3.925  0.00  0.00    +0.000 C 
ATOM      6  C   LIG    1       24.203 -18.479   4.136  0.00  0.00    +0.000 C 
ATOM      7  C   LIG    1       24.826 -19.854   3.926  0.00  0.00    +0.007 C 
ENDBRANCH   1   2
BRANCH   1   8
ATOM      8  C   LIG    1       26.026 -20.631   6.506  0.00  0.00    -0.005 A 
ATOM      9  C   LIG    1       26.940 -20.333   5.480  0.00  0.00    +0.007 A 
ATOM     10  C   LIG    1       28.248 -19.931   5.765  0.00  0.00    +0.000 A 
ATOM     11  C   LIG    1       28.683 -19.842   7.084  0.00  0.00    +0.000 A 
ATOM     12  C   LIG    1       27.800 -20.128   8.119  0.00  0.00    +0.000 A 
ATOM     13  C   LIG    1       26.486 -20.514   7.834  0.00  0.00    +0.007 A 
ENDBRANCH   1   8
BRANCH   1  14
ATOM     14  C   LIG    1       24.546 -22.646   6.650  0.00  0.00    +0.345 C 
ATOM     15  O   LIG    1       23.557 -23.127   7.216  0.00  0.00    -0.247 OA
BRANCH  14  16
ATOM     16  O   LIG    1       25.681 -23.321   6.350  0.00  0.00    -0.450 OA
BRANCH  16  17
ATOM     17  C   LIG    1       25.990 -24.492   7.111  0.00  0.00    +0.359 C 
BRANCH  17  20
ATOM     18  C   LIG    1       26.296 -27.276   8.212  0.00  0.00    +0.276 C 
ATOM     19  N   LIG    1       25.785 -27.032   6.872  0.00  0.00    -0.224 N 
ATOM     20  C   LIG    1       25.781 -25.775   6.270  0.00  0.00    +0.321 C 
ATOM     21  N   LIG    1       25.581 -25.567   5.007  0.00  0.00    -0.084 NA
ATOM     22  C   LIG    1       25.378 -26.708   4.116  0.00  0.00    +0.294 C 
ATOM     23  C   LIG    1       24.811 -27.911   4.839  0.00  0.00    +0.093 C 
ATOM     24  C   LIG    1       25.702 -28.216   6.024  0.00  0.00    +0.229 C 
ENDBRANCH  17  20
ENDBRANCH  16  17
ENDBRANCH  14  16
ENDBRANCH   1  14
BRANCH   1  25
ATOM     25  O   LIG    1       23.684 -20.409   7.023  0.00  0.00    -0.373 OA
ATOM     26  H   LIG    1       23.342 -19.687   6.460  0.00  0.00    +0.211 HD
ENDBRANCH   1  25
TORSDOF 7
ENDMDL
MODEL 8
REMARK VINA RESULT:      -6.8      3.401      5.706
REMARK  Name = *****
REMARK                            x       y       z     vdW  Elec       q    Type
REMARK                         _______ _______ _______ _____ _____    ______ ____
ROOT
ATOM      1  C   LIG    1       25.397 -20.628   5.375  0.00  0.00    +0.190 C 
ENDROOT
BRANCH   1   2
ATOM      2  C   LIG    1       24.140 -20.412   6.295  0.00  0.00    +0.036 C 
ATOM      3  C   LIG    1       22.857 -20.002   5.530  0.00  0.00    +0.007 C 
ATOM      4  C   LIG    1       22.105 -21.158   4.881  0.00  0.00    +0.000 C 
ATOM      5  C   LIG    1       21.787 -22.247   5.892  0.00  0.00    +0.000 C 
ATOM      6  C   LIG    1       23.033 -22.731   6.621  0.00  0.00    +0.000 C 
ATOM      7  C   LIG    1       23.821 -21.587   7.246  0.00  0.00    +0.007 C 
ENDBRANCH   1   2
BRANCH   1   8
ATOM      8  C   LIG    1       26.753 -20.272   6.024  0.00  0.00    -0.005 A 
ATOM      9  C   LIG    1       26.972 -20.420   7.405  0.00  0.00    +0.007 A 
ATOM     10  C   LIG    1       28.177 -20.029   7.996  0.00  0.00    +0.000 A 
ATOM     11  C   LIG    1       29.183 -19.456   7.225  0.00  0.00    +0.000 A 
ATOM     12  C   LIG    1       28.996 -19.303   5.856  0.00  0.00    +0.000 A 
ATOM     13  C   LIG    1       27.797 -19.709   5.261  0.00  0.00    +0.007 A 
ENDBRANCH   1   8
BRANCH   1  14
ATOM     14  C   LIG    1       25.270 -19.787   4.065  0.00  0.00    +0.345 C 
ATOM     15  O   LIG    1       24.973 -20.297   2.979  0.00  0.00    -0.247 OA
BRANCH  14  16
ATOM     16  O   LIG    1       25.520 -18.472   4.268  0.00  0.00    -0.450 OA
BRANCH  16  17
ATOM     17  C   LIG    1       25.558 -17.608   3.130  0.00  0.00    +0.359 C 
BRANCH  17  20
ATOM     18  C   LIG    1       23.497 -15.627   4.071  0.00  0.00    +0.276 C 
ATOM     19  N   LIG    1       24.921 -15.333   4.116  0.00  0.00    -0.224 N 
ATOM     20  C   LIG    1       25.892 -16.154   3.544  0.00  0.00    +0.321 C 
ATOM     21  N   LIG    1       27.121 -15.802   3.338  0.00  0.00    -0.084 NA
ATOM     22  C   LIG    1       27.547 -14.447   3.686  0.00  0.00    +0.294 C 
ATOM     23  C   LIG    1       26.704 -13.842   4.789  0.00  0.00    +0.093 C 
ATOM     24  C   LIG    1       25.250 -13.936   4.380  0.00  0.00    +0.229 C 
ENDBRANCH  17  20
ENDBRANCH  16  17
ENDBRANCH  14  16
ENDBRANCH   1  14
BRANCH   1  25
ATOM     25  O   LIG    1       25.447 -22.018   5.001  0.00  0.00    -0.373 OA
ATOM     26  H   LIG    1       24.748 -22.463   5.521  0.00  0.00    +0.211 HD
ENDBRANCH   1  25
TORSDOF 7
ENDMDL
MODEL 9
REMARK VINA RESULT:      -6.4      6.208      9.194
REMARK  Name = *****
REMARK                            x       y       z     vdW  Elec       q    Type
REMARK                         _______ _______ _______ _____ _____    ______ ____
ROOT
ATOM      1  C   LIG    1       24.655 -29.921   6.490  0.00  0.00    +0.190 C 
ENDROOT
BRANCH   1   2
ATOM      2  C   LIG    1       25.792 -30.955   6.152  0.00  0.00    +0.036 C 
ATOM      3  C   LIG    1       25.975 -32.067   7.215  0.00  0.00    +0.007 C 
ATOM      4  C   LIG    1       24.982 -33.218   7.110  0.00  0.00    +0.000 C 
ATOM      5  C   LIG    1       24.981 -33.822   5.715  0.00  0.00    +0.000 C 
ATOM      6  C   LIG    1       24.735 -32.773   4.640  0.00  0.00    +0.000 C 
ATOM      7  C   LIG    1       25.692 -31.593   4.748  0.00  0.00    +0.007 C 
ENDBRANCH   1   2
BRANCH   1   8
ATOM      8  C   LIG    1       24.943 -28.467   6.057  0.00  0.00    -0.005 A 
ATOM      9  C   LIG    1       24.100 -27.405   6.429  0.00  0.00    +0.007 A 
ATOM     10  C   LIG    1       24.326 -26.103   5.974  0.00  0.00    +0.000 A 
ATOM     11  C   LIG    1       25.387 -25.835   5.115  0.00  0.00    +0.000 A 
ATOM     12  C   LIG    1       26.239 -26.864   4.733  0.00  0.00    +0.000 A 
ATOM     13  C   LIG    1       26.023 -28.165   5.202  0.00  0.00    +0.007 A 
ENDBRANCH   1   8
BRANCH   1  14
ATOM     14  C   LIG    1       24.368 -29.904   8.025  0.00  0.00    +0.345 C 
ATOM     15  O   LIG    1       23.316 -30.345   8.505  0.00  0.00    -0.247 OA
BRANCH  14  16
ATOM     16  O   LIG    1       25.384 -29.362   8.736  0.00  0.00    -0.450 OA
BRANCH  16  17
ATOM     17  C   LIG    1       25.725 -29.959   9.990  0.00  0.00    +0.359 C 
BRANCH  17  20
ATOM     18  C   LIG    1       23.427 -29.577  11.895  0.00  0.00    +0.276 C 
ATOM     19  N   LIG    1       24.693 -28.883  12.071  0.00  0.00    -0.224 N 
ATOM     20  C   LIG    1       25.719 -28.908  11.127  0.00  0.00    +0.321 C 
ATOM     21  N   LIG    1       26.736 -28.107  11.128  0.00  0.00    -0.084 NA
ATOM     22  C   LIG    1       26.831 -27.069  12.154  0.00  0.00    +0.294 C 
ATOM     23  C   LIG    1       26.090 -27.442  13.422  0.00  0.00    +0.093 C 
ATOM     24  C   LIG    1       24.668 -27.803  13.052  0.00  0.00    +0.229 C 
ENDBRANCH  17  20
ENDBRANCH  16  17
ENDBRANCH  14  16
ENDBRANCH   1  14
BRANCH   1  25
ATOM     25  O   LIG    1       23.451 -30.343   5.822  0.00  0.00    -0.373 OA
ATOM     26  H   LIG    1       22.744 -30.315   6.497  0.00  0.00    +0.211 HD
ENDBRANCH   1  25
TORSDOF 7
ENDMDL
