MODEL 1
REMARK VINA RESULT:     -10.0      0.000      0.000
REMARK  Name = *****
REMARK                            x       y       z     vdW  Elec       q    Type
REMARK                         _______ _______ _______ _____ _____    ______ ____
ROOT
ATOM      1  O   LIG    1       26.723 -26.797   5.589  0.00  0.00    -0.270 OA
ATOM      2  C   LIG    1       25.656 -26.763   6.218  0.00  0.00    +0.248 C 
ATOM      3  N   LIG    1       24.952 -27.858   6.694  0.00  0.00    -0.279 N 
ATOM      4  H   LIG    1       24.162 -27.683   7.303  0.00  0.00    +0.155 HD
ENDROOT
BRANCH   3   5
ATOM      5  C   LIG    1       25.275 -29.229   6.521  0.00  0.00    +0.077 A 
ATOM      6  C   LIG    1       25.516 -30.030   7.652  0.00  0.00    +0.161 A 
ATOM      7  C   LIG    1       25.833 -31.383   7.493  0.00  0.00    +0.066 A 
ATOM      8  C   LIG    1       26.077 -32.218   8.682  0.00  0.00    +0.193 C 
ATOM      9  C   LIG    1       25.826 -31.581   9.981  0.00  0.00    +0.101 C 
ATOM     10  C   LIG    1       25.527 -30.279  10.017  0.00  0.00    +0.177 C 
ATOM     11  O   LIG    1       26.440 -33.378   8.608  0.00  0.00    -0.287 OA
ATOM     12  C   LIG    1       25.889 -31.963   6.225  0.00  0.00    +0.015 A 
ATOM     13  C   LIG    1       25.627 -31.180   5.107  0.00  0.00    +0.003 A 
ATOM     14  O   LIG    1       25.436 -29.448   8.905  0.00  0.00    -0.450 OA
ATOM     15  C   LIG    1       25.331 -29.822   5.253  0.00  0.00    +0.027 A 
BRANCH  10  16
ATOM     16  C   LIG    1       25.225 -29.677  11.260  0.00  0.00    +0.215 A 
ATOM     17  N   LIG    1       25.772 -28.472  11.600  0.00  0.00    -0.236 N 
ATOM     18  H   LIG    1       26.432 -27.894  11.096  0.00  0.00    +0.192 HD
ATOM     19  N   LIG    1       25.330 -28.083  12.802  0.00  0.00    -0.046 NA
ATOM     20  N   LIG    1       24.534 -29.061  13.209  0.00  0.00    -0.023 NA
ATOM     21  N   LIG    1       24.471 -30.064  12.271  0.00  0.00    -0.105 NA
ENDBRANCH  10  16
ENDBRANCH   3   5
BRANCH   2  22
ATOM     22  C   LIG    1       25.082 -25.427   6.540  0.00  0.00    +0.037 A 
ATOM     23  C   LIG    1       25.902 -24.391   7.007  0.00  0.00    +0.016 A 
ATOM     24  C   LIG    1       25.351 -23.139   7.316  0.00  0.00    +0.046 A 
ATOM     25  C   LIG    1       24.003 -22.878   7.057  0.00  0.00    +0.120 A 
ATOM     26  C   LIG    1       23.194 -23.905   6.576  0.00  0.00    +0.046 A 
ATOM     27  C   LIG    1       23.716 -25.181   6.351  0.00  0.00    +0.016 A 
BRANCH  25  28
ATOM     28  O   LIG    1       23.577 -21.601   7.306  0.00  0.00    -0.492 OA
BRANCH  28  29
ATOM     29  C   LIG    1       23.184 -20.805   6.176  0.00  0.00    +0.229 C 
BRANCH  29  30
ATOM     30  C   LIG    1       24.396 -20.466   5.296  0.00  0.00    +0.041 C 
BRANCH  30  31
ATOM     31  C   LIG    1       25.671 -20.258   6.108  0.00  0.00    +0.008 C 
BRANCH  31  32
ATOM     32  C   LIG    1       26.893 -19.930   5.234  0.00  0.00    +0.035 C 
BRANCH  32  33
ATOM     33  C   LIG    1       28.170 -19.966   6.044  0.00  0.00    -0.047 A 
ATOM     34  C   LIG    1       28.385 -20.944   7.025  0.00  0.00    +0.003 A 
ATOM     35  C   LIG    1       29.565 -20.945   7.774  0.00  0.00    +0.000 A 
ATOM     36  C   LIG    1       30.542 -19.976   7.549  0.00  0.00    +0.000 A 
ATOM     37  C   LIG    1       30.345 -19.009   6.567  0.00  0.00    +0.000 A 
ATOM     38  C   LIG    1       29.172 -19.010   5.816  0.00  0.00    +0.003 A 
ENDBRANCH  32  33
ENDBRANCH  31  32
ENDBRANCH  30  31
ENDBRANCH  29  30
ENDBRANCH  28  29
ENDBRANCH  25  28
ENDBRANCH   2  22
TORSDOF 9
ENDMDL
MODEL 2
REMARK VINA RESULT:      -9.5      2.841      4.553
REMARK  Name = *****
REMARK                            x       y       z     vdW  Elec       q    Type
REMARK                         _______ _______ _______ _____ _____    ______ ____
ROOT
ATOM      1  O   LIG    1       23.878 -30.675   7.038  0.00  0.00    -0.270 OA
ATOM      2  C   LIG    1       24.602 -29.859   7.624  0.00  0.00    +0.248 C 
ATOM      3  N   LIG    1       25.227 -30.048   8.847  0.00  0.00    -0.279 N 
ATOM      4  H   LIG    1       25.894 -29.349   9.149  0.00  0.00    +0.155 HD
ENDROOT
BRANCH   3   5
ATOM      5  C   LIG    1       25.127 -31.180   9.696  0.00  0.00    +0.077 A 
ATOM      6  C   LIG    1       24.588 -31.029  10.988  0.00  0.00    +0.161 A 
ATOM      7  C   LIG    1       24.482 -32.139  11.832  0.00  0.00    +0.066 A 
ATOM      8  C   LIG    1       23.911 -31.975  13.180  0.00  0.00    +0.193 C 
ATOM      9  C   LIG    1       23.354 -30.652  13.489  0.00  0.00    +0.101 C 
ATOM     10  C   LIG    1       23.511 -29.661  12.607  0.00  0.00    +0.177 C 
ATOM     11  O   LIG    1       23.870 -32.883  13.992  0.00  0.00    -0.287 OA
ATOM     12  C   LIG    1       24.880 -33.407  11.405  0.00  0.00    +0.015 A 
ATOM     13  C   LIG    1       25.389 -33.564  10.122  0.00  0.00    +0.003 A 
ATOM     14  O   LIG    1       24.178 -29.771  11.391  0.00  0.00    -0.450 OA
ATOM     15  C   LIG    1       25.519 -32.457   9.277  0.00  0.00    +0.027 A 
BRANCH  10  16
ATOM     16  C   LIG    1       22.925 -28.403  12.875  0.00  0.00    +0.215 A 
ATOM     17  N   LIG    1       23.672 -27.383  13.391  0.00  0.00    -0.236 N 
ATOM     18  H   LIG    1       24.645 -27.367  13.668  0.00  0.00    +0.192 HD
ATOM     19  N   LIG    1       22.922 -26.284  13.538  0.00  0.00    -0.046 NA
ATOM     20  N   LIG    1       21.710 -26.639  13.137  0.00  0.00    -0.023 NA
ATOM     21  N   LIG    1       21.692 -27.954  12.737  0.00  0.00    -0.105 NA
ENDBRANCH  10  16
ENDBRANCH   3   5
BRANCH   2  22
ATOM     22  C   LIG    1       24.877 -28.562   6.944  0.00  0.00    +0.037 A 
ATOM     23  C   LIG    1       24.161 -28.190   5.798  0.00  0.00    +0.016 A 
ATOM     24  C   LIG    1       24.433 -26.972   5.160  0.00  0.00    +0.046 A 
ATOM     25  C   LIG    1       25.338 -26.067   5.722  0.00  0.00    +0.120 A 
ATOM     26  C   LIG    1       26.035 -26.432   6.872  0.00  0.00    +0.046 A 
ATOM     27  C   LIG    1       25.836 -27.682   7.462  0.00  0.00    +0.016 A 
BRANCH  25  28
ATOM     28  O   LIG    1       25.469 -24.866   5.078  0.00  0.00    -0.492 OA
BRANCH  28  29
ATOM     29  C   LIG    1       25.122 -23.681   5.814  0.00  0.00    +0.229 C 
BRANCH  29  30
ATOM     30  C   LIG    1       23.882 -23.922   6.687  0.00  0.00    +0.041 C 
BRANCH  30  31
ATOM     31  C   LIG    1       22.913 -22.744   6.669  0.00  0.00    +0.008 C 
BRANCH  31  32
ATOM     32  C   LIG    1       23.585 -21.408   7.026  0.00  0.00    +0.035 C 
BRANCH  32  33
ATOM     33  C   LIG    1       23.615 -20.475   5.834  0.00  0.00    -0.047 A 
ATOM     34  C   LIG    1       22.510 -19.681   5.501  0.00  0.00    +0.003 A 
ATOM     35  C   LIG    1       22.555 -18.842   4.384  0.00  0.00    +0.000 A 
ATOM     36  C   LIG    1       23.702 -18.784   3.594  0.00  0.00    +0.000 A 
ATOM     37  C   LIG    1       24.811 -19.558   3.924  0.00  0.00    +0.000 A 
ATOM     38  C   LIG    1       24.769 -20.391   5.039  0.00  0.00    +0.003 A 
ENDBRANCH  32  33
ENDBRANCH  31  32
ENDBRANCH  30  31
ENDBRANCH  29  30
ENDBRANCH  28  29
ENDBRANCH  25  28
ENDBRANCH   2  22
TORSDOF 9
ENDMDL
MODEL 3
REMARK VINA RESULT:      -9.4      1.662      2.571
REMARK  Name = *****
REMARK                            x       y       z     vdW  Elec       q    Type
REMARK                         _______ _______ _______ _____ _____    ______ ____
ROOT
ATOM      1  O   LIG    1       23.999 -29.416   6.385  0.00  0.00    -0.270 OA
ATOM      2  C   LIG    1       24.863 -28.721   6.936  0.00  0.00    +0.248 C 
ATOM      3  N   LIG    1       25.768 -29.149   7.897  0.00  0.00    -0.279 N 
ATOM      4  H   LIG    1       26.503 -28.509   8.170  0.00  0.00    +0.155 HD
ENDROOT
BRANCH   3   5
ATOM      5  C   LIG    1       25.857 -30.440   8.477  0.00  0.00    +0.077 A 
ATOM      6  C   LIG    1       25.559 -30.606   9.842  0.00  0.00    +0.161 A 
ATOM      7  C   LIG    1       25.641 -31.875  10.424  0.00  0.00    +0.066 A 
ATOM      8  C   LIG    1       25.321 -32.043  11.853  0.00  0.00    +0.193 C 
ATOM      9  C   LIG    1       24.792 -30.857  12.539  0.00  0.00    +0.101 C 
ATOM     10  C   LIG    1       24.757 -29.692  11.886  0.00  0.00    +0.177 C 
ATOM     11  O   LIG    1       25.456 -33.103  12.437  0.00  0.00    -0.287 OA
ATOM     12  C   LIG    1       25.991 -32.992   9.664  0.00  0.00    +0.015 A 
ATOM     13  C   LIG    1       26.261 -32.836   8.310  0.00  0.00    +0.003 A 
ATOM     14  O   LIG    1       25.193 -29.494  10.580  0.00  0.00    -0.450 OA
ATOM     15  C   LIG    1       26.203 -31.568   7.723  0.00  0.00    +0.027 A 
BRANCH  10  16
ATOM     16  C   LIG    1       24.193 -28.563  12.523  0.00  0.00    +0.215 A 
ATOM     17  N   LIG    1       24.992 -27.570  13.013  0.00  0.00    -0.236 N 
ATOM     18  H   LIG    1       26.001 -27.498  13.031  0.00  0.00    +0.192 HD
ATOM     19  N   LIG    1       24.247 -26.595  13.548  0.00  0.00    -0.046 NA
ATOM     20  N   LIG    1       22.994 -27.004  13.410  0.00  0.00    -0.023 NA
ATOM     21  N   LIG    1       22.944 -28.229  12.790  0.00  0.00    -0.105 NA
ENDBRANCH  10  16
ENDBRANCH   3   5
BRANCH   2  22
ATOM     22  C   LIG    1       24.988 -27.300   6.509  0.00  0.00    +0.037 A 
ATOM     23  C   LIG    1       24.034 -26.723   5.660  0.00  0.00    +0.016 A 
ATOM     24  C   LIG    1       24.165 -25.386   5.256  0.00  0.00    +0.046 A 
ATOM     25  C   LIG    1       25.182 -24.586   5.783  0.00  0.00    +0.120 A 
ATOM     26  C   LIG    1       26.119 -25.158   6.641  0.00  0.00    +0.046 A 
ATOM     27  C   LIG    1       26.048 -26.511   6.977  0.00  0.00    +0.016 A 
BRANCH  25  28
ATOM     28  O   LIG    1       25.175 -23.271   5.401  0.00  0.00    -0.492 OA
BRANCH  28  29
ATOM     29  C   LIG    1       24.184 -22.416   5.995  0.00  0.00    +0.229 C 
BRANCH  29  30
ATOM     30  C   LIG    1       24.581 -22.033   7.429  0.00  0.00    +0.041 C 
BRANCH  30  31
ATOM     31  C   LIG    1       25.731 -21.031   7.472  0.00  0.00    +0.008 C 
BRANCH  31  32
ATOM     32  C   LIG    1       27.104 -21.700   7.646  0.00  0.00    +0.035 C 
BRANCH  32  33
ATOM     33  C   LIG    1       28.220 -20.786   7.188  0.00  0.00    -0.047 A 
ATOM     34  C   LIG    1       29.470 -20.787   7.821  0.00  0.00    +0.003 A 
ATOM     35  C   LIG    1       30.479 -19.920   7.392  0.00  0.00    +0.000 A 
ATOM     36  C   LIG    1       30.252 -19.049   6.327  0.00  0.00    +0.000 A 
ATOM     37  C   LIG    1       29.018 -19.050   5.683  0.00  0.00    +0.000 A 
ATOM     38  C   LIG    1       28.013 -19.917   6.106  0.00  0.00    +0.003 A 
ENDBRANCH  32  33
ENDBRANCH  31  32
ENDBRANCH  30  31
ENDBRANCH  29  30
ENDBRANCH  28  29
ENDBRANCH  25  28
ENDBRANCH   2  22
TORSDOF 9
ENDMDL
MODEL 4
REMARK VINA RESULT:      -9.3      1.354      1.824
REMARK  Name = *****
REMARK                            x       y       z     vdW  Elec       q    Type
REMARK                         _______ _______ _______ _____ _____    ______ ____
ROOT
ATOM      1  O   LIG    1       24.023 -27.291   4.930  0.00  0.00    -0.270 OA
ATOM      2  C   LIG    1       24.576 -27.035   6.009  0.00  0.00    +0.248 C 
ATOM      3  N   LIG    1       25.173 -27.952   6.860  0.00  0.00    -0.279 N 
ATOM      4  H   LIG    1       25.700 -27.592   7.646  0.00  0.00    +0.155 HD
ENDROOT
BRANCH   3   5
ATOM      5  C   LIG    1       25.230 -29.361   6.701  0.00  0.00    +0.077 A 
ATOM      6  C   LIG    1       25.001 -30.191   7.815  0.00  0.00    +0.161 A 
ATOM      7  C   LIG    1       25.052 -31.581   7.669  0.00  0.00    +0.066 A 
ATOM      8  C   LIG    1       24.805 -32.445   8.837  0.00  0.00    +0.193 C 
ATOM      9  C   LIG    1       24.377 -31.763  10.065  0.00  0.00    +0.101 C 
ATOM     10  C   LIG    1       24.363 -30.427  10.093  0.00  0.00    +0.177 C 
ATOM     11  O   LIG    1       24.919 -33.656   8.795  0.00  0.00    -0.287 OA
ATOM     12  C   LIG    1       25.301 -32.164   6.426  0.00  0.00    +0.015 A 
ATOM     13  C   LIG    1       25.502 -31.348   5.320  0.00  0.00    +0.003 A 
ATOM     14  O   LIG    1       24.734 -29.601   9.037  0.00  0.00    -0.450 OA
ATOM     15  C   LIG    1       25.475 -29.957   5.458  0.00  0.00    +0.027 A 
BRANCH  10  16
ATOM     16  C   LIG    1       23.894 -29.768  11.253  0.00  0.00    +0.215 A 
ATOM     17  N   LIG    1       22.554 -29.608  11.467  0.00  0.00    -0.236 N 
ATOM     18  H   LIG    1       21.769 -29.871  10.887  0.00  0.00    +0.192 HD
ATOM     19  N   LIG    1       22.341 -28.984  12.633  0.00  0.00    -0.046 NA
ATOM     20  N   LIG    1       23.550 -28.740  13.118  0.00  0.00    -0.023 NA
ATOM     21  N   LIG    1       24.523 -29.205  12.267  0.00  0.00    -0.105 NA
ENDBRANCH  10  16
ENDBRANCH   3   5
BRANCH   2  22
ATOM     22  C   LIG    1       24.656 -25.608   6.427  0.00  0.00    +0.037 A 
ATOM     23  C   LIG    1       25.884 -25.039   6.791  0.00  0.00    +0.016 A 
ATOM     24  C   LIG    1       25.949 -23.696   7.191  0.00  0.00    +0.046 A 
ATOM     25  C   LIG    1       24.814 -22.884   7.125  0.00  0.00    +0.120 A 
ATOM     26  C   LIG    1       23.598 -23.449   6.745  0.00  0.00    +0.046 A 
ATOM     27  C   LIG    1       23.507 -24.806   6.432  0.00  0.00    +0.016 A 
BRANCH  25  28
ATOM     28  O   LIG    1       24.995 -21.566   7.449  0.00  0.00    -0.492 OA
BRANCH  28  29
ATOM     29  C   LIG    1       25.058 -20.624   6.366  0.00  0.00    +0.229 C 
BRANCH  29  30
ATOM     30  C   LIG    1       26.504 -20.442   5.881  0.00  0.00    +0.041 C 
BRANCH  30  31
ATOM     31  C   LIG    1       27.492 -20.267   7.032  0.00  0.00    +0.008 C 
BRANCH  31  32
ATOM     32  C   LIG    1       28.960 -20.321   6.577  0.00  0.00    +0.035 C 
BRANCH  32  33
ATOM     33  C   LIG    1       29.833 -19.441   7.444  0.00  0.00    -0.047 A 
ATOM     34  C   LIG    1       31.196 -19.266   7.167  0.00  0.00    +0.003 A 
ATOM     35  C   LIG    1       31.987 -18.463   7.994  0.00  0.00    +0.000 A 
ATOM     36  C   LIG    1       31.426 -17.826   9.099  0.00  0.00    +0.000 A 
ATOM     37  C   LIG    1       30.071 -17.981   9.376  0.00  0.00    +0.000 A 
ATOM     38  C   LIG    1       29.280 -18.777   8.550  0.00  0.00    +0.003 A 
ENDBRANCH  32  33
ENDBRANCH  31  32
ENDBRANCH  30  31
ENDBRANCH  29  30
ENDBRANCH  28  29
ENDBRANCH  25  28
ENDBRANCH   2  22
TORSDOF 9
ENDMDL
MODEL 5
REMARK VINA RESULT:      -9.3      2.325      3.229
REMARK  Name = *****
REMARK                            x       y       z     vdW  Elec       q    Type
REMARK                         _______ _______ _______ _____ _____    ______ ____
ROOT
ATOM      1  O   LIG    1       23.383 -25.609   6.126  0.00  0.00    -0.270 OA
ATOM      2  C   LIG    1       24.587 -25.479   6.388  0.00  0.00    +0.248 C 
ATOM      3  N   LIG    1       25.518 -26.502   6.490  0.00  0.00    -0.279 N 
ATOM      4  H   LIG    1       26.493 -26.246   6.582  0.00  0.00    +0.155 HD
ENDROOT
BRANCH   3   5
ATOM      5  C   LIG    1       25.279 -27.896   6.370  0.00  0.00    +0.077 A 
ATOM      6  C   LIG    1       25.489 -28.731   7.483  0.00  0.00    +0.161 A 
ATOM      7  C   LIG    1       25.254 -30.105   7.377  0.00  0.00    +0.066 A 
ATOM      8  C   LIG    1       25.469 -30.973   8.548  0.00  0.00    +0.193 C 
ATOM      9  C   LIG    1       25.789 -30.290   9.807  0.00  0.00    +0.101 C 
ATOM     10  C   LIG    1       25.992 -28.969   9.795  0.00  0.00    +0.177 C 
ATOM     11  O   LIG    1       25.365 -32.186   8.496  0.00  0.00    -0.287 OA
ATOM     12  C   LIG    1       24.786 -30.664   6.186  0.00  0.00    +0.015 A 
ATOM     13  C   LIG    1       24.554 -29.838   5.093  0.00  0.00    +0.003 A 
ATOM     14  O   LIG    1       25.932 -28.162   8.664  0.00  0.00    -0.450 OA
ATOM     15  C   LIG    1       24.806 -28.466   5.182  0.00  0.00    +0.027 A 
BRANCH  10  16
ATOM     16  C   LIG    1       26.240 -28.300  11.015  0.00  0.00    +0.215 A 
ATOM     17  N   LIG    1       25.350 -28.386  12.048  0.00  0.00    -0.236 N 
ATOM     18  H   LIG    1       24.456 -28.857  12.098  0.00  0.00    +0.192 HD
ATOM     19  N   LIG    1       25.799 -27.700  13.107  0.00  0.00    -0.046 NA
ATOM     20  N   LIG    1       26.949 -27.173  12.713  0.00  0.00    -0.023 NA
ATOM     21  N   LIG    1       27.229 -27.523  11.413  0.00  0.00    -0.105 NA
ENDBRANCH  10  16
ENDBRANCH   3   5
BRANCH   2  22
ATOM     22  C   LIG    1       25.113 -24.098   6.568  0.00  0.00    +0.037 A 
ATOM     23  C   LIG    1       26.155 -23.843   7.471  0.00  0.00    +0.016 A 
ATOM     24  C   LIG    1       26.638 -22.537   7.640  0.00  0.00    +0.046 A 
ATOM     25  C   LIG    1       26.166 -21.499   6.833  0.00  0.00    +0.120 A 
ATOM     26  C   LIG    1       25.143 -21.760   5.923  0.00  0.00    +0.046 A 
ATOM     27  C   LIG    1       24.593 -23.039   5.813  0.00  0.00    +0.016 A 
BRANCH  25  28
ATOM     28  O   LIG    1       26.761 -20.279   7.008  0.00  0.00    -0.492 OA
BRANCH  28  29
ATOM     29  C   LIG    1       28.124 -20.270   7.464  0.00  0.00    +0.229 C 
BRANCH  29  30
ATOM     30  C   LIG    1       28.985 -19.339   6.599  0.00  0.00    +0.041 C 
BRANCH  30  31
ATOM     31  C   LIG    1       30.025 -18.574   7.414  0.00  0.00    +0.008 C 
BRANCH  31  32
ATOM     32  C   LIG    1       29.693 -18.523   8.914  0.00  0.00    +0.035 C 
BRANCH  32  33
ATOM     33  C   LIG    1       30.688 -17.665   9.665  0.00  0.00    -0.047 A 
ATOM     34  C   LIG    1       30.504 -17.349  11.017  0.00  0.00    +0.003 A 
ATOM     35  C   LIG    1       31.427 -16.538  11.684  0.00  0.00    +0.000 A 
ATOM     36  C   LIG    1       32.541 -16.040  11.011  0.00  0.00    +0.000 A 
ATOM     37  C   LIG    1       32.741 -16.359   9.672  0.00  0.00    +0.000 A 
ATOM     38  C   LIG    1       31.825 -17.171   9.006  0.00  0.00    +0.003 A 
ENDBRANCH  32  33
ENDBRANCH  31  32
ENDBRANCH  30  31
ENDBRANCH  29  30
ENDBRANCH  28  29
ENDBRANCH  25  28
ENDBRANCH   2  22
TORSDOF 9
ENDMDL
MODEL 6
REMARK VINA RESULT:      -9.3      2.810      4.995
REMARK  Name = *****
REMARK                            x       y       z     vdW  Elec       q    Type
REMARK                         _______ _______ _______ _____ _____    ______ ____
ROOT
ATOM      1  O   LIG    1       26.108 -30.863   8.052  0.00  0.00    -0.270 OA
ATOM      2  C   LIG    1       25.587 -29.823   8.478  0.00  0.00    +0.248 C 
ATOM      3  N   LIG    1       25.209 -29.573   9.788  0.00  0.00    -0.279 N 
ATOM      4  H   LIG    1       24.912 -28.634  10.023  0.00  0.00    +0.155 HD
ENDROOT
BRANCH   3   5
ATOM      5  C   LIG    1       25.292 -30.464  10.890  0.00  0.00    +0.077 A 
ATOM      6  C   LIG    1       25.732 -29.980  12.137  0.00  0.00    +0.161 A 
ATOM      7  C   LIG    1       25.815 -30.848  13.230  0.00  0.00    +0.066 A 
ATOM      8  C   LIG    1       26.269 -30.334  14.534  0.00  0.00    +0.193 C 
ATOM      9  C   LIG    1       26.472 -28.883  14.621  0.00  0.00    +0.101 C 
ATOM     10  C   LIG    1       26.366 -28.146  13.510  0.00  0.00    +0.177 C 
ATOM     11  O   LIG    1       26.445 -31.055  15.500  0.00  0.00    -0.287 OA
ATOM     12  C   LIG    1       25.442 -32.188  13.113  0.00  0.00    +0.015 A 
ATOM     13  C   LIG    1       24.983 -32.662  11.891  0.00  0.00    +0.003 A 
ATOM     14  O   LIG    1       26.078 -28.645  12.244  0.00  0.00    -0.450 OA
ATOM     15  C   LIG    1       24.917 -31.809  10.785  0.00  0.00    +0.027 A 
BRANCH  10  16
ATOM     16  C   LIG    1       26.501 -26.742  13.601  0.00  0.00    +0.215 A 
ATOM     17  N   LIG    1       27.738 -26.164  13.643  0.00  0.00    -0.236 N 
ATOM     18  H   LIG    1       28.655 -26.592  13.650  0.00  0.00    +0.192 HD
ATOM     19  N   LIG    1       27.627 -24.831  13.702  0.00  0.00    -0.046 NA
ATOM     20  N   LIG    1       26.324 -24.595  13.723  0.00  0.00    -0.023 NA
ATOM     21  N   LIG    1       25.612 -25.770  13.677  0.00  0.00    -0.105 NA
ENDBRANCH  10  16
ENDBRANCH   3   5
BRANCH   2  22
ATOM     22  C   LIG    1       25.379 -28.706   7.515  0.00  0.00    +0.037 A 
ATOM     23  C   LIG    1       26.072 -27.496   7.663  0.00  0.00    +0.016 A 
ATOM     24  C   LIG    1       25.864 -26.447   6.757  0.00  0.00    +0.046 A 
ATOM     25  C   LIG    1       25.050 -26.634   5.636  0.00  0.00    +0.120 A 
ATOM     26  C   LIG    1       24.376 -27.843   5.482  0.00  0.00    +0.046 A 
ATOM     27  C   LIG    1       24.508 -28.861   6.429  0.00  0.00    +0.016 A 
BRANCH  25  28
ATOM     28  O   LIG    1       24.980 -25.584   4.760  0.00  0.00    -0.492 OA
BRANCH  28  29
ATOM     29  C   LIG    1       24.730 -24.280   5.312  0.00  0.00    +0.229 C 
BRANCH  29  30
ATOM     30  C   LIG    1       23.595 -24.331   6.345  0.00  0.00    +0.041 C 
BRANCH  30  31
ATOM     31  C   LIG    1       23.272 -22.959   6.931  0.00  0.00    +0.008 C 
BRANCH  31  32
ATOM     32  C   LIG    1       24.421 -21.951   6.768  0.00  0.00    +0.035 C 
BRANCH  32  33
ATOM     33  C   LIG    1       24.069 -20.879   5.760  0.00  0.00    -0.047 A 
ATOM     34  C   LIG    1       22.807 -20.269   5.755  0.00  0.00    +0.003 A 
ATOM     35  C   LIG    1       22.498 -19.294   4.802  0.00  0.00    +0.000 A 
ATOM     36  C   LIG    1       23.445 -18.916   3.851  0.00  0.00    +0.000 A 
ATOM     37  C   LIG    1       24.706 -19.505   3.856  0.00  0.00    +0.000 A 
ATOM     38  C   LIG    1       25.017 -20.473   4.808  0.00  0.00    +0.003 A 
ENDBRANCH  32  33
ENDBRANCH  31  32
ENDBRANCH  30  31
ENDBRANCH  29  30
ENDBRANCH  28  29
ENDBRANCH  25  28
ENDBRANCH   2  22
TORSDOF 9
ENDMDL
MODEL 7
REMARK VINA RESULT:      -9.1      2.747      4.600
REMARK  Name = *****
REMARK                            x       y       z     vdW  Elec       q    Type
REMARK                         _______ _______ _______ _____ _____    ______ ____
ROOT
ATOM      1  O   LIG    1       25.854 -30.827   7.801  0.00  0.00    -0.270 OA
ATOM      2  C   LIG    1       25.010 -29.944   8.006  0.00  0.00    +0.248 C 
ATOM      3  N   LIG    1       23.998 -29.982   8.953  0.00  0.00    -0.279 N 
ATOM      4  H   LIG    1       23.458 -29.139   9.101  0.00  0.00    +0.155 HD
ENDROOT
BRANCH   3   5
ATOM      5  C   LIG    1       23.691 -31.047   9.839  0.00  0.00    +0.077 A 
ATOM      6  C   LIG    1       24.237 -31.045  11.136  0.00  0.00    +0.161 A 
ATOM      7  C   LIG    1       23.940 -32.088  12.019  0.00  0.00    +0.066 A 
ATOM      8  C   LIG    1       24.509 -32.077  13.378  0.00  0.00    +0.193 C 
ATOM      9  C   LIG    1       25.252 -30.868  13.756  0.00  0.00    +0.101 C 
ATOM     10  C   LIG    1       25.479 -29.931  12.831  0.00  0.00    +0.177 C 
ATOM     11  O   LIG    1       24.358 -32.996  14.162  0.00  0.00    -0.287 OA
ATOM     12  C   LIG    1       23.084 -33.125  11.643  0.00  0.00    +0.015 A 
ATOM     13  C   LIG    1       22.523 -33.117  10.372  0.00  0.00    +0.003 A 
ATOM     14  O   LIG    1       25.067 -30.001  11.504  0.00  0.00    -0.450 OA
ATOM     15  C   LIG    1       22.831 -32.090   9.474  0.00  0.00    +0.027 A 
BRANCH  10  16
ATOM     16  C   LIG    1       26.141 -28.740  13.207  0.00  0.00    +0.215 A 
ATOM     17  N   LIG    1       27.189 -28.774  14.083  0.00  0.00    -0.236 N 
ATOM     18  H   LIG    1       27.596 -29.557  14.577  0.00  0.00    +0.192 HD
ATOM     19  N   LIG    1       27.676 -27.542  14.273  0.00  0.00    -0.046 NA
ATOM     20  N   LIG    1       26.911 -26.751  13.534  0.00  0.00    -0.023 NA
ATOM     21  N   LIG    1       25.945 -27.477  12.880  0.00  0.00    -0.105 NA
ENDBRANCH  10  16
ENDBRANCH   3   5
BRANCH   2  22
ATOM     22  C   LIG    1       25.100 -28.696   7.198  0.00  0.00    +0.037 A 
ATOM     23  C   LIG    1       24.302 -28.523   6.059  0.00  0.00    +0.016 A 
ATOM     24  C   LIG    1       24.400 -27.348   5.300  0.00  0.00    +0.046 A 
ATOM     25  C   LIG    1       25.210 -26.295   5.731  0.00  0.00    +0.120 A 
ATOM     26  C   LIG    1       25.990 -26.463   6.874  0.00  0.00    +0.046 A 
ATOM     27  C   LIG    1       25.965 -27.664   7.585  0.00  0.00    +0.016 A 
BRANCH  25  28
ATOM     28  O   LIG    1       25.172 -25.155   4.974  0.00  0.00    -0.492 OA
BRANCH  28  29
ATOM     29  C   LIG    1       24.994 -23.908   5.667  0.00  0.00    +0.229 C 
BRANCH  29  30
ATOM     30  C   LIG    1       23.636 -23.869   6.384  0.00  0.00    +0.041 C 
BRANCH  30  31
ATOM     31  C   LIG    1       23.406 -22.560   7.134  0.00  0.00    +0.008 C 
BRANCH  31  32
ATOM     32  C   LIG    1       24.505 -21.517   6.873  0.00  0.00    +0.035 C 
BRANCH  32  33
ATOM     33  C   LIG    1       24.111 -20.576   5.755  0.00  0.00    -0.047 A 
ATOM     34  C   LIG    1       25.004 -20.255   4.723  0.00  0.00    +0.003 A 
ATOM     35  C   LIG    1       24.624 -19.369   3.712  0.00  0.00    +0.000 A 
ATOM     36  C   LIG    1       23.352 -18.799   3.717  0.00  0.00    +0.000 A 
ATOM     37  C   LIG    1       22.452 -19.122   4.729  0.00  0.00    +0.000 A 
ATOM     38  C   LIG    1       22.828 -20.009   5.735  0.00  0.00    +0.003 A 
ENDBRANCH  32  33
ENDBRANCH  31  32
ENDBRANCH  30  31
ENDBRANCH  29  30
ENDBRANCH  28  29
ENDBRANCH  25  28
ENDBRANCH   2  22
TORSDOF 9
ENDMDL
MODEL 8
REMARK VINA RESULT:      -9.0      1.449      2.246
REMARK  Name = *****
REMARK                            x       y       z     vdW  Elec       q    Type
REMARK                         _______ _______ _______ _____ _____    ______ ____
ROOT
ATOM      1  O   LIG    1       26.862 -26.695   6.145  0.00  0.00    -0.270 OA
ATOM      2  C   LIG    1       25.687 -26.576   6.518  0.00  0.00    +0.248 C 
ATOM      3  N   LIG    1       24.854 -27.601   6.942  0.00  0.00    -0.279 N 
ATOM      4  H   LIG    1       23.959 -27.347   7.341  0.00  0.00    +0.155 HD
ENDROOT
BRANCH   3   5
ATOM      5  C   LIG    1       25.154 -28.987   6.988  0.00  0.00    +0.077 A 
ATOM      6  C   LIG    1       25.674 -29.542   8.172  0.00  0.00    +0.161 A 
ATOM      7  C   LIG    1       25.971 -30.908   8.229  0.00  0.00    +0.066 A 
ATOM      8  C   LIG    1       26.509 -31.484   9.473  0.00  0.00    +0.193 C 
ATOM      9  C   LIG    1       26.564 -30.583  10.631  0.00  0.00    +0.101 C 
ATOM     10  C   LIG    1       26.257 -29.293  10.463  0.00  0.00    +0.177 C 
ATOM     11  O   LIG    1       26.866 -32.645   9.559  0.00  0.00    -0.287 OA
ATOM     12  C   LIG    1       25.733 -31.740   7.134  0.00  0.00    +0.015 A 
ATOM     13  C   LIG    1       25.195 -31.200   5.972  0.00  0.00    +0.003 A 
ATOM     14  O   LIG    1       25.886 -28.710   9.256  0.00  0.00    -0.450 OA
ATOM     15  C   LIG    1       24.916 -29.832   5.897  0.00  0.00    +0.027 A 
BRANCH  10  16
ATOM     16  C   LIG    1       26.250 -28.436  11.588  0.00  0.00    +0.215 A 
ATOM     17  N   LIG    1       25.331 -28.604  12.584  0.00  0.00    -0.236 N 
ATOM     18  H   LIG    1       24.571 -29.268  12.661  0.00  0.00    +0.192 HD
ATOM     19  N   LIG    1       25.527 -27.703  13.554  0.00  0.00    -0.046 NA
ATOM     20  N   LIG    1       26.548 -26.967  13.140  0.00  0.00    -0.023 NA
ATOM     21  N   LIG    1       26.997 -27.399  11.915  0.00  0.00    -0.105 NA
ENDBRANCH  10  16
ENDBRANCH   3   5
BRANCH   2  22
ATOM     22  C   LIG    1       25.109 -25.204   6.566  0.00  0.00    +0.037 A 
ATOM     23  C   LIG    1       25.929 -24.092   6.802  0.00  0.00    +0.016 A 
ATOM     24  C   LIG    1       25.374 -22.805   6.854  0.00  0.00    +0.046 A 
ATOM     25  C   LIG    1       24.023 -22.606   6.560  0.00  0.00    +0.120 A 
ATOM     26  C   LIG    1       23.214 -23.712   6.308  0.00  0.00    +0.046 A 
ATOM     27  C   LIG    1       23.740 -25.005   6.344  0.00  0.00    +0.016 A 
BRANCH  25  28
ATOM     28  O   LIG    1       23.593 -21.306   6.546  0.00  0.00    -0.492 OA
BRANCH  28  29
ATOM     29  C   LIG    1       22.582 -20.956   5.587  0.00  0.00    +0.229 C 
BRANCH  29  30
ATOM     30  C   LIG    1       22.477 -19.431   5.434  0.00  0.00    +0.041 C 
BRANCH  30  31
ATOM     31  C   LIG    1       22.973 -18.942   4.076  0.00  0.00    +0.008 C 
BRANCH  31  32
ATOM     32  C   LIG    1       24.134 -19.785   3.522  0.00  0.00    +0.035 C 
BRANCH  32  33
ATOM     33  C   LIG    1       25.472 -19.205   3.925  0.00  0.00    -0.047 A 
ATOM     34  C   LIG    1       25.909 -17.968   3.433  0.00  0.00    +0.003 A 
ATOM     35  C   LIG    1       27.158 -17.462   3.806  0.00  0.00    +0.000 A 
ATOM     36  C   LIG    1       27.978 -18.181   4.674  0.00  0.00    +0.000 A 
ATOM     37  C   LIG    1       27.547 -19.404   5.179  0.00  0.00    +0.000 A 
ATOM     38  C   LIG    1       26.301 -19.908   4.813  0.00  0.00    +0.003 A 
ENDBRANCH  32  33
ENDBRANCH  31  32
ENDBRANCH  30  31
ENDBRANCH  29  30
ENDBRANCH  28  29
ENDBRANCH  25  28
ENDBRANCH   2  22
TORSDOF 9
ENDMDL
MODEL 9
REMARK VINA RESULT:      -8.9      2.429      4.242
REMARK  Name = *****
REMARK                            x       y       z     vdW  Elec       q    Type
REMARK                         _______ _______ _______ _____ _____    ______ ____
ROOT
ATOM      1  O   LIG    1       23.542 -30.621   7.547  0.00  0.00    -0.270 OA
ATOM      2  C   LIG    1       24.494 -29.949   7.968  0.00  0.00    +0.248 C 
ATOM      3  N   LIG    1       25.293 -30.254   9.059  0.00  0.00    -0.279 N 
ATOM      4  H   LIG    1       26.116 -29.685   9.215  0.00  0.00    +0.155 HD
ENDROOT
BRANCH   3   5
ATOM      5  C   LIG    1       25.158 -31.359   9.939  0.00  0.00    +0.077 A 
ATOM      6  C   LIG    1       24.510 -31.180  11.176  0.00  0.00    +0.161 A 
ATOM      7  C   LIG    1       24.369 -32.262  12.051  0.00  0.00    +0.066 A 
ATOM      8  C   LIG    1       23.684 -32.070  13.341  0.00  0.00    +0.193 C 
ATOM      9  C   LIG    1       23.063 -30.757  13.553  0.00  0.00    +0.101 C 
ATOM     10  C   LIG    1       23.262 -29.793  12.649  0.00  0.00    +0.177 C 
ATOM     11  O   LIG    1       23.605 -32.949  14.180  0.00  0.00    -0.287 OA
ATOM     12  C   LIG    1       24.840 -33.530  11.706  0.00  0.00    +0.015 A 
ATOM     13  C   LIG    1       25.458 -33.715  10.475  0.00  0.00    +0.003 A 
ATOM     14  O   LIG    1       24.029 -29.923  11.496  0.00  0.00    -0.450 OA
ATOM     15  C   LIG    1       25.623 -32.636   9.603  0.00  0.00    +0.027 A 
BRANCH  10  16
ATOM     16  C   LIG    1       22.616 -28.546  12.820  0.00  0.00    +0.215 A 
ATOM     17  N   LIG    1       21.272 -28.425  12.609  0.00  0.00    -0.236 N 
ATOM     18  H   LIG    1       20.599 -29.114  12.301  0.00  0.00    +0.192 HD
ATOM     19  N   LIG    1       20.874 -27.171  12.853  0.00  0.00    -0.046 NA
ATOM     20  N   LIG    1       21.978 -26.519  13.187  0.00  0.00    -0.023 NA
ATOM     21  N   LIG    1       23.069 -27.354  13.156  0.00  0.00    -0.105 NA
ENDBRANCH  10  16
ENDBRANCH   3   5
BRANCH   2  22
ATOM     22  C   LIG    1       24.858 -28.715   7.217  0.00  0.00    +0.037 A 
ATOM     23  C   LIG    1       24.144 -28.339   6.071  0.00  0.00    +0.016 A 
ATOM     24  C   LIG    1       24.499 -27.180   5.366  0.00  0.00    +0.046 A 
ATOM     25  C   LIG    1       25.492 -26.331   5.860  0.00  0.00    +0.120 A 
ATOM     26  C   LIG    1       26.188 -26.697   7.010  0.00  0.00    +0.046 A 
ATOM     27  C   LIG    1       25.901 -27.896   7.667  0.00  0.00    +0.016 A 
BRANCH  25  28
ATOM     28  O   LIG    1       25.707 -25.178   5.153  0.00  0.00    -0.492 OA
BRANCH  28  29
ATOM     29  C   LIG    1       24.654 -24.199   5.151  0.00  0.00    +0.229 C 
BRANCH  29  30
ATOM     30  C   LIG    1       23.991 -24.105   6.533  0.00  0.00    +0.041 C 
BRANCH  30  31
ATOM     31  C   LIG    1       23.215 -22.805   6.725  0.00  0.00    +0.008 C 
BRANCH  31  32
ATOM     32  C   LIG    1       23.806 -21.630   5.928  0.00  0.00    +0.035 C 
BRANCH  32  33
ATOM     33  C   LIG    1       25.068 -21.107   6.579  0.00  0.00    -0.047 A 
ATOM     34  C   LIG    1       26.163 -20.687   5.813  0.00  0.00    +0.003 A 
ATOM     35  C   LIG    1       27.326 -20.226   6.438  0.00  0.00    +0.000 A 
ATOM     36  C   LIG    1       27.403 -20.175   7.829  0.00  0.00    +0.000 A 
ATOM     37  C   LIG    1       26.316 -20.577   8.599  0.00  0.00    +0.000 A 
ATOM     38  C   LIG    1       25.155 -21.032   7.978  0.00  0.00    +0.003 A 
ENDBRANCH  32  33
ENDBRANCH  31  32
ENDBRANCH  30  31
ENDBRANCH  29  30
ENDBRANCH  28  29
ENDBRANCH  25  28
ENDBRANCH   2  22
TORSDOF 9
ENDMDL
