MODEL 1
REMARK VINA RESULT:      -6.4      0.000      0.000
REMARK  Name = *****
REMARK                            x       y       z     vdW  Elec       q    Type
REMARK                         _______ _______ _______ _____ _____    ______ ____
ROOT
ATOM      1  C   LIG    1       25.078 -29.992   8.602  0.00  0.00    +0.030 A 
ATOM      2  C   LIG    1       26.216 -30.466   9.271  0.00  0.00    +0.027 A 
ATOM      3  C   LIG    1       26.255 -31.711   9.906  0.00  0.00    +0.047 A 
ATOM      4  C   LIG    1       25.147 -32.548   9.907  0.00  0.00    +0.121 A 
ATOM      5  C   LIG    1       23.970 -32.069   9.340  0.00  0.00    +0.047 A 
ATOM      6  C   LIG    1       23.939 -30.809   8.707  0.00  0.00    +0.027 A 
ENDROOT
BRANCH   1  10
ATOM      7  N   LIG    1       25.602 -26.406   6.232  0.00  0.00    -0.327 N 
ATOM      8  C   LIG    1       24.429 -27.284   5.995  0.00  0.00    +0.124 C 
ATOM      9  C   LIG    1       24.659 -28.725   6.511  0.00  0.00    +0.124 C 
ATOM     10  N   LIG    1       25.085 -28.752   7.935  0.00  0.00    -0.327 N 
ATOM     11  C   LIG    1       26.295 -27.909   8.140  0.00  0.00    +0.124 C 
ATOM     12  C   LIG    1       26.080 -26.477   7.635  0.00  0.00    +0.124 C 
BRANCH   7  16
ATOM     13  C   LIG    1       24.722 -22.419   5.020  0.00  0.00    +0.052 A 
ATOM     14  C   LIG    1       25.230 -22.693   6.298  0.00  0.00    +0.028 A 
ATOM     15  C   LIG    1       25.521 -24.010   6.686  0.00  0.00    +0.025 A 
ATOM     16  C   LIG    1       25.309 -25.084   5.814  0.00  0.00    +0.030 A 
ATOM     17  C   LIG    1       24.825 -24.789   4.534  0.00  0.00    +0.025 A 
ATOM     18  C   LIG    1       24.531 -23.488   4.150  0.00  0.00    +0.028 A 
BRANCH  13  22
ATOM     19  N   LIG    1       23.411 -19.210   4.135  0.00  0.00    -0.210 N 
ATOM     20  C   LIG    1       23.171 -20.529   4.569  0.00  0.00    +0.351 C 
ATOM     21  O   LIG    1       22.104 -21.003   4.872  0.00  0.00    -0.244 OA
ATOM     22  N   LIG    1       24.428 -21.108   4.604  0.00  0.00    -0.250 N 
ATOM     23  C   LIG    1       25.283 -20.161   4.190  0.00  0.00    +0.230 C 
ATOM     24  N   LIG    1       24.746 -19.012   3.884  0.00  0.00    -0.157 NA
BRANCH  19  25
ATOM     25  C   LIG    1       22.413 -18.177   3.903  0.00  0.00    +0.109 C 
ATOM     26  C   LIG    1       21.035 -18.804   3.691  0.00  0.00    +0.033 C 
BRANCH  25  28
ATOM     27  C   LIG    1       22.893 -15.767   4.598  0.00  0.00    +0.006 C 
ATOM     28  C   LIG    1       22.375 -17.132   5.036  0.00  0.00    +0.023 C 
ENDBRANCH  25  28
ENDBRANCH  19  25
ENDBRANCH  13  22
ENDBRANCH   7  16
ENDBRANCH   1  10
BRANCH   4  29
ATOM     29  O   LIG    1       25.128 -33.808  10.452  0.00  0.00    -0.489 OA
BRANCH  29  30
ATOM     30  C   LIG    1       25.112 -33.825  11.892  0.00  0.00    +0.263 C 
BRANCH  30  31
ATOM     31  C   LIG    1       23.947 -33.007  12.449  0.00  0.00    +0.185 C 
ATOM     32  O   LIG    1       24.429 -31.819  13.086  0.00  0.00    -0.334 OA
ATOM     33  C   LIG    1       23.548 -31.533  14.201  0.00  0.00    +0.219 C 
ATOM     34  O   LIG    1       22.627 -32.642  14.314  0.00  0.00    -0.341 OA
ATOM     35  C   LIG    1       23.213 -33.711  13.566  0.00  0.00    +0.198 C 
BRANCH  33  36
ATOM     36  C   LIG    1       22.744 -30.250  13.921  0.00  0.00    +0.031 A 
ATOM     37  C   LIG    1       23.154 -29.214  13.053  0.00  0.00    +0.051 A 
ATOM     38 CL   LIG    1       24.662 -29.241  12.210  0.00  0.00    -0.083 Cl
ATOM     39  C   LIG    1       22.332 -28.098  12.806  0.00  0.00    +0.040 A 
ATOM     40  C   LIG    1       21.092 -27.991  13.425  0.00  0.00    +0.042 A 
ATOM     41 CL   LIG    1       20.089 -26.625  13.130  0.00  0.00    -0.084 Cl
ATOM     42  C   LIG    1       20.663 -28.986  14.289  0.00  0.00    +0.020 A 
ATOM     43  C   LIG    1       21.481 -30.093  14.536  0.00  0.00    +0.012 A 
ENDBRANCH  33  36
BRANCH  33  44
ATOM     44  C   LIG    1       24.447 -31.487  15.463  0.00  0.00    +0.215 C 
BRANCH  44  45
ATOM     45  N   LIG    1       25.845 -31.237  15.185  0.00  0.00    -0.246 N 
ATOM     46  N   LIG    1       26.319 -29.980  15.070  0.00  0.00    -0.158 NA
ATOM     47  C   LIG    1       27.622 -30.207  14.886  0.00  0.00    +0.244 A 
ATOM     48  N   LIG    1       27.978 -31.523  14.802  0.00  0.00    -0.223 NA
ATOM     49  C   LIG    1       26.832 -32.145  14.955  0.00  0.00    +0.219 A 
ENDBRANCH  44  45
ENDBRANCH  33  44
ENDBRANCH  30  31
ENDBRANCH  29  30
ENDBRANCH   4  29
TORSDOF 11
ENDMDL
MODEL 2
REMARK VINA RESULT:      -6.1      2.123      2.887
REMARK  Name = *****
REMARK                            x       y       z     vdW  Elec       q    Type
REMARK                         _______ _______ _______ _____ _____    ______ ____
ROOT
ATOM      1  C   LIG    1       25.019 -30.084   8.724  0.00  0.00    +0.030 A 
ATOM      2  C   LIG    1       24.026 -31.041   8.464  0.00  0.00    +0.027 A 
ATOM      3  C   LIG    1       23.948 -32.255   9.152  0.00  0.00    +0.047 A 
ATOM      4  C   LIG    1       24.871 -32.578  10.138  0.00  0.00    +0.121 A 
ATOM      5  C   LIG    1       25.928 -31.698  10.353  0.00  0.00    +0.047 A 
ATOM      6  C   LIG    1       26.001 -30.479   9.650  0.00  0.00    +0.027 A 
ENDROOT
BRANCH   1  10
ATOM      7  N   LIG    1       25.592 -26.533   6.312  0.00  0.00    -0.327 N 
ATOM      8  C   LIG    1       24.398 -27.389   6.097  0.00  0.00    +0.124 C 
ATOM      9  C   LIG    1       24.604 -28.830   6.624  0.00  0.00    +0.124 C 
ATOM     10  N   LIG    1       25.044 -28.852   8.044  0.00  0.00    -0.327 N 
ATOM     11  C   LIG    1       26.274 -28.032   8.228  0.00  0.00    +0.124 C 
ATOM     12  C   LIG    1       26.083 -26.601   7.711  0.00  0.00    +0.124 C 
BRANCH   7  16
ATOM     13  C   LIG    1       24.785 -22.541   5.069  0.00  0.00    +0.052 A 
ATOM     14  C   LIG    1       25.357 -22.809   6.321  0.00  0.00    +0.028 A 
ATOM     15  C   LIG    1       25.622 -24.128   6.720  0.00  0.00    +0.025 A 
ATOM     16  C   LIG    1       25.322 -25.210   5.884  0.00  0.00    +0.030 A 
ATOM     17  C   LIG    1       24.776 -24.922   4.629  0.00  0.00    +0.025 A 
ATOM     18  C   LIG    1       24.505 -23.619   4.234  0.00  0.00    +0.028 A 
BRANCH  13  22
ATOM     19  N   LIG    1       23.534 -19.311   4.174  0.00  0.00    -0.210 N 
ATOM     20  C   LIG    1       23.272 -20.617   4.631  0.00  0.00    +0.351 C 
ATOM     21  O   LIG    1       22.201 -21.060   4.966  0.00  0.00    -0.244 OA
ATOM     22  N   LIG    1       24.514 -21.228   4.643  0.00  0.00    -0.250 N 
ATOM     23  C   LIG    1       25.381 -20.309   4.196  0.00  0.00    +0.230 C 
ATOM     24  N   LIG    1       24.866 -19.150   3.887  0.00  0.00    -0.157 NA
BRANCH  19  25
ATOM     25  C   LIG    1       22.557 -18.255   3.953  0.00  0.00    +0.109 C 
ATOM     26  C   LIG    1       21.171 -18.854   3.712  0.00  0.00    +0.033 C 
BRANCH  25  28
ATOM     27  C   LIG    1       22.661 -15.794   4.626  0.00  0.00    +0.006 C 
ATOM     28  C   LIG    1       22.524 -17.234   5.107  0.00  0.00    +0.023 C 
ENDBRANCH  25  28
ENDBRANCH  19  25
ENDBRANCH  13  22
ENDBRANCH   7  16
ENDBRANCH   1  10
BRANCH   4  29
ATOM     29  O   LIG    1       24.824 -33.719  10.900  0.00  0.00    -0.489 OA
BRANCH  29  30
ATOM     30  C   LIG    1       25.087 -33.502  12.300  0.00  0.00    +0.263 C 
BRANCH  30  31
ATOM     31  C   LIG    1       23.876 -32.896  13.010  0.00  0.00    +0.185 C 
ATOM     32  O   LIG    1       23.005 -32.266  12.064  0.00  0.00    -0.334 OA
ATOM     33  C   LIG    1       22.408 -31.118  12.716  0.00  0.00    +0.219 C 
ATOM     34  O   LIG    1       23.044 -30.981  14.008  0.00  0.00    -0.341 OA
ATOM     35  C   LIG    1       24.242 -31.759  13.935  0.00  0.00    +0.198 C 
BRANCH  33  36
ATOM     36  C   LIG    1       20.902 -31.358  12.931  0.00  0.00    +0.031 A 
ATOM     37  C   LIG    1       19.931 -31.359  11.906  0.00  0.00    +0.051 A 
ATOM     38 CL   LIG    1       20.316 -31.045  10.250  0.00  0.00    -0.083 Cl
ATOM     39  C   LIG    1       18.580 -31.645  12.178  0.00  0.00    +0.040 A 
ATOM     40  C   LIG    1       18.171 -31.927  13.477  0.00  0.00    +0.042 A 
ATOM     41 CL   LIG    1       16.520 -32.269  13.813  0.00  0.00    -0.084 Cl
ATOM     42  C   LIG    1       19.097 -31.924  14.508  0.00  0.00    +0.020 A 
ATOM     43  C   LIG    1       20.439 -31.637  14.237  0.00  0.00    +0.012 A 
ENDBRANCH  33  36
BRANCH  33  44
ATOM     44  C   LIG    1       22.763 -29.889  11.841  0.00  0.00    +0.215 C 
BRANCH  44  45
ATOM     45  N   LIG    1       22.561 -28.616  12.499  0.00  0.00    -0.246 N 
ATOM     46  N   LIG    1       23.606 -27.860  12.891  0.00  0.00    -0.158 NA
ATOM     47  C   LIG    1       22.983 -26.781  13.374  0.00  0.00    +0.244 A 
ATOM     48  N   LIG    1       21.619 -26.850  13.379  0.00  0.00    -0.223 NA
ATOM     49  C   LIG    1       21.385 -28.032  12.859  0.00  0.00    +0.219 A 
ENDBRANCH  44  45
ENDBRANCH  33  44
ENDBRANCH  30  31
ENDBRANCH  29  30
ENDBRANCH   4  29
TORSDOF 11
ENDMDL
MODEL 3
REMARK VINA RESULT:      -6.1      2.035      3.221
REMARK  Name = *****
REMARK                            x       y       z     vdW  Elec       q    Type
REMARK                         _______ _______ _______ _____ _____    ______ ____
ROOT
ATOM      1  C   LIG    1       25.053 -28.325   7.291  0.00  0.00    +0.030 A 
ATOM      2  C   LIG    1       24.355 -29.385   6.694  0.00  0.00    +0.027 A 
ATOM      3  C   LIG    1       24.379 -30.688   7.203  0.00  0.00    +0.047 A 
ATOM      4  C   LIG    1       25.114 -30.996   8.340  0.00  0.00    +0.121 A 
ATOM      5  C   LIG    1       25.898 -29.993   8.901  0.00  0.00    +0.047 A 
ATOM      6  C   LIG    1       25.872 -28.684   8.377  0.00  0.00    +0.027 A 
ENDROOT
BRANCH   1  10
ATOM      7  N   LIG    1       25.238 -24.491   5.287  0.00  0.00    -0.327 N 
ATOM      8  C   LIG    1       24.015 -25.325   5.176  0.00  0.00    +0.124 C 
ATOM      9  C   LIG    1       24.293 -26.819   5.473  0.00  0.00    +0.124 C 
ATOM     10  N   LIG    1       24.974 -27.016   6.779  0.00  0.00    -0.327 N 
ATOM     11  C   LIG    1       26.226 -26.213   6.848  0.00  0.00    +0.124 C 
ATOM     12  C   LIG    1       25.965 -24.730   6.558  0.00  0.00    +0.124 C 
BRANCH   7  16
ATOM     13  C   LIG    1       24.254 -20.400   4.629  0.00  0.00    +0.052 A 
ATOM     14  C   LIG    1       24.001 -21.373   3.651  0.00  0.00    +0.028 A 
ATOM     15  C   LIG    1       24.326 -22.719   3.880  0.00  0.00    +0.025 A 
ATOM     16  C   LIG    1       24.912 -23.127   5.084  0.00  0.00    +0.030 A 
ATOM     17  C   LIG    1       25.133 -22.147   6.057  0.00  0.00    +0.025 A 
ATOM     18  C   LIG    1       24.820 -20.813   5.832  0.00  0.00    +0.028 A 
BRANCH  13  22
ATOM     19  N   LIG    1       23.986 -16.914   3.871  0.00  0.00    -0.210 N 
ATOM     20  C   LIG    1       24.782 -18.074   3.926  0.00  0.00    +0.351 C 
ATOM     21  O   LIG    1       25.931 -18.175   3.572  0.00  0.00    -0.244 OA
ATOM     22  N   LIG    1       23.933 -19.045   4.428  0.00  0.00    -0.250 N 
ATOM     23  C   LIG    1       22.761 -18.432   4.649  0.00  0.00    +0.230 C 
ATOM     24  N   LIG    1       22.724 -17.162   4.351  0.00  0.00    -0.157 NA
BRANCH  19  25
ATOM     25  C   LIG    1       24.408 -15.590   3.436  0.00  0.00    +0.109 C 
ATOM     26  C   LIG    1       23.706 -14.511   4.261  0.00  0.00    +0.033 C 
BRANCH  25  28
ATOM     27  C   LIG    1       26.360 -14.063   4.048  0.00  0.00    +0.006 C 
ATOM     28  C   LIG    1       25.938 -15.416   3.485  0.00  0.00    +0.023 C 
ENDBRANCH  25  28
ENDBRANCH  19  25
ENDBRANCH  13  22
ENDBRANCH   7  16
ENDBRANCH   1  10
BRANCH   4  29
ATOM     29  O   LIG    1       25.135 -32.233   8.936  0.00  0.00    -0.489 OA
BRANCH  29  30
ATOM     30  C   LIG    1       24.163 -32.396   9.987  0.00  0.00    +0.263 C 
BRANCH  30  31
ATOM     31  C   LIG    1       23.615 -31.048  10.456  0.00  0.00    +0.185 C 
ATOM     32  O   LIG    1       23.919 -30.838  11.839  0.00  0.00    -0.334 OA
ATOM     33  C   LIG    1       22.821 -30.091  12.420  0.00  0.00    +0.219 C 
ATOM     34  O   LIG    1       21.792 -29.987  11.409  0.00  0.00    -0.341 OA
ATOM     35  C   LIG    1       22.106 -30.984  10.432  0.00  0.00    +0.198 C 
BRANCH  33  36
ATOM     36  C   LIG    1       23.290 -28.673  12.794  0.00  0.00    +0.031 A 
ATOM     37  C   LIG    1       22.432 -27.595  13.105  0.00  0.00    +0.051 A 
ATOM     38 CL   LIG    1       20.710 -27.728  13.065  0.00  0.00    -0.083 Cl
ATOM     39  C   LIG    1       22.943 -26.342  13.494  0.00  0.00    +0.040 A 
ATOM     40  C   LIG    1       24.316 -26.139  13.573  0.00  0.00    +0.042 A 
ATOM     41 CL   LIG    1       24.942 -24.607  14.041  0.00  0.00    -0.084 Cl
ATOM     42  C   LIG    1       25.186 -27.173  13.265  0.00  0.00    +0.020 A 
ATOM     43  C   LIG    1       24.678 -28.416  12.876  0.00  0.00    +0.012 A 
ENDBRANCH  33  36
BRANCH  33  44
ATOM     44  C   LIG    1       22.291 -30.945  13.600  0.00  0.00    +0.215 C 
BRANCH  44  45
ATOM     45  N   LIG    1       23.279 -31.828  14.182  0.00  0.00    -0.246 N 
ATOM     46  N   LIG    1       23.209 -33.163  14.007  0.00  0.00    -0.158 NA
ATOM     47  C   LIG    1       24.316 -33.568  14.635  0.00  0.00    +0.244 A 
ATOM     48  N   LIG    1       25.028 -32.581  15.254  0.00  0.00    -0.223 NA
ATOM     49  C   LIG    1       24.328 -31.504  14.984  0.00  0.00    +0.219 A 
ENDBRANCH  44  45
ENDBRANCH  33  44
ENDBRANCH  30  31
ENDBRANCH  29  30
ENDBRANCH   4  29
TORSDOF 11
ENDMDL
MODEL 4
REMARK VINA RESULT:      -6.0      1.694      2.535
REMARK  Name = *****
REMARK                            x       y       z     vdW  Elec       q    Type
REMARK                         _______ _______ _______ _____ _____    ______ ____
ROOT
ATOM      1  C   LIG    1       25.264 -28.170   7.665  0.00  0.00    +0.030 A 
ATOM      2  C   LIG    1       24.412 -29.226   7.308  0.00  0.00    +0.027 A 
ATOM      3  C   LIG    1       24.490 -30.492   7.897  0.00  0.00    +0.047 A 
ATOM      4  C   LIG    1       25.435 -30.767   8.877  0.00  0.00    +0.121 A 
ATOM      5  C   LIG    1       26.361 -29.775   9.184  0.00  0.00    +0.047 A 
ATOM      6  C   LIG    1       26.278 -28.504   8.581  0.00  0.00    +0.027 A 
ENDROOT
BRANCH   1  10
ATOM      7  N   LIG    1       25.178 -24.490   5.385  0.00  0.00    -0.327 N 
ATOM      8  C   LIG    1       23.926 -25.260   5.594  0.00  0.00    +0.124 C 
ATOM      9  C   LIG    1       24.198 -26.745   5.938  0.00  0.00    +0.124 C 
ATOM     10  N   LIG    1       25.132 -26.895   7.085  0.00  0.00    -0.327 N 
ATOM     11  C   LIG    1       26.403 -26.161   6.831  0.00  0.00    +0.124 C 
ATOM     12  C   LIG    1       26.147 -24.687   6.491  0.00  0.00    +0.124 C 
BRANCH   7  16
ATOM     13  C   LIG    1       24.255 -20.400   4.639  0.00  0.00    +0.052 A 
ATOM     14  C   LIG    1       23.968 -21.393   3.690  0.00  0.00    +0.028 A 
ATOM     15  C   LIG    1       24.273 -22.738   3.948  0.00  0.00    +0.025 A 
ATOM     16  C   LIG    1       24.873 -23.126   5.152  0.00  0.00    +0.030 A 
ATOM     17  C   LIG    1       25.127 -22.126   6.096  0.00  0.00    +0.025 A 
ATOM     18  C   LIG    1       24.834 -20.793   5.842  0.00  0.00    +0.028 A 
BRANCH  13  22
ATOM     19  N   LIG    1       24.046 -16.924   3.820  0.00  0.00    -0.210 N 
ATOM     20  C   LIG    1       24.827 -18.092   3.914  0.00  0.00    +0.351 C 
ATOM     21  O   LIG    1       25.984 -18.210   3.592  0.00  0.00    -0.244 OA
ATOM     22  N   LIG    1       23.954 -19.045   4.408  0.00  0.00    -0.250 N 
ATOM     23  C   LIG    1       22.784 -18.416   4.589  0.00  0.00    +0.230 C 
ATOM     24  N   LIG    1       22.769 -17.150   4.271  0.00  0.00    -0.157 NA
BRANCH  19  25
ATOM     25  C   LIG    1       24.493 -15.612   3.376  0.00  0.00    +0.109 C 
ATOM     26  C   LIG    1       23.815 -14.513   4.195  0.00  0.00    +0.033 C 
BRANCH  25  28
ATOM     27  C   LIG    1       26.495 -14.043   3.144  0.00  0.00    +0.006 C 
ATOM     28  C   LIG    1       26.027 -15.468   3.422  0.00  0.00    +0.023 C 
ENDBRANCH  25  28
ENDBRANCH  19  25
ENDBRANCH  13  22
ENDBRANCH   7  16
ENDBRANCH   1  10
BRANCH   4  29
ATOM     29  O   LIG    1       25.532 -31.963   9.546  0.00  0.00    -0.489 OA
BRANCH  29  30
ATOM     30  C   LIG    1       25.720 -31.825  10.968  0.00  0.00    +0.263 C 
BRANCH  30  31
ATOM     31  C   LIG    1       24.452 -31.318  11.654  0.00  0.00    +0.185 C 
ATOM     32  O   LIG    1       24.720 -30.109  12.371  0.00  0.00    -0.334 OA
ATOM     33  C   LIG    1       23.878 -30.103  13.550  0.00  0.00    +0.219 C 
ATOM     34  O   LIG    1       23.215 -31.387  13.609  0.00  0.00    -0.341 OA
ATOM     35  C   LIG    1       23.957 -32.247  12.738  0.00  0.00    +0.198 C 
BRANCH  33  36
ATOM     36  C   LIG    1       22.809 -29.002  13.428  0.00  0.00    +0.031 A 
ATOM     37  C   LIG    1       23.082 -27.620  13.325  0.00  0.00    +0.051 A 
ATOM     38 CL   LIG    1       24.685 -26.977  13.364  0.00  0.00    -0.083 Cl
ATOM     39  C   LIG    1       22.047 -26.680  13.158  0.00  0.00    +0.040 A 
ATOM     40  C   LIG    1       20.722 -27.100  13.098  0.00  0.00    +0.042 A 
ATOM     41 CL   LIG    1       19.456 -25.953  12.901  0.00  0.00    -0.084 Cl
ATOM     42  C   LIG    1       20.420 -28.448  13.206  0.00  0.00    +0.020 A 
ATOM     43  C   LIG    1       21.448 -29.381  13.375  0.00  0.00    +0.012 A 
ENDBRANCH  33  36
BRANCH  33  44
ATOM     44  C   LIG    1       24.832 -29.967  14.765  0.00  0.00    +0.215 C 
BRANCH  44  45
ATOM     45  N   LIG    1       26.236 -30.072  14.429  0.00  0.00    -0.246 N 
ATOM     46  N   LIG    1       26.888 -29.051  13.837  0.00  0.00    -0.158 NA
ATOM     47  C   LIG    1       28.131 -29.537  13.773  0.00  0.00    +0.244 A 
ATOM     48  N   LIG    1       28.277 -30.821  14.214  0.00  0.00    -0.223 NA
ATOM     49  C   LIG    1       27.060 -31.143  14.584  0.00  0.00    +0.219 A 
ENDBRANCH  44  45
ENDBRANCH  33  44
ENDBRANCH  30  31
ENDBRANCH  29  30
ENDBRANCH   4  29
TORSDOF 11
ENDMDL
MODEL 5
REMARK VINA RESULT:      -5.9      2.628      3.513
REMARK  Name = *****
REMARK                            x       y       z     vdW  Elec       q    Type
REMARK                         _______ _______ _______ _____ _____    ______ ____
ROOT
ATOM      1  C   LIG    1       24.980 -28.979   7.128  0.00  0.00    +0.030 A 
ATOM      2  C   LIG    1       24.444 -30.014   6.348  0.00  0.00    +0.027 A 
ATOM      3  C   LIG    1       24.446 -31.350   6.760  0.00  0.00    +0.047 A 
ATOM      4  C   LIG    1       24.994 -31.719   7.982  0.00  0.00    +0.121 A 
ATOM      5  C   LIG    1       25.623 -30.735   8.737  0.00  0.00    +0.047 A 
ATOM      6  C   LIG    1       25.622 -29.392   8.310  0.00  0.00    +0.027 A 
ENDROOT
BRANCH   1  10
ATOM      7  N   LIG    1       25.372 -24.965   5.550  0.00  0.00    -0.327 N 
ATOM      8  C   LIG    1       24.355 -25.887   4.984  0.00  0.00    +0.124 C 
ATOM      9  C   LIG    1       24.688 -27.373   5.261  0.00  0.00    +0.124 C 
ATOM     10  N   LIG    1       24.924 -27.638   6.704  0.00  0.00    -0.327 N 
ATOM     11  C   LIG    1       25.986 -26.741   7.239  0.00  0.00    +0.124 C 
ATOM     12  C   LIG    1       25.668 -25.264   6.973  0.00  0.00    +0.124 C 
BRANCH   7  16
ATOM     13  C   LIG    1       24.186 -20.933   4.863  0.00  0.00    +0.052 A 
ATOM     14  C   LIG    1       24.021 -21.916   3.876  0.00  0.00    +0.028 A 
ATOM     15  C   LIG    1       24.412 -23.243   4.114  0.00  0.00    +0.025 A 
ATOM     16  C   LIG    1       24.978 -23.621   5.337  0.00  0.00    +0.030 A 
ATOM     17  C   LIG    1       25.111 -22.633   6.319  0.00  0.00    +0.025 A 
ATOM     18  C   LIG    1       24.732 -21.318   6.084  0.00  0.00    +0.028 A 
BRANCH  13  22
ATOM     19  N   LIG    1       23.726 -17.481   4.044  0.00  0.00    -0.210 N 
ATOM     20  C   LIG    1       24.571 -18.608   4.073  0.00  0.00    +0.351 C 
ATOM     21  O   LIG    1       25.698 -18.672   3.646  0.00  0.00    -0.244 OA
ATOM     22  N   LIG    1       23.797 -19.598   4.652  0.00  0.00    -0.250 N 
ATOM     23  C   LIG    1       22.618 -19.026   4.936  0.00  0.00    +0.230 C 
ATOM     24  N   LIG    1       22.509 -17.766   4.613  0.00  0.00    -0.157 NA
BRANCH  19  25
ATOM     25  C   LIG    1       24.064 -16.154   3.552  0.00  0.00    +0.109 C 
ATOM     26  C   LIG    1       23.323 -15.084   4.355  0.00  0.00    +0.033 C 
BRANCH  25  28
ATOM     27  C   LIG    1       25.931 -14.420   3.384  0.00  0.00    +0.006 C 
ATOM     28  C   LIG    1       25.583 -15.895   3.556  0.00  0.00    +0.023 C 
ENDBRANCH  25  28
ENDBRANCH  19  25
ENDBRANCH  13  22
ENDBRANCH   7  16
ENDBRANCH   1  10
BRANCH   4  29
ATOM     29  O   LIG    1       24.975 -32.998   8.484  0.00  0.00    -0.489 OA
BRANCH  29  30
ATOM     30  C   LIG    1       23.685 -33.635   8.419  0.00  0.00    +0.263 C 
BRANCH  30  31
ATOM     31  C   LIG    1       22.844 -33.326   9.657  0.00  0.00    +0.185 C 
ATOM     32  O   LIG    1       22.093 -32.123   9.465  0.00  0.00    -0.334 OA
ATOM     33  C   LIG    1       21.993 -31.459  10.750  0.00  0.00    +0.219 C 
ATOM     34  O   LIG    1       22.817 -32.200  11.679  0.00  0.00    -0.341 OA
ATOM     35  C   LIG    1       23.681 -33.007  10.874  0.00  0.00    +0.198 C 
BRANCH  33  36
ATOM     36  C   LIG    1       20.536 -31.493  11.247  0.00  0.00    +0.031 A 
ATOM     37  C   LIG    1       20.147 -31.540  12.604  0.00  0.00    +0.051 A 
ATOM     38 CL   LIG    1       21.285 -31.605  13.902  0.00  0.00    -0.083 Cl
ATOM     39  C   LIG    1       18.790 -31.510  12.978  0.00  0.00    +0.040 A 
ATOM     40  C   LIG    1       17.797 -31.442  12.006  0.00  0.00    +0.042 A 
ATOM     41 CL   LIG    1       16.139 -31.413  12.461  0.00  0.00    -0.084 Cl
ATOM     42  C   LIG    1       18.144 -31.404  10.666  0.00  0.00    +0.020 A 
ATOM     43  C   LIG    1       19.492 -31.436  10.295  0.00  0.00    +0.012 A 
ENDBRANCH  33  36
BRANCH  33  44
ATOM     44  C   LIG    1       22.592 -30.043  10.555  0.00  0.00    +0.215 C 
BRANCH  44  45
ATOM     45  N   LIG    1       23.056 -29.424  11.779  0.00  0.00    -0.246 N 
ATOM     46  N   LIG    1       22.255 -28.609  12.494  0.00  0.00    -0.158 NA
ATOM     47  C   LIG    1       23.036 -28.326  13.541  0.00  0.00    +0.244 A 
ATOM     48  N   LIG    1       24.296 -28.850  13.484  0.00  0.00    -0.223 NA
ATOM     49  C   LIG    1       24.290 -29.502  12.346  0.00  0.00    +0.219 A 
ENDBRANCH  44  45
ENDBRANCH  33  44
ENDBRANCH  30  31
ENDBRANCH  29  30
ENDBRANCH   4  29
TORSDOF 11
ENDMDL
MODEL 6
REMARK VINA RESULT:      -5.8      2.529      3.414
REMARK  Name = *****
REMARK                            x       y       z     vdW  Elec       q    Type
REMARK                         _______ _______ _______ _____ _____    ______ ____
ROOT
ATOM      1  C   LIG    1       25.375 -30.524  10.268  0.00  0.00    +0.030 A 
ATOM      2  C   LIG    1       25.812 -30.369  11.592  0.00  0.00    +0.027 A 
ATOM      3  C   LIG    1       25.874 -31.432  12.497  0.00  0.00    +0.047 A 
ATOM      4  C   LIG    1       25.495 -32.714  12.120  0.00  0.00    +0.121 A 
ATOM      5  C   LIG    1       24.963 -32.887  10.846  0.00  0.00    +0.047 A 
ATOM      6  C   LIG    1       24.898 -31.807   9.943  0.00  0.00    +0.027 A 
ENDROOT
BRANCH   1  10
ATOM      7  N   LIG    1       25.802 -27.511   7.187  0.00  0.00    -0.327 N 
ATOM      8  C   LIG    1       24.575 -28.344   7.242  0.00  0.00    +0.124 C 
ATOM      9  C   LIG    1       24.795 -29.668   8.013  0.00  0.00    +0.124 C 
ATOM     10  N   LIG    1       25.365 -29.442   9.368  0.00  0.00    -0.327 N 
ATOM     11  C   LIG    1       26.625 -28.652   9.286  0.00  0.00    +0.124 C 
ATOM     12  C   LIG    1       26.419 -27.336   8.525  0.00  0.00    +0.124 C 
BRANCH   7  16
ATOM     13  C   LIG    1       24.962 -23.793   5.288  0.00  0.00    +0.052 A 
ATOM     14  C   LIG    1       25.375 -23.846   6.627  0.00  0.00    +0.028 A 
ATOM     15  C   LIG    1       25.652 -25.077   7.243  0.00  0.00    +0.025 A 
ATOM     16  C   LIG    1       25.523 -26.281   6.541  0.00  0.00    +0.030 A 
ATOM     17  C   LIG    1       25.136 -26.207   5.199  0.00  0.00    +0.025 A 
ATOM     18  C   LIG    1       24.853 -24.992   4.590  0.00  0.00    +0.028 A 
BRANCH  13  22
ATOM     19  N   LIG    1       24.489 -20.436   4.147  0.00  0.00    -0.210 N 
ATOM     20  C   LIG    1       24.859 -21.311   5.186  0.00  0.00    +0.351 C 
ATOM     21  O   LIG    1       25.271 -20.999   6.276  0.00  0.00    -0.244 OA
ATOM     22  N   LIG    1       24.682 -22.573   4.646  0.00  0.00    -0.250 N 
ATOM     23  C   LIG    1       24.222 -22.381   3.401  0.00  0.00    +0.230 C 
ATOM     24  N   LIG    1       24.072 -21.135   3.041  0.00  0.00    -0.157 NA
BRANCH  19  25
ATOM     25  C   LIG    1       24.468 -18.981   4.201  0.00  0.00    +0.109 C 
ATOM     26  C   LIG    1       25.652 -18.402   3.428  0.00  0.00    +0.033 C 
BRANCH  25  28
ATOM     27  C   LIG    1       22.066 -18.333   4.779  0.00  0.00    +0.006 C 
ATOM     28  C   LIG    1       23.136 -18.394   3.694  0.00  0.00    +0.023 C 
ENDBRANCH  25  28
ENDBRANCH  19  25
ENDBRANCH  13  22
ENDBRANCH   7  16
ENDBRANCH   1  10
BRANCH   4  29
ATOM     29  O   LIG    1       25.589 -33.819  12.930  0.00  0.00    -0.489 OA
BRANCH  29  30
ATOM     30  C   LIG    1       24.861 -33.702  14.168  0.00  0.00    +0.263 C 
BRANCH  30  31
ATOM     31  C   LIG    1       23.358 -33.567  13.924  0.00  0.00    +0.185 C 
ATOM     32  O   LIG    1       23.024 -32.214  13.597  0.00  0.00    -0.334 OA
ATOM     33  C   LIG    1       21.708 -31.945  14.142  0.00  0.00    +0.219 C 
ATOM     34  O   LIG    1       21.325 -33.099  14.924  0.00  0.00    -0.341 OA
ATOM     35  C   LIG    1       22.534 -33.825  15.163  0.00  0.00    +0.198 C 
BRANCH  33  36
ATOM     36  C   LIG    1       20.693 -31.764  12.999  0.00  0.00    +0.031 A 
ATOM     37  C   LIG    1       19.290 -31.843  13.146  0.00  0.00    +0.051 A 
ATOM     38 CL   LIG    1       18.525 -32.198  14.653  0.00  0.00    -0.083 Cl
ATOM     39  C   LIG    1       18.426 -31.607  12.059  0.00  0.00    +0.040 A 
ATOM     40  C   LIG    1       18.945 -31.298  10.806  0.00  0.00    +0.042 A 
ATOM     41 CL   LIG    1       17.892 -31.017   9.476  0.00  0.00    -0.084 Cl
ATOM     42  C   LIG    1       20.317 -31.222  10.626  0.00  0.00    +0.020 A 
ATOM     43  C   LIG    1       21.174 -31.459  11.705  0.00  0.00    +0.012 A 
ENDBRANCH  33  36
BRANCH  33  44
ATOM     44  C   LIG    1       21.869 -30.723  15.083  0.00  0.00    +0.215 C 
BRANCH  44  45
ATOM     45  N   LIG    1       21.485 -29.462  14.485  0.00  0.00    -0.246 N 
ATOM     46  N   LIG    1       22.328 -28.789  13.676  0.00  0.00    -0.158 NA
ATOM     47  C   LIG    1       21.569 -27.753  13.310  0.00  0.00    +0.244 A 
ATOM     48  N   LIG    1       20.338 -27.697  13.898  0.00  0.00    -0.223 NA
ATOM     49  C   LIG    1       20.331 -28.764  14.662  0.00  0.00    +0.219 A 
ENDBRANCH  44  45
ENDBRANCH  33  44
ENDBRANCH  30  31
ENDBRANCH  29  30
ENDBRANCH   4  29
TORSDOF 11
ENDMDL
MODEL 7
REMARK VINA RESULT:      -5.8      2.490      4.177
REMARK  Name = *****
REMARK                            x       y       z     vdW  Elec       q    Type
REMARK                         _______ _______ _______ _____ _____    ______ ____
ROOT
ATOM      1  C   LIG    1       24.950 -26.580   6.514  0.00  0.00    +0.030 A 
ATOM      2  C   LIG    1       24.287 -27.674   5.937  0.00  0.00    +0.027 A 
ATOM      3  C   LIG    1       24.514 -28.993   6.341  0.00  0.00    +0.047 A 
ATOM      4  C   LIG    1       25.426 -29.285   7.347  0.00  0.00    +0.121 A 
ATOM      5  C   LIG    1       26.174 -28.237   7.872  0.00  0.00    +0.047 A 
ATOM      6  C   LIG    1       25.942 -26.910   7.454  0.00  0.00    +0.027 A 
ENDROOT
BRANCH   1  10
ATOM      7  N   LIG    1       23.624 -22.776   4.926  0.00  0.00    -0.327 N 
ATOM      8  C   LIG    1       23.377 -23.109   6.352  0.00  0.00    +0.124 C 
ATOM      9  C   LIG    1       23.416 -24.633   6.615  0.00  0.00    +0.124 C 
ATOM     10  N   LIG    1       24.668 -25.260   6.115  0.00  0.00    -0.327 N 
ATOM     11  C   LIG    1       24.868 -24.959   4.670  0.00  0.00    +0.124 C 
ATOM     12  C   LIG    1       24.834 -23.451   4.396  0.00  0.00    +0.124 C 
BRANCH   7  16
ATOM     13  C   LIG    1       23.673 -18.547   4.428  0.00  0.00    +0.052 A 
ATOM     14  C   LIG    1       22.594 -19.191   5.051  0.00  0.00    +0.028 A 
ATOM     15  C   LIG    1       22.589 -20.585   5.213  0.00  0.00    +0.025 A 
ATOM     16  C   LIG    1       23.656 -21.369   4.757  0.00  0.00    +0.030 A 
ATOM     17  C   LIG    1       24.734 -20.706   4.161  0.00  0.00    +0.025 A 
ATOM     18  C   LIG    1       24.738 -19.329   3.993  0.00  0.00    +0.028 A 
BRANCH  13  22
ATOM     19  N   LIG    1       24.323 -15.081   3.820  0.00  0.00    -0.210 N 
ATOM     20  C   LIG    1       24.814 -16.398   3.914  0.00  0.00    +0.351 C 
ATOM     21  O   LIG    1       25.944 -16.761   3.698  0.00  0.00    -0.244 OA
ATOM     22  N   LIG    1       23.704 -17.150   4.257  0.00  0.00    -0.250 N 
ATOM     23  C   LIG    1       22.688 -16.282   4.364  0.00  0.00    +0.230 C 
ATOM     24  N   LIG    1       22.986 -15.033   4.129  0.00  0.00    -0.157 NA
BRANCH  19  25
ATOM     25  C   LIG    1       25.093 -13.887   3.508  0.00  0.00    +0.109 C 
ATOM     26  C   LIG    1       26.074 -13.575   4.639  0.00  0.00    +0.033 C 
BRANCH  25  28
ATOM     27  C   LIG    1       27.343 -13.981   2.304  0.00  0.00    +0.006 C 
ATOM     28  C   LIG    1       25.825 -13.996   2.157  0.00  0.00    +0.023 C 
ENDBRANCH  25  28
ENDBRANCH  19  25
ENDBRANCH  13  22
ENDBRANCH   7  16
ENDBRANCH   1  10
BRANCH   4  29
ATOM     29  O   LIG    1       25.655 -30.546   7.842  0.00  0.00    -0.489 OA
BRANCH  29  30
ATOM     30  C   LIG    1       24.568 -31.075   8.627  0.00  0.00    +0.263 C 
BRANCH  30  31
ATOM     31  C   LIG    1       24.056 -30.048   9.637  0.00  0.00    +0.185 C 
ATOM     32  O   LIG    1       24.799 -30.134  10.858  0.00  0.00    -0.334 OA
ATOM     33  C   LIG    1       23.893 -29.824  11.945  0.00  0.00    +0.219 C 
ATOM     34  O   LIG    1       22.569 -29.701  11.376  0.00  0.00    -0.341 OA
ATOM     35  C   LIG    1       22.641 -30.321  10.088  0.00  0.00    +0.198 C 
BRANCH  33  36
ATOM     36  C   LIG    1       24.281 -28.480  12.587  0.00  0.00    +0.031 A 
ATOM     37  C   LIG    1       25.557 -27.882  12.499  0.00  0.00    +0.051 A 
ATOM     38 CL   LIG    1       26.882 -28.621  11.672  0.00  0.00    -0.083 Cl
ATOM     39  C   LIG    1       25.815 -26.620  13.067  0.00  0.00    +0.040 A 
ATOM     40  C   LIG    1       24.808 -25.936  13.740  0.00  0.00    +0.042 A 
ATOM     41 CL   LIG    1       25.123 -24.397  14.442  0.00  0.00    -0.084 Cl
ATOM     42  C   LIG    1       23.548 -26.499  13.853  0.00  0.00    +0.020 A 
ATOM     43  C   LIG    1       23.293 -27.754  13.291  0.00  0.00    +0.012 A 
ENDBRANCH  33  36
BRANCH  33  44
ATOM     44  C   LIG    1       23.924 -31.046  12.898  0.00  0.00    +0.215 C 
BRANCH  44  45
ATOM     45  N   LIG    1       25.159 -31.185  13.640  0.00  0.00    -0.246 N 
ATOM     46  N   LIG    1       25.237 -30.825  14.937  0.00  0.00    -0.158 NA
ATOM     47  C   LIG    1       26.492 -31.174  15.232  0.00  0.00    +0.244 A 
ATOM     48  N   LIG    1       27.223 -31.655  14.183  0.00  0.00    -0.223 NA
ATOM     49  C   LIG    1       26.369 -31.613  13.188  0.00  0.00    +0.219 A 
ENDBRANCH  44  45
ENDBRANCH  33  44
ENDBRANCH  30  31
ENDBRANCH  29  30
ENDBRANCH   4  29
TORSDOF 11
ENDMDL
MODEL 8
REMARK VINA RESULT:      -5.7      2.353      4.078
REMARK  Name = *****
REMARK                            x       y       z     vdW  Elec       q    Type
REMARK                         _______ _______ _______ _____ _____    ______ ____
ROOT
ATOM      1  C   LIG    1       24.890 -26.632   6.521  0.00  0.00    +0.030 A 
ATOM      2  C   LIG    1       24.196 -27.718   5.966  0.00  0.00    +0.027 A 
ATOM      3  C   LIG    1       24.410 -29.039   6.373  0.00  0.00    +0.047 A 
ATOM      4  C   LIG    1       25.339 -29.341   7.360  0.00  0.00    +0.121 A 
ATOM      5  C   LIG    1       26.116 -28.301   7.862  0.00  0.00    +0.047 A 
ATOM      6  C   LIG    1       25.898 -26.974   7.440  0.00  0.00    +0.027 A 
ENDROOT
BRANCH   1  10
ATOM      7  N   LIG    1       23.618 -22.819   4.909  0.00  0.00    -0.327 N 
ATOM      8  C   LIG    1       23.320 -23.162   6.323  0.00  0.00    +0.124 C 
ATOM      9  C   LIG    1       23.351 -24.688   6.578  0.00  0.00    +0.124 C 
ATOM     10  N   LIG    1       24.621 -25.310   6.120  0.00  0.00    -0.327 N 
ATOM     11  C   LIG    1       24.873 -25.000   4.686  0.00  0.00    +0.124 C 
ATOM     12  C   LIG    1       24.848 -23.490   4.419  0.00  0.00    +0.124 C 
BRANCH   7  16
ATOM     13  C   LIG    1       23.680 -18.587   4.439  0.00  0.00    +0.052 A 
ATOM     14  C   LIG    1       22.580 -19.236   5.019  0.00  0.00    +0.028 A 
ATOM     15  C   LIG    1       22.572 -20.632   5.173  0.00  0.00    +0.025 A 
ATOM     16  C   LIG    1       23.655 -21.412   4.750  0.00  0.00    +0.030 A 
ATOM     17  C   LIG    1       24.753 -20.744   4.198  0.00  0.00    +0.025 A 
ATOM     18  C   LIG    1       24.762 -19.366   4.038  0.00  0.00    +0.028 A 
BRANCH  13  22
ATOM     19  N   LIG    1       24.338 -15.121   3.846  0.00  0.00    -0.210 N 
ATOM     20  C   LIG    1       24.824 -16.441   3.920  0.00  0.00    +0.351 C 
ATOM     21  O   LIG    1       25.948 -16.809   3.680  0.00  0.00    -0.244 OA
ATOM     22  N   LIG    1       23.716 -17.190   4.279  0.00  0.00    -0.250 N 
ATOM     23  C   LIG    1       22.707 -16.317   4.412  0.00  0.00    +0.230 C 
ATOM     24  N   LIG    1       23.008 -15.068   4.181  0.00  0.00    -0.157 NA
BRANCH  19  25
ATOM     25  C   LIG    1       25.109 -13.928   3.528  0.00  0.00    +0.109 C 
ATOM     26  C   LIG    1       26.045 -13.575   4.685  0.00  0.00    +0.033 C 
BRANCH  25  28
ATOM     27  C   LIG    1       27.402 -13.999   2.407  0.00  0.00    +0.006 C 
ATOM     28  C   LIG    1       25.892 -14.069   2.208  0.00  0.00    +0.023 C 
ENDBRANCH  25  28
ENDBRANCH  19  25
ENDBRANCH  13  22
ENDBRANCH   7  16
ENDBRANCH   1  10
BRANCH   4  29
ATOM     29  O   LIG    1       25.558 -30.602   7.857  0.00  0.00    -0.489 OA
BRANCH  29  30
ATOM     30  C   LIG    1       24.359 -31.383   8.024  0.00  0.00    +0.263 C 
BRANCH  30  31
ATOM     31  C   LIG    1       23.793 -31.246   9.437  0.00  0.00    +0.185 C 
ATOM     32  O   LIG    1       23.768 -29.871   9.834  0.00  0.00    -0.334 OA
ATOM     33  C   LIG    1       24.019 -29.822  11.261  0.00  0.00    +0.219 C 
ATOM     34  O   LIG    1       24.342 -31.167  11.684  0.00  0.00    -0.341 OA
ATOM     35  C   LIG    1       24.672 -31.881  10.489  0.00  0.00    +0.198 C 
BRANCH  33  36
ATOM     36  C   LIG    1       22.750 -29.364  12.003  0.00  0.00    +0.031 A 
ATOM     37  C   LIG    1       21.548 -30.100  12.076  0.00  0.00    +0.051 A 
ATOM     38 CL   LIG    1       21.334 -31.625  11.292  0.00  0.00    -0.083 Cl
ATOM     39  C   LIG    1       20.449 -29.636  12.826  0.00  0.00    +0.040 A 
ATOM     40  C   LIG    1       20.528 -28.426  13.507  0.00  0.00    +0.042 A 
ATOM     41 CL   LIG    1       19.185 -27.854  14.417  0.00  0.00    -0.084 Cl
ATOM     42  C   LIG    1       21.690 -27.675  13.448  0.00  0.00    +0.020 A 
ATOM     43  C   LIG    1       22.779 -28.135  12.702  0.00  0.00    +0.012 A 
ENDBRANCH  33  36
BRANCH  33  44
ATOM     44  C   LIG    1       25.262 -28.916  11.453  0.00  0.00    +0.215 C 
BRANCH  44  45
ATOM     45  N   LIG    1       26.161 -29.360  12.497  0.00  0.00    -0.246 N 
ATOM     46  N   LIG    1       25.740 -29.488  13.771  0.00  0.00    -0.158 NA
ATOM     47  C   LIG    1       26.838 -29.969  14.362  0.00  0.00    +0.244 A 
ATOM     48  N   LIG    1       27.935 -30.074  13.555  0.00  0.00    -0.223 NA
ATOM     49  C   LIG    1       27.488 -29.646  12.398  0.00  0.00    +0.219 A 
ENDBRANCH  44  45
ENDBRANCH  33  44
ENDBRANCH  30  31
ENDBRANCH  29  30
ENDBRANCH   4  29
TORSDOF 11
ENDMDL
MODEL 9
REMARK VINA RESULT:      -5.7      1.970      2.981
REMARK  Name = *****
REMARK                            x       y       z     vdW  Elec       q    Type
REMARK                         _______ _______ _______ _____ _____    ______ ____
ROOT
ATOM      1  C   LIG    1       25.161 -28.735   7.204  0.00  0.00    +0.030 A 
ATOM      2  C   LIG    1       24.843 -29.827   6.383  0.00  0.00    +0.027 A 
ATOM      3  C   LIG    1       24.913 -31.151   6.826  0.00  0.00    +0.047 A 
ATOM      4  C   LIG    1       25.313 -31.450   8.122  0.00  0.00    +0.121 A 
ATOM      5  C   LIG    1       25.732 -30.400   8.933  0.00  0.00    +0.047 A 
ATOM      6  C   LIG    1       25.663 -29.068   8.475  0.00  0.00    +0.027 A 
ENDROOT
BRANCH   1  10
ATOM      7  N   LIG    1       25.270 -24.802   5.394  0.00  0.00    -0.327 N 
ATOM      8  C   LIG    1       24.132 -25.715   5.114  0.00  0.00    +0.124 C 
ATOM      9  C   LIG    1       24.488 -27.198   5.377  0.00  0.00    +0.124 C 
ATOM     10  N   LIG    1       25.038 -27.411   6.742  0.00  0.00    -0.327 N 
ATOM     11  C   LIG    1       26.212 -26.526   6.982  0.00  0.00    +0.124 C 
ATOM     12  C   LIG    1       25.872 -25.052   6.727  0.00  0.00    +0.124 C 
BRANCH   7  16
ATOM     13  C   LIG    1       24.059 -20.763   4.802  0.00  0.00    +0.052 A 
ATOM     14  C   LIG    1       24.043 -21.687   3.747  0.00  0.00    +0.028 A 
ATOM     15  C   LIG    1       24.441 -23.017   3.953  0.00  0.00    +0.025 A 
ATOM     16  C   LIG    1       24.866 -23.457   5.213  0.00  0.00    +0.030 A 
ATOM     17  C   LIG    1       24.850 -22.528   6.259  0.00  0.00    +0.025 A 
ATOM     18  C   LIG    1       24.464 -21.210   6.056  0.00  0.00    +0.028 A 
BRANCH  13  22
ATOM     19  N   LIG    1       23.576 -17.294   4.072  0.00  0.00    -0.210 N 
ATOM     20  C   LIG    1       24.432 -18.413   4.081  0.00  0.00    +0.351 C 
ATOM     21  O   LIG    1       25.564 -18.455   3.667  0.00  0.00    -0.244 OA
ATOM     22  N   LIG    1       23.660 -19.426   4.623  0.00  0.00    -0.250 N 
ATOM     23  C   LIG    1       22.472 -18.873   4.907  0.00  0.00    +0.230 C 
ATOM     24  N   LIG    1       22.355 -17.606   4.617  0.00  0.00    -0.157 NA
BRANCH  19  25
ATOM     25  C   LIG    1       23.907 -15.950   3.621  0.00  0.00    +0.109 C 
ATOM     26  C   LIG    1       23.199 -14.908   4.486  0.00  0.00    +0.033 C 
BRANCH  25  28
ATOM     27  C   LIG    1       25.802 -14.285   4.017  0.00  0.00    +0.006 C 
ATOM     28  C   LIG    1       25.428 -15.699   3.589  0.00  0.00    +0.023 C 
ENDBRANCH  25  28
ENDBRANCH  19  25
ENDBRANCH  13  22
ENDBRANCH   7  16
ENDBRANCH   1  10
BRANCH   4  29
ATOM     29  O   LIG    1       25.345 -32.718   8.650  0.00  0.00    -0.489 OA
BRANCH  29  30
ATOM     30  C   LIG    1       24.055 -33.356   8.723  0.00  0.00    +0.263 C 
BRANCH  30  31
ATOM     31  C   LIG    1       23.020 -32.449   9.388  0.00  0.00    +0.185 C 
ATOM     32  O   LIG    1       23.363 -32.218  10.758  0.00  0.00    -0.334 OA
ATOM     33  C   LIG    1       22.127 -32.103  11.506  0.00  0.00    +0.219 C 
ATOM     34  O   LIG    1       21.047 -32.417  10.597  0.00  0.00    -0.341 OA
ATOM     35  C   LIG    1       21.655 -33.088   9.489  0.00  0.00    +0.198 C 
BRANCH  33  36
ATOM     36  C   LIG    1       21.946 -30.658  12.006  0.00  0.00    +0.031 A 
ATOM     37  C   LIG    1       20.747 -30.132  12.534  0.00  0.00    +0.051 A 
ATOM     38 CL   LIG    1       19.290 -31.054  12.652  0.00  0.00    -0.083 Cl
ATOM     39  C   LIG    1       20.680 -28.813  13.025  0.00  0.00    +0.040 A 
ATOM     40  C   LIG    1       21.804 -27.995  12.990  0.00  0.00    +0.042 A 
ATOM     41 CL   LIG    1       21.723 -26.382  13.581  0.00  0.00    -0.084 Cl
ATOM     42  C   LIG    1       22.994 -28.478  12.469  0.00  0.00    +0.020 A 
ATOM     43  C   LIG    1       23.059 -29.787  11.979  0.00  0.00    +0.012 A 
ENDBRANCH  33  36
BRANCH  33  44
ATOM     44  C   LIG    1       22.189 -33.184  12.615  0.00  0.00    +0.215 C 
BRANCH  44  45
ATOM     45  N   LIG    1       23.380 -33.122  13.436  0.00  0.00    -0.246 N 
ATOM     46  N   LIG    1       23.356 -32.549  14.656  0.00  0.00    -0.158 NA
ATOM     47  C   LIG    1       24.607 -32.765  15.072  0.00  0.00    +0.244 A 
ATOM     48  N   LIG    1       25.427 -33.366  14.160  0.00  0.00    -0.223 NA
ATOM     49  C   LIG    1       24.637 -33.541  13.128  0.00  0.00    +0.219 A 
ENDBRANCH  44  45
ENDBRANCH  33  44
ENDBRANCH  30  31
ENDBRANCH  29  30
ENDBRANCH   4  29
TORSDOF 11
ENDMDL
