MODEL 1
REMARK VINA RESULT:      -5.0      0.000      0.000
REMARK  Name = *****
REMARK                            x       y       z     vdW  Elec       q    Type
REMARK                         _______ _______ _______ _____ _____    ______ ____
ROOT
ATOM      1  C   LIG    1       24.455 -31.427  11.793  0.00  0.00    +0.180 C 
ATOM      2  C   LIG    1       25.038 -30.784  13.160  0.00  0.00    +0.021 C 
ATOM      3  C   LIG    1       23.891 -30.954  14.197  0.00  0.00    +0.006 C 
ATOM      4  C   LIG    1       22.809 -29.832  14.213  0.00  0.00    +0.034 C 
ATOM      5  C   LIG    1       23.405 -28.404  14.262  0.00  0.00    +0.153 C 
ATOM      6  C   LIG    1       24.404 -28.243  13.086  0.00  0.00    +0.154 C 
ATOM      7  F   LIG    1       24.161 -28.338  15.415  0.00  0.00    -0.238 F 
ATOM      8  C   LIG    1       22.288 -27.259  14.365  0.00  0.00    +0.044 C 
ATOM      9  C   LIG    1       21.148 -27.625  15.364  0.00  0.00    -0.053 C 
ATOM     10  C   LIG    1       20.116 -26.756  15.500  0.00  0.00    +0.051 C 
ATOM     11  C   LIG    1       19.421 -26.568  14.171  0.00  0.00    +0.179 C 
ATOM     12  C   LIG    1       20.271 -26.664  12.947  0.00  0.00    +0.047 C 
ATOM     13  O   LIG    1       18.235 -26.275  14.103  0.00  0.00    -0.288 OA
ATOM     14  C   LIG    1       20.731 -29.080  15.413  0.00  0.00    +0.032 C 
ATOM     15  C   LIG    1       22.954 -25.934  14.837  0.00  0.00    +0.023 C 
ATOM     16  C   LIG    1       21.584 -26.952  13.034  0.00  0.00    -0.009 C 
ATOM     17  C   LIG    1       21.902 -30.038  15.440  0.00  0.00    +0.011 C 
ATOM     18  C   LIG    1       23.310 -32.318  13.797  0.00  0.00    +0.012 C 
ATOM     19  C   LIG    1       26.276 -31.554  13.716  0.00  0.00    +0.016 C 
ATOM     20  C   LIG    1       25.496 -29.313  13.071  0.00  0.00    +0.045 C 
ATOM     21  C   LIG    1       23.196 -32.242  12.275  0.00  0.00    +0.038 C 
ATOM     22  C   LIG    1       22.934 -33.628  11.686  0.00  0.00    +0.012 C 
ENDROOT
BRANCH   6  23
ATOM     23  O   LIG    1       25.085 -26.987  13.119  0.00  0.00    -0.389 OA
ATOM     24  H   LIG    1       25.601 -26.963  13.949  0.00  0.00    +0.210 HD
ENDBRANCH   6  23
BRANCH   1  25
ATOM     25  C   LIG    1       25.522 -32.327  11.072  0.00  0.00    +0.192 C 
ATOM     26  O   LIG    1       25.763 -33.469  11.479  0.00  0.00    -0.292 OA
BRANCH  25  27
ATOM     27  C   LIG    1       26.230 -31.772   9.851  0.00  0.00    +0.187 C 
ATOM     28 CL   LIG    1       26.939 -33.078   8.876  0.00  0.00    -0.117 Cl
ENDBRANCH  25  27
ENDBRANCH   1  25
BRANCH   1  29
ATOM     29  O   LIG    1       23.979 -30.312  10.980  0.00  0.00    -0.450 OA
BRANCH  29  30
ATOM     30  C   LIG    1       22.873 -30.438  10.211  0.00  0.00    +0.308 C 
ATOM     31  O   LIG    1       22.862 -30.856   9.059  0.00  0.00    -0.251 OA
BRANCH  30  33
ATOM     32  C   LIG    1       20.407 -30.703  10.632  0.00  0.00    +0.015 C 
ATOM     33  C   LIG    1       21.662 -29.902  10.954  0.00  0.00    +0.117 C 
ENDBRANCH  30  33
ENDBRANCH  29  30
ENDBRANCH   1  29
TORSDOF 6
ENDMDL
MODEL 2
REMARK VINA RESULT:      -4.9      2.849      4.490
REMARK  Name = *****
REMARK                            x       y       z     vdW  Elec       q    Type
REMARK                         _______ _______ _______ _____ _____    ______ ____
ROOT
ATOM      1  C   LIG    1       25.332 -30.410  10.596  0.00  0.00    +0.180 C 
ATOM      2  C   LIG    1       24.846 -30.517  12.137  0.00  0.00    +0.021 C 
ATOM      3  C   LIG    1       24.264 -31.953  12.268  0.00  0.00    +0.006 C 
ATOM      4  C   LIG    1       22.771 -32.129  11.858  0.00  0.00    +0.034 C 
ATOM      5  C   LIG    1       21.830 -31.079  12.498  0.00  0.00    +0.153 C 
ATOM      6  C   LIG    1       22.370 -29.662  12.168  0.00  0.00    +0.154 C 
ATOM      7  F   LIG    1       21.956 -31.226  13.864  0.00  0.00    -0.238 F 
ATOM      8  C   LIG    1       20.285 -31.317  12.141  0.00  0.00    +0.044 C 
ATOM      9  C   LIG    1       19.881 -32.820  12.211  0.00  0.00    -0.053 C 
ATOM     10  C   LIG    1       18.610 -33.156  11.879  0.00  0.00    +0.051 C 
ATOM     11  C   LIG    1       18.323 -32.744  10.453  0.00  0.00    +0.179 C 
ATOM     12  C   LIG    1       19.019 -31.521   9.952  0.00  0.00    +0.047 C 
ATOM     13  O   LIG    1       17.503 -33.338   9.766  0.00  0.00    -0.288 OA
ATOM     14  C   LIG    1       20.916 -33.824  11.748  0.00  0.00    +0.032 C 
ATOM     15  C   LIG    1       19.398 -30.518  13.138  0.00  0.00    +0.023 C 
ATOM     16  C   LIG    1       19.892 -30.853  10.729  0.00  0.00    -0.009 C 
ATOM     17  C   LIG    1       22.306 -33.536  12.273  0.00  0.00    +0.011 C 
ATOM     18  C   LIG    1       25.214 -32.757  11.369  0.00  0.00    +0.012 C 
ATOM     19  C   LIG    1       26.021 -30.403  13.157  0.00  0.00    +0.016 C 
ATOM     20  C   LIG    1       23.823 -29.456  12.596  0.00  0.00    +0.045 C 
ATOM     21  C   LIG    1       25.338 -31.907  10.105  0.00  0.00    +0.038 C 
ATOM     22  C   LIG    1       26.494 -32.404   9.237  0.00  0.00    +0.012 C 
ENDROOT
BRANCH   6  23
ATOM     23  O   LIG    1       21.620 -28.630  12.813  0.00  0.00    -0.389 OA
ATOM     24  H   LIG    1       21.768 -27.809  12.304  0.00  0.00    +0.210 HD
ENDBRANCH   6  23
BRANCH   1  25
ATOM     25  C   LIG    1       26.743 -29.726  10.477  0.00  0.00    +0.192 C 
ATOM     26  O   LIG    1       27.778 -30.394  10.577  0.00  0.00    -0.292 OA
BRANCH  25  27
ATOM     27  C   LIG    1       26.802 -28.234  10.212  0.00  0.00    +0.187 C 
ATOM     28 CL   LIG    1       27.020 -27.326  11.724  0.00  0.00    -0.117 Cl
ENDBRANCH  25  27
ENDBRANCH   1  25
BRANCH   1  29
ATOM     29  O   LIG    1       24.275 -29.710   9.874  0.00  0.00    -0.450 OA
BRANCH  29  30
ATOM     30  C   LIG    1       23.752 -30.226   8.739  0.00  0.00    +0.308 C 
ATOM     31  O   LIG    1       22.884 -31.090   8.694  0.00  0.00    -0.251 OA
BRANCH  30  33
ATOM     32  C   LIG    1       24.357 -30.559   6.320  0.00  0.00    +0.015 C 
ATOM     33  C   LIG    1       24.461 -29.641   7.530  0.00  0.00    +0.117 C 
ENDBRANCH  30  33
ENDBRANCH  29  30
ENDBRANCH   1  29
TORSDOF 6
ENDMDL
MODEL 3
REMARK VINA RESULT:      -4.8      2.173      3.965
REMARK  Name = *****
REMARK                            x       y       z     vdW  Elec       q    Type
REMARK                         _______ _______ _______ _____ _____    ______ ____
ROOT
ATOM      1  C   LIG    1       25.463 -31.246   9.841  0.00  0.00    +0.180 C 
ATOM      2  C   LIG    1       24.282 -32.160  10.468  0.00  0.00    +0.021 C 
ATOM      3  C   LIG    1       23.014 -31.261  10.409  0.00  0.00    +0.006 C 
ATOM      4  C   LIG    1       22.805 -30.290  11.610  0.00  0.00    +0.034 C 
ATOM      5  C   LIG    1       22.944 -30.979  12.989  0.00  0.00    +0.153 C 
ATOM      6  C   LIG    1       24.315 -31.702  13.048  0.00  0.00    +0.154 C 
ATOM      7  F   LIG    1       21.987 -31.973  13.025  0.00  0.00    -0.238 F 
ATOM      8  C   LIG    1       22.643 -29.994  14.218  0.00  0.00    +0.044 C 
ATOM      9  C   LIG    1       21.406 -29.081  13.963  0.00  0.00    -0.053 C 
ATOM     10  C   LIG    1       21.081 -28.166  14.910  0.00  0.00    +0.051 C 
ATOM     11  C   LIG    1       22.232 -27.210  15.120  0.00  0.00    +0.179 C 
ATOM     12  C   LIG    1       23.608 -27.759  14.931  0.00  0.00    +0.047 C 
ATOM     13  O   LIG    1       22.051 -26.061  15.500  0.00  0.00    -0.288 OA
ATOM     14  C   LIG    1       21.210 -28.586  12.545  0.00  0.00    +0.032 C 
ATOM     15  C   LIG    1       22.381 -30.837  15.500  0.00  0.00    +0.023 C 
ATOM     16  C   LIG    1       23.799 -29.036  14.547  0.00  0.00    -0.009 C 
ATOM     17  C   LIG    1       21.403 -29.664  11.502  0.00  0.00    +0.011 C 
ATOM     18  C   LIG    1       23.224 -30.514   9.085  0.00  0.00    +0.012 C 
ATOM     19  C   LIG    1       23.981 -33.435   9.620  0.00  0.00    +0.016 C 
ATOM     20  C   LIG    1       24.526 -32.688  11.898  0.00  0.00    +0.045 C 
ATOM     21  C   LIG    1       24.686 -30.072   9.134  0.00  0.00    +0.038 C 
ATOM     22  C   LIG    1       25.148 -29.592   7.759  0.00  0.00    +0.012 C 
ENDROOT
BRANCH   6  23
ATOM     23  O   LIG    1       24.481 -32.458  14.249  0.00  0.00    -0.389 OA
ATOM     24  H   LIG    1       23.688 -32.299  14.798  0.00  0.00    +0.210 HD
ENDBRANCH   6  23
BRANCH   1  25
ATOM     25  C   LIG    1       26.364 -32.063   8.845  0.00  0.00    +0.192 C 
ATOM     26  O   LIG    1       27.407 -32.600   9.235  0.00  0.00    -0.292 OA
BRANCH  25  27
ATOM     27  C   LIG    1       25.913 -32.196   7.404  0.00  0.00    +0.187 C 
ATOM     28 CL   LIG    1       27.259 -32.699   6.358  0.00  0.00    -0.117 Cl
ENDBRANCH  25  27
ENDBRANCH   1  25
BRANCH   1  29
ATOM     29  O   LIG    1       26.194 -30.680  10.970  0.00  0.00    -0.450 OA
BRANCH  29  30
ATOM     30  C   LIG    1       26.759 -29.454  10.884  0.00  0.00    +0.308 C 
ATOM     31  O   LIG    1       27.774 -29.190  10.250  0.00  0.00    -0.251 OA
BRANCH  30  33
ATOM     32  C   LIG    1       26.879 -27.302  12.181  0.00  0.00    +0.015 C 
ATOM     33  C   LIG    1       26.002 -28.473  11.761  0.00  0.00    +0.117 C 
ENDBRANCH  30  33
ENDBRANCH  29  30
ENDBRANCH   1  29
TORSDOF 6
ENDMDL
MODEL 4
REMARK VINA RESULT:      -4.8      2.779      5.271
REMARK  Name = *****
REMARK                            x       y       z     vdW  Elec       q    Type
REMARK                         _______ _______ _______ _____ _____    ______ ____
ROOT
ATOM      1  C   LIG    1       21.584 -30.159  12.719  0.00  0.00    +0.180 C 
ATOM      2  C   LIG    1       22.862 -31.100  12.397  0.00  0.00    +0.021 C 
ATOM      3  C   LIG    1       23.682 -31.116  13.718  0.00  0.00    +0.006 C 
ATOM      4  C   LIG    1       24.687 -29.941  13.917  0.00  0.00    +0.034 C 
ATOM      5  C   LIG    1       25.599 -29.697  12.691  0.00  0.00    +0.153 C 
ATOM      6  C   LIG    1       24.705 -29.503  11.438  0.00  0.00    +0.154 C 
ATOM      7  F   LIG    1       26.294 -30.871  12.484  0.00  0.00    -0.238 F 
ATOM      8  C   LIG    1       26.686 -28.544  12.934  0.00  0.00    +0.044 C 
ATOM      9  C   LIG    1       27.342 -28.630  14.345  0.00  0.00    -0.053 C 
ATOM     10  C   LIG    1       28.243 -27.677  14.689  0.00  0.00    +0.051 C 
ATOM     11  C   LIG    1       27.592 -26.313  14.648  0.00  0.00    +0.179 C 
ATOM     12  C   LIG    1       26.514 -26.112  13.634  0.00  0.00    +0.047 C 
ATOM     13  O   LIG    1       27.980 -25.395  15.357  0.00  0.00    -0.288 OA
ATOM     14  C   LIG    1       26.444 -29.061  15.486  0.00  0.00    +0.032 C 
ATOM     15  C   LIG    1       27.805 -28.658  11.859  0.00  0.00    +0.023 C 
ATOM     16  C   LIG    1       26.118 -27.119  12.833  0.00  0.00    -0.009 C 
ATOM     17  C   LIG    1       25.567 -30.245  15.143  0.00  0.00    +0.011 C 
ATOM     18  C   LIG    1       22.570 -31.118  14.775  0.00  0.00    +0.012 C 
ATOM     19  C   LIG    1       22.469 -32.577  12.082  0.00  0.00    +0.016 C 
ATOM     20  C   LIG    1       23.736 -30.663  11.202  0.00  0.00    +0.045 C 
ATOM     21  C   LIG    1       21.594 -30.046  14.290  0.00  0.00    +0.038 C 
ATOM     22  C   LIG    1       20.273 -30.139  15.054  0.00  0.00    +0.012 C 
ENDROOT
BRANCH   6  23
ATOM     23  O   LIG    1       25.470 -29.380  10.237  0.00  0.00    -0.389 OA
ATOM     24  H   LIG    1       25.940 -30.227  10.110  0.00  0.00    +0.210 HD
ENDBRANCH   6  23
BRANCH   1  25
ATOM     25  C   LIG    1       20.251 -30.777  12.163  0.00  0.00    +0.192 C 
ATOM     26  O   LIG    1       19.476 -31.385  12.911  0.00  0.00    -0.292 OA
BRANCH  25  27
ATOM     27  C   LIG    1       19.925 -30.591  10.693  0.00  0.00    +0.187 C 
ATOM     28 CL   LIG    1       18.391 -31.384  10.274  0.00  0.00    -0.117 Cl
ENDBRANCH  25  27
ENDBRANCH   1  25
BRANCH   1  29
ATOM     29  O   LIG    1       21.893 -28.839  12.177  0.00  0.00    -0.450 OA
BRANCH  29  30
ATOM     30  C   LIG    1       21.484 -27.717  12.811  0.00  0.00    +0.308 C 
ATOM     31  O   LIG    1       20.315 -27.392  12.983  0.00  0.00    -0.251 OA
BRANCH  30  33
ATOM     32  C   LIG    1       22.787 -26.706  14.711  0.00  0.00    +0.015 C 
ATOM     33  C   LIG    1       22.687 -26.877  13.201  0.00  0.00    +0.117 C 
ENDBRANCH  30  33
ENDBRANCH  29  30
ENDBRANCH   1  29
TORSDOF 6
ENDMDL
MODEL 5
REMARK VINA RESULT:      -4.8      1.995      3.301
REMARK  Name = *****
REMARK                            x       y       z     vdW  Elec       q    Type
REMARK                         _______ _______ _______ _____ _____    ______ ____
ROOT
ATOM      1  C   LIG    1       25.232 -30.714   9.903  0.00  0.00    +0.180 C 
ATOM      2  C   LIG    1       24.752 -31.652  11.133  0.00  0.00    +0.021 C 
ATOM      3  C   LIG    1       23.203 -31.712  11.002  0.00  0.00    +0.006 C 
ATOM      4  C   LIG    1       22.413 -30.549  11.673  0.00  0.00    +0.034 C 
ATOM      5  C   LIG    1       22.844 -30.274  13.134  0.00  0.00    +0.153 C 
ATOM      6  C   LIG    1       24.377 -30.039  13.163  0.00  0.00    +0.154 C 
ATOM      7  F   LIG    1       22.626 -31.446  13.830  0.00  0.00    -0.238 F 
ATOM      8  C   LIG    1       21.969 -29.135  13.846  0.00  0.00    +0.044 C 
ATOM      9  C   LIG    1       20.449 -29.266  13.530  0.00  0.00    -0.053 C 
ATOM     10  C   LIG    1       19.609 -28.327  14.035  0.00  0.00    +0.051 C 
ATOM     11  C   LIG    1       19.995 -26.960  13.520  0.00  0.00    +0.179 C 
ATOM     12  C   LIG    1       21.446 -26.723  13.258  0.00  0.00    +0.047 C 
ATOM     13  O   LIG    1       19.171 -26.065  13.396  0.00  0.00    -0.288 OA
ATOM     14  C   LIG    1       20.082 -29.724  12.134  0.00  0.00    +0.032 C 
ATOM     15  C   LIG    1       22.166 -29.224  15.387  0.00  0.00    +0.023 C 
ATOM     16  C   LIG    1       22.352 -27.705  13.433  0.00  0.00    -0.009 C 
ATOM     17  C   LIG    1       20.912 -30.892  11.650  0.00  0.00    +0.011 C 
ATOM     18  C   LIG    1       23.021 -31.737   9.478  0.00  0.00    +0.012 C 
ATOM     19  C   LIG    1       25.278 -33.117  11.024  0.00  0.00    +0.016 C 
ATOM     20  C   LIG    1       25.176 -31.186  12.542  0.00  0.00    +0.045 C 
ATOM     21  C   LIG    1       23.964 -30.647   8.971  0.00  0.00    +0.038 C 
ATOM     22  C   LIG    1       24.144 -30.753   7.457  0.00  0.00    +0.012 C 
ENDROOT
BRANCH   6  23
ATOM     23  O   LIG    1       24.880 -29.886  14.492  0.00  0.00    -0.389 OA
ATOM     24  H   LIG    1       25.357 -30.710  14.714  0.00  0.00    +0.210 HD
ENDBRANCH   6  23
BRANCH   1  25
ATOM     25  C   LIG    1       26.491 -31.309   9.174  0.00  0.00    +0.192 C 
ATOM     26  O   LIG    1       27.573 -31.411   9.764  0.00  0.00    -0.292 OA
BRANCH  25  27
ATOM     27  C   LIG    1       26.342 -31.776   7.739  0.00  0.00    +0.187 C 
ATOM     28 CL   LIG    1       26.476 -33.544   7.627  0.00  0.00    -0.117 Cl
ENDBRANCH  25  27
ENDBRANCH   1  25
BRANCH   1  29
ATOM     29  O   LIG    1       25.448 -29.381  10.458  0.00  0.00    -0.450 OA
BRANCH  29  30
ATOM     30  C   LIG    1       26.422 -28.578   9.972  0.00  0.00    +0.308 C 
ATOM     31  O   LIG    1       26.522 -28.222   8.804  0.00  0.00    -0.251 OA
BRANCH  30  33
ATOM     32  C   LIG    1       26.804 -27.378  12.150  0.00  0.00    +0.015 C 
ATOM     33  C   LIG    1       27.421 -28.255  11.069  0.00  0.00    +0.117 C 
ENDBRANCH  30  33
ENDBRANCH  29  30
ENDBRANCH   1  29
TORSDOF 6
ENDMDL
MODEL 6
REMARK VINA RESULT:      -4.7      2.540      3.930
REMARK  Name = *****
REMARK                            x       y       z     vdW  Elec       q    Type
REMARK                         _______ _______ _______ _____ _____    ______ ____
ROOT
ATOM      1  C   LIG    1       24.873 -31.808  10.065  0.00  0.00    +0.180 C 
ATOM      2  C   LIG    1       24.264 -32.030  11.549  0.00  0.00    +0.021 C 
ATOM      3  C   LIG    1       23.218 -30.891  11.720  0.00  0.00    +0.006 C 
ATOM      4  C   LIG    1       23.769 -29.525  12.227  0.00  0.00    +0.034 C 
ATOM      5  C   LIG    1       24.674 -29.651  13.477  0.00  0.00    +0.153 C 
ATOM      6  C   LIG    1       25.806 -30.667  13.169  0.00  0.00    +0.154 C 
ATOM      7  F   LIG    1       23.899 -30.233  14.460  0.00  0.00    -0.238 F 
ATOM      8  C   LIG    1       25.167 -28.236  14.044  0.00  0.00    +0.044 C 
ATOM      9  C   LIG    1       24.032 -27.167  14.052  0.00  0.00    -0.053 C 
ATOM     10  C   LIG    1       24.340 -25.912  14.462  0.00  0.00    +0.051 C 
ATOM     11  C   LIG    1       25.416 -25.328  13.575  0.00  0.00    +0.179 C 
ATOM     12  C   LIG    1       26.411 -26.285  13.005  0.00  0.00    +0.047 C 
ATOM     13  O   LIG    1       25.513 -24.122  13.394  0.00  0.00    -0.288 OA
ATOM     14  C   LIG    1       23.055 -27.208  12.895  0.00  0.00    +0.032 C 
ATOM     15  C   LIG    1       25.686 -28.418  15.500  0.00  0.00    +0.023 C 
ATOM     16  C   LIG    1       26.316 -27.607  13.240  0.00  0.00    -0.009 C 
ATOM     17  C   LIG    1       22.581 -28.605  12.561  0.00  0.00    +0.011 C 
ATOM     18  C   LIG    1       22.630 -30.794  10.305  0.00  0.00    +0.012 C 
ATOM     19  C   LIG    1       23.498 -33.382  11.698  0.00  0.00    +0.016 C 
ATOM     20  C   LIG    1       25.286 -32.028  12.704  0.00  0.00    +0.045 C 
ATOM     21  C   LIG    1       23.854 -30.814   9.391  0.00  0.00    +0.038 C 
ATOM     22  C   LIG    1       23.435 -31.044   7.939  0.00  0.00    +0.012 C 
ENDROOT
BRANCH   6  23
ATOM     23  O   LIG    1       26.628 -30.928  14.309  0.00  0.00    -0.389 OA
ATOM     24  H   LIG    1       26.958 -30.064  14.627  0.00  0.00    +0.210 HD
ENDBRANCH   6  23
BRANCH   1  25
ATOM     25  C   LIG    1       25.008 -33.164   9.281  0.00  0.00    +0.192 C 
ATOM     26  O   LIG    1       24.028 -33.670   8.724  0.00  0.00    -0.292 OA
BRANCH  25  27
ATOM     27  C   LIG    1       26.372 -33.823   9.205  0.00  0.00    +0.187 C 
ATOM     28 CL   LIG    1       26.987 -33.825   7.538  0.00  0.00    -0.117 Cl
ENDBRANCH  25  27
ENDBRANCH   1  25
BRANCH   1  29
ATOM     29  O   LIG    1       26.138 -31.099  10.237  0.00  0.00    -0.450 OA
BRANCH  29  30
ATOM     30  C   LIG    1       26.596 -30.258   9.282  0.00  0.00    +0.308 C 
ATOM     31  O   LIG    1       27.037 -30.604   8.193  0.00  0.00    -0.251 OA
BRANCH  30  33
ATOM     32  C   LIG    1       26.284 -27.837   8.674  0.00  0.00    +0.015 C 
ATOM     33  C   LIG    1       26.566 -28.829   9.794  0.00  0.00    +0.117 C 
ENDBRANCH  30  33
ENDBRANCH  29  30
ENDBRANCH   1  29
TORSDOF 6
ENDMDL
MODEL 7
REMARK VINA RESULT:      -4.5      2.984      4.431
REMARK  Name = *****
REMARK                            x       y       z     vdW  Elec       q    Type
REMARK                         _______ _______ _______ _____ _____    ______ ____
ROOT
ATOM      1  C   LIG    1       24.863 -31.764   7.681  0.00  0.00    +0.180 C 
ATOM      2  C   LIG    1       25.853 -32.113   8.914  0.00  0.00    +0.021 C 
ATOM      3  C   LIG    1       24.952 -32.844   9.949  0.00  0.00    +0.006 C 
ATOM      4  C   LIG    1       24.161 -31.932  10.935  0.00  0.00    +0.034 C 
ATOM      5  C   LIG    1       25.039 -30.853  11.614  0.00  0.00    +0.153 C 
ATOM      6  C   LIG    1       25.767 -30.039  10.513  0.00  0.00    +0.154 C 
ATOM      7  F   LIG    1       26.026 -31.531  12.300  0.00  0.00    -0.238 F 
ATOM      8  C   LIG    1       24.238 -29.974  12.690  0.00  0.00    +0.044 C 
ATOM      9  C   LIG    1       23.294 -30.837  13.582  0.00  0.00    -0.053 C 
ATOM     10  C   LIG    1       22.523 -30.200  14.497  0.00  0.00    +0.051 C 
ATOM     11  C   LIG    1       21.609 -29.215  13.806  0.00  0.00    +0.179 C 
ATOM     12  C   LIG    1       22.129 -28.570  12.564  0.00  0.00    +0.047 C 
ATOM     13  O   LIG    1       20.525 -28.903  14.281  0.00  0.00    -0.288 OA
ATOM     14  C   LIG    1       22.602 -32.003  12.907  0.00  0.00    +0.032 C 
ATOM     15  C   LIG    1       25.254 -29.238  13.610  0.00  0.00    +0.023 C 
ATOM     16  C   LIG    1       23.339 -28.894  12.069  0.00  0.00    -0.009 C 
ATOM     17  C   LIG    1       23.522 -32.815  12.022  0.00  0.00    +0.011 C 
ATOM     18  C   LIG    1       24.024 -33.657   9.036  0.00  0.00    +0.012 C 
ATOM     19  C   LIG    1       26.994 -33.102   8.519  0.00  0.00    +0.016 C 
ATOM     20  C   LIG    1       26.580 -30.911   9.555  0.00  0.00    +0.045 C 
ATOM     21  C   LIG    1       23.598 -32.661   7.958  0.00  0.00    +0.038 C 
ATOM     22  C   LIG    1       22.928 -33.388   6.791  0.00  0.00    +0.012 C 
ENDROOT
BRANCH   6  23
ATOM     23  O   LIG    1       26.686 -29.089  11.055  0.00  0.00    -0.389 OA
ATOM     24  H   LIG    1       27.585 -29.445  10.907  0.00  0.00    +0.210 HD
ENDBRANCH   6  23
BRANCH   1  25
ATOM     25  C   LIG    1       25.532 -32.069   6.292  0.00  0.00    +0.192 C 
ATOM     26  O   LIG    1       26.482 -31.390   5.887  0.00  0.00    -0.292 OA
BRANCH  25  27
ATOM     27  C   LIG    1       25.001 -33.230   5.473  0.00  0.00    +0.187 C 
ATOM     28 CL   LIG    1       25.315 -32.984   3.741  0.00  0.00    -0.117 Cl
ENDBRANCH  25  27
ENDBRANCH   1  25
BRANCH   1  29
ATOM     29  O   LIG    1       24.465 -30.370   7.850  0.00  0.00    -0.450 OA
BRANCH  29  30
ATOM     30  C   LIG    1       24.151 -29.605   6.779  0.00  0.00    +0.308 C 
ATOM     31  O   LIG    1       23.322 -29.898   5.925  0.00  0.00    -0.251 OA
BRANCH  30  33
ATOM     32  C   LIG    1       24.395 -27.240   5.957  0.00  0.00    +0.015 C 
ATOM     33  C   LIG    1       25.037 -28.373   6.745  0.00  0.00    +0.117 C 
ENDBRANCH  30  33
ENDBRANCH  29  30
ENDBRANCH   1  29
TORSDOF 6
ENDMDL
MODEL 8
REMARK VINA RESULT:      -4.3      1.734      2.424
REMARK  Name = *****
REMARK                            x       y       z     vdW  Elec       q    Type
REMARK                         _______ _______ _______ _____ _____    ______ ____
ROOT
ATOM      1  C   LIG    1       24.254 -32.005  10.140  0.00  0.00    +0.180 C 
ATOM      2  C   LIG    1       24.504 -32.294  11.714  0.00  0.00    +0.021 C 
ATOM      3  C   LIG    1       23.079 -32.434  12.320  0.00  0.00    +0.006 C 
ATOM      4  C   LIG    1       22.381 -31.107  12.746  0.00  0.00    +0.034 C 
ATOM      5  C   LIG    1       23.276 -30.193  13.617  0.00  0.00    +0.153 C 
ATOM      6  C   LIG    1       24.610 -29.943  12.866  0.00  0.00    +0.154 C 
ATOM      7  F   LIG    1       23.603 -30.926  14.740  0.00  0.00    -0.238 F 
ATOM      8  C   LIG    1       22.524 -28.871  14.123  0.00  0.00    +0.044 C 
ATOM      9  C   LIG    1       21.067 -29.157  14.597  0.00  0.00    -0.053 C 
ATOM     10  C   LIG    1       20.309 -28.108  15.000  0.00  0.00    +0.051 C 
ATOM     11  C   LIG    1       20.160 -27.115  13.871  0.00  0.00    +0.179 C 
ATOM     12  C   LIG    1       21.308 -26.996  12.922  0.00  0.00    +0.047 C 
ATOM     13  O   LIG    1       19.180 -26.388  13.780  0.00  0.00    -0.288 OA
ATOM     14  C   LIG    1       20.295 -30.204  13.822  0.00  0.00    +0.032 C 
ATOM     15  C   LIG    1       23.318 -28.249  15.308  0.00  0.00    +0.023 C 
ATOM     16  C   LIG    1       22.398 -27.776  13.052  0.00  0.00    -0.009 C 
ATOM     17  C   LIG    1       21.102 -31.450  13.531  0.00  0.00    +0.011 C 
ATOM     18  C   LIG    1       22.328 -33.150  11.188  0.00  0.00    +0.012 C 
ATOM     19  C   LIG    1       25.249 -33.640  11.977  0.00  0.00    +0.016 C 
ATOM     20  C   LIG    1       25.331 -31.233  12.470  0.00  0.00    +0.045 C 
ATOM     21  C   LIG    1       22.742 -32.390   9.928  0.00  0.00    +0.038 C 
ATOM     22  C   LIG    1       22.337 -33.167   8.676  0.00  0.00    +0.012 C 
ENDROOT
BRANCH   6  23
ATOM     23  O   LIG    1       25.544 -29.195  13.649  0.00  0.00    -0.389 OA
ATOM     24  H   LIG    1       25.469 -28.262  13.368  0.00  0.00    +0.210 HD
ENDBRANCH   6  23
BRANCH   1  25
ATOM     25  C   LIG    1       25.227 -32.843   9.233  0.00  0.00    +0.192 C 
ATOM     26  O   LIG    1       24.814 -33.821   8.600  0.00  0.00    -0.292 OA
BRANCH  25  27
ATOM     27  C   LIG    1       26.677 -32.409   9.133  0.00  0.00    +0.187 C 
ATOM     28 CL   LIG    1       27.217 -32.375   7.441  0.00  0.00    -0.117 Cl
ENDBRANCH  25  27
ENDBRANCH   1  25
BRANCH   1  29
ATOM     29  O   LIG    1       24.376 -30.562   9.958  0.00  0.00    -0.450 OA
BRANCH  29  30
ATOM     30  C   LIG    1       24.370 -30.017   8.720  0.00  0.00    +0.308 C 
ATOM     31  O   LIG    1       23.499 -30.198   7.877  0.00  0.00    -0.251 OA
BRANCH  30  33
ATOM     32  C   LIG    1       26.267 -28.782   9.817  0.00  0.00    +0.015 C 
ATOM     33  C   LIG    1       25.643 -29.221   8.499  0.00  0.00    +0.117 C 
ENDBRANCH  30  33
ENDBRANCH  29  30
ENDBRANCH   1  29
TORSDOF 6
ENDMDL
MODEL 9
REMARK VINA RESULT:      -4.3      2.677      4.100
REMARK  Name = *****
REMARK                            x       y       z     vdW  Elec       q    Type
REMARK                         _______ _______ _______ _____ _____    ______ ____
ROOT
ATOM      1  C   LIG    1       24.850 -31.684   8.540  0.00  0.00    +0.180 C 
ATOM      2  C   LIG    1       26.079 -31.943   9.562  0.00  0.00    +0.021 C 
ATOM      3  C   LIG    1       25.400 -32.367  10.896  0.00  0.00    +0.006 C 
ATOM      4  C   LIG    1       24.954 -31.208  11.837  0.00  0.00    +0.034 C 
ATOM      5  C   LIG    1       26.059 -30.151  12.079  0.00  0.00    +0.153 C 
ATOM      6  C   LIG    1       26.562 -29.635  10.705  0.00  0.00    +0.154 C 
ATOM      7  F   LIG    1       27.123 -30.825  12.644  0.00  0.00    -0.238 F 
ATOM      8  C   LIG    1       25.623 -29.008  13.115  0.00  0.00    +0.044 C 
ATOM      9  C   LIG    1       24.857 -29.579  14.346  0.00  0.00    -0.053 C 
ATOM     10  C   LIG    1       24.389 -28.703  15.269  0.00  0.00    +0.051 C 
ATOM     11  C   LIG    1       23.421 -27.740  14.623  0.00  0.00    +0.179 C 
ATOM     12  C   LIG    1       23.674 -27.386  13.195  0.00  0.00    +0.047 C 
ATOM     13  O   LIG    1       22.517 -27.216  15.259  0.00  0.00    -0.288 OA
ATOM     14  C   LIG    1       23.924 -30.744  14.084  0.00  0.00    +0.032 C 
ATOM     15  C   LIG    1       26.892 -28.264  13.622  0.00  0.00    +0.023 C 
ATOM     16  C   LIG    1       24.694 -27.942  12.513  0.00  0.00    -0.009 C 
ATOM     17  C   LIG    1       24.528 -31.805  13.190  0.00  0.00    +0.011 C 
ATOM     18  C   LIG    1       24.211 -33.197  10.390  0.00  0.00    +0.012 C 
ATOM     19  C   LIG    1       27.000 -33.123   9.122  0.00  0.00    +0.016 C 
ATOM     20  C   LIG    1       27.039 -30.754   9.778  0.00  0.00    +0.045 C 
ATOM     21  C   LIG    1       23.620 -32.351   9.263  0.00  0.00    +0.038 C 
ATOM     22  C   LIG    1       22.627 -33.172   8.441  0.00  0.00    +0.012 C 
ENDROOT
BRANCH   6  23
ATOM     23  O   LIG    1       27.663 -28.733  10.831  0.00  0.00    -0.389 OA
ATOM     24  H   LIG    1       27.959 -28.516   9.925  0.00  0.00    +0.210 HD
ENDBRANCH   6  23
BRANCH   1  25
ATOM     25  C   LIG    1       25.131 -32.302   7.123  0.00  0.00    +0.192 C 
ATOM     26  O   LIG    1       24.345 -33.114   6.621  0.00  0.00    -0.292 OA
BRANCH  25  27
ATOM     27  C   LIG    1       26.375 -31.862   6.375  0.00  0.00    +0.187 C 
ATOM     28 CL   LIG    1       26.047 -31.690   4.637  0.00  0.00    -0.117 Cl
ENDBRANCH  25  27
ENDBRANCH   1  25
BRANCH   1  29
ATOM     29  O   LIG    1       24.625 -30.242   8.519  0.00  0.00    -0.450 OA
BRANCH  29  30
ATOM     30  C   LIG    1       24.345 -29.601   7.361  0.00  0.00    +0.308 C 
ATOM     31  O   LIG    1       23.514 -29.968   6.538  0.00  0.00    -0.251 OA
BRANCH  30  33
ATOM     32  C   LIG    1       24.680 -27.369   6.252  0.00  0.00    +0.015 C 
ATOM     33  C   LIG    1       25.272 -28.412   7.190  0.00  0.00    +0.117 C 
ENDBRANCH  30  33
ENDBRANCH  29  30
ENDBRANCH   1  29
TORSDOF 6
ENDMDL
