MODEL 1
REMARK VINA RESULT:      -0.1      0.000      0.000
REMARK  Name = *****
REMARK                            x       y       z     vdW  Elec       q    Type
REMARK                         _______ _______ _______ _____ _____    ______ ____
ROOT
ATOM      1  O   LIG    1       24.972 -19.048   4.206  0.00  0.00    -0.252 OA
ATOM      2  C   LIG    1       24.832 -17.871   3.956  0.00  0.00    +0.306 C 
ATOM      3  N   LIG    1       25.844 -16.949   3.611  0.00  0.00    -0.271 N 
ATOM      4  C   LIG    1       25.218 -15.770   3.010  0.00  0.00    +0.155 C 
ATOM      5  C   LIG    1       23.865 -15.742   3.712  0.00  0.00    +0.152 C 
ATOM      6  C   LIG    1       24.049 -14.968   5.028  0.00  0.00    +0.302 C 
ATOM      7  S   LIG    1       25.495 -13.843   4.913  0.00  0.00    -0.004 S 
ATOM      8  C   LIG    1       24.621 -12.359   4.324  0.00  0.00    +0.278 C 
ATOM      9  C   LIG    1       24.210 -12.593   2.888  0.00  0.00    +0.059 C 
ATOM     10  C   LIG    1       25.371 -13.331   2.240  0.00  0.00    +0.064 C 
ATOM     11  C   LIG    1       25.887 -14.411   3.203  0.00  0.00    +0.230 C 
ATOM     12  N   LIG    1       23.627 -17.154   3.944  0.00  0.00    -0.272 N 
ENDROOT
BRANCH   3  13
ATOM     13  C   LIG    1       27.203 -17.374   3.342  0.00  0.00    +0.145 C 
BRANCH  13  14
ATOM     14  C   LIG    1       27.819 -18.175   4.464  0.00  0.00    -0.030 A 
ATOM     15  C   LIG    1       28.920 -17.681   5.176  0.00  0.00    +0.005 A 
ATOM     16  C   LIG    1       29.475 -18.420   6.224  0.00  0.00    +0.000 A 
ATOM     17  C   LIG    1       28.935 -19.657   6.569  0.00  0.00    +0.000 A 
ATOM     18  C   LIG    1       27.840 -20.158   5.870  0.00  0.00    +0.000 A 
ATOM     19  C   LIG    1       27.283 -19.420   4.824  0.00  0.00    +0.005 A 
ENDBRANCH  13  14
ENDBRANCH   3  13
BRANCH  12  20
ATOM     20  C   LIG    1       22.310 -17.740   4.069  0.00  0.00    +0.145 C 
BRANCH  20  21
ATOM     21  C   LIG    1       22.346 -19.082   4.762  0.00  0.00    -0.030 A 
ATOM     22  C   LIG    1       22.993 -19.217   6.000  0.00  0.00    +0.005 A 
ATOM     23  C   LIG    1       23.041 -20.453   6.648  0.00  0.00    +0.000 A 
ATOM     24  C   LIG    1       22.453 -21.572   6.063  0.00  0.00    +0.000 A 
ATOM     25  C   LIG    1       21.813 -21.454   4.831  0.00  0.00    +0.000 A 
ATOM     26  C   LIG    1       21.761 -20.217   4.182  0.00  0.00    +0.005 A 
ENDBRANCH  20  21
ENDBRANCH  12  20
TORSDOF 4
ENDMDL
MODEL 2
REMARK VINA RESULT:       0.2      1.248      4.601
REMARK  Name = *****
REMARK                            x       y       z     vdW  Elec       q    Type
REMARK                         _______ _______ _______ _____ _____    ______ ____
ROOT
ATOM      1  O   LIG    1       26.029 -18.917   3.188  0.00  0.00    -0.252 OA
ATOM      2  C   LIG    1       25.884 -17.742   3.445  0.00  0.00    +0.306 C 
ATOM      3  N   LIG    1       24.672 -17.018   3.457  0.00  0.00    -0.271 N 
ATOM      4  C   LIG    1       24.880 -15.769   4.192  0.00  0.00    +0.155 C 
ATOM      5  C   LIG    1       26.354 -15.488   3.921  0.00  0.00    +0.152 C 
ATOM      6  C   LIG    1       26.435 -14.715   2.595  0.00  0.00    +0.302 C 
ATOM      7  S   LIG    1       24.847 -13.858   2.254  0.00  0.00    -0.004 S 
ATOM      8  C   LIG    1       25.240 -12.266   3.046  0.00  0.00    +0.278 C 
ATOM      9  C   LIG    1       25.243 -12.473   4.544  0.00  0.00    +0.059 C 
ATOM     10  C   LIG    1       24.088 -13.418   4.834  0.00  0.00    +0.064 C 
ATOM     11  C   LIG    1       24.074 -14.539   3.783  0.00  0.00    +0.230 C 
ATOM     12  N   LIG    1       26.890 -16.831   3.799  0.00  0.00    -0.272 N 
ENDROOT
BRANCH   3  13
ATOM     13  C   LIG    1       23.388 -17.677   3.320  0.00  0.00    +0.145 C 
BRANCH  13  14
ATOM     14  C   LIG    1       23.314 -19.008   4.029  0.00  0.00    -0.030 A 
ATOM     15  C   LIG    1       23.810 -20.170   3.422  0.00  0.00    +0.005 A 
ATOM     16  C   LIG    1       23.754 -21.396   4.089  0.00  0.00    +0.000 A 
ATOM     17  C   LIG    1       23.203 -21.472   5.367  0.00  0.00    +0.000 A 
ATOM     18  C   LIG    1       22.709 -20.323   5.981  0.00  0.00    +0.000 A 
ATOM     19  C   LIG    1       22.766 -19.098   5.316  0.00  0.00    +0.005 A 
ENDBRANCH  13  14
ENDBRANCH   3  13
BRANCH  12  20
ATOM     20  C   LIG    1       28.265 -17.179   4.080  0.00  0.00    +0.145 C 
BRANCH  20  21
ATOM     21  C   LIG    1       28.376 -18.269   5.121  0.00  0.00    -0.030 A 
ATOM     22  C   LIG    1       27.444 -19.317   5.144  0.00  0.00    +0.005 A 
ATOM     23  C   LIG    1       27.529 -20.327   6.106  0.00  0.00    +0.000 A 
ATOM     24  C   LIG    1       28.541 -20.295   7.062  0.00  0.00    +0.000 A 
ATOM     25  C   LIG    1       29.471 -19.257   7.055  0.00  0.00    +0.000 A 
ATOM     26  C   LIG    1       29.388 -18.248   6.091  0.00  0.00    +0.005 A 
ENDBRANCH  20  21
ENDBRANCH  12  20
TORSDOF 4
ENDMDL
MODEL 3
REMARK VINA RESULT:       1.0      2.130      3.371
REMARK  Name = *****
REMARK                            x       y       z     vdW  Elec       q    Type
REMARK                         _______ _______ _______ _____ _____    ______ ____
ROOT
ATOM      1  O   LIG    1       27.152 -18.567   4.298  0.00  0.00    -0.252 OA
ATOM      2  C   LIG    1       26.536 -17.606   3.894  0.00  0.00    +0.306 C 
ATOM      3  N   LIG    1       26.951 -16.257   3.923  0.00  0.00    -0.271 N 
ATOM      4  C   LIG    1       26.117 -15.490   2.996  0.00  0.00    +0.155 C 
ATOM      5  C   LIG    1       24.803 -16.263   3.044  0.00  0.00    +0.152 C 
ATOM      6  C   LIG    1       23.991 -15.709   4.226  0.00  0.00    +0.302 C 
ATOM      7  S   LIG    1       24.527 -13.999   4.628  0.00  0.00    -0.004 S 
ATOM      8  C   LIG    1       23.344 -13.104   3.573  0.00  0.00    +0.278 C 
ATOM      9  C   LIG    1       23.755 -13.300   2.131  0.00  0.00    +0.059 C 
ATOM     10  C   LIG    1       25.274 -13.234   2.121  0.00  0.00    +0.064 C 
ATOM     11  C   LIG    1       25.824 -14.027   3.317  0.00  0.00    +0.230 C 
ATOM     12  N   LIG    1       25.269 -17.614   3.294  0.00  0.00    -0.272 N 
ENDROOT
BRANCH   3  13
ATOM     13  C   LIG    1       28.297 -15.880   4.307  0.00  0.00    +0.145 C 
BRANCH  13  14
ATOM     14  C   LIG    1       28.465 -14.398   4.542  0.00  0.00    -0.030 A 
ATOM     15  C   LIG    1       29.115 -13.593   3.597  0.00  0.00    +0.005 A 
ATOM     16  C   LIG    1       29.254 -12.220   3.812  0.00  0.00    +0.000 A 
ATOM     17  C   LIG    1       28.745 -11.640   4.972  0.00  0.00    +0.000 A 
ATOM     18  C   LIG    1       28.095 -12.429   5.918  0.00  0.00    +0.000 A 
ATOM     19  C   LIG    1       27.955 -13.800   5.703  0.00  0.00    +0.005 A 
ENDBRANCH  13  14
ENDBRANCH   3  13
BRANCH  12  20
ATOM     20  C   LIG    1       24.542 -18.802   2.902  0.00  0.00    +0.145 C 
BRANCH  20  21
ATOM     21  C   LIG    1       24.105 -19.622   4.094  0.00  0.00    -0.030 A 
ATOM     22  C   LIG    1       24.814 -20.779   4.450  0.00  0.00    +0.005 A 
ATOM     23  C   LIG    1       24.416 -21.551   5.544  0.00  0.00    +0.000 A 
ATOM     24  C   LIG    1       23.298 -21.183   6.288  0.00  0.00    +0.000 A 
ATOM     25  C   LIG    1       22.580 -20.040   5.943  0.00  0.00    +0.000 A 
ATOM     26  C   LIG    1       22.980 -19.264   4.851  0.00  0.00    +0.005 A 
ENDBRANCH  20  21
ENDBRANCH  12  20
TORSDOF 4
ENDMDL
