MODEL 1
REMARK VINA RESULT:       4.6      0.000      0.000
REMARK  Name = *****
REMARK                            x       y       z     vdW  Elec       q    Type
REMARK                         _______ _______ _______ _____ _____    ______ ____
ROOT
ATOM      1  C   LIG    1       24.348 -16.630   3.492  0.00  0.00    +0.169 C 
ATOM      2  C   LIG    1       22.938 -15.972   3.684  0.00  0.00    +0.084 C 
ATOM      3  C   LIG    1       21.737 -16.926   3.730  0.00  0.00    +0.042 C 
ATOM      4  C   LIG    1       22.042 -18.040   4.710  0.00  0.00    +0.084 C 
ATOM      5  C   LIG    1       23.167 -18.892   4.124  0.00  0.00    +0.163 C 
ATOM      6  C   LIG    1       24.490 -18.120   3.953  0.00  0.00    +0.182 C 
ENDROOT
BRANCH   2   7
ATOM      7  N   LIG    1       22.668 -14.944   2.654  0.00  0.00    -0.325 NA
ATOM      8  H   LIG    1       22.618 -15.389   1.729  0.00  0.00    +0.118 HD
ATOM      9  H   LIG    1       23.430 -14.272   2.605  0.00  0.00    +0.118 HD
ENDBRANCH   2   7
BRANCH   4  10
ATOM     10  N   LIG    1       20.868 -18.895   4.963  0.00  0.00    -0.325 NA
ATOM     11  H   LIG    1       20.453 -19.174   4.072  0.00  0.00    +0.118 HD
ATOM     12  H   LIG    1       21.154 -19.761   5.420  0.00  0.00    +0.118 HD
ENDBRANCH   4  10
BRANCH   5  13
ATOM     13  O   LIG    1       23.356 -20.002   5.019  0.00  0.00    -0.388 OA
ATOM     14  H   LIG    1       24.322 -20.169   5.017  0.00  0.00    +0.210 HD
ENDBRANCH   5  13
BRANCH   6  15
ATOM     15  O   LIG    1       25.340 -18.766   2.951  0.00  0.00    -0.340 OA
BRANCH  15  16
ATOM     16  C   LIG    1       26.468 -19.472   3.481  0.00  0.00    +0.282 C 
ATOM     17  C   LIG    1       27.134 -18.640   4.598  0.00  0.00    +0.201 C 
ATOM     18  C   LIG    1       27.452 -19.695   5.644  0.00  0.00    +0.179 C 
ATOM     19  C   LIG    1       26.355 -20.731   5.445  0.00  0.00    +0.178 C 
ATOM     20  O   LIG    1       26.028 -20.709   4.046  0.00  0.00    -0.341 OA
BRANCH  18  21
ATOM     21  O   LIG    1       28.735 -20.287   5.376  0.00  0.00    -0.386 OA
ATOM     22  H   LIG    1       28.627 -20.850   4.583  0.00  0.00    +0.210 HD
ENDBRANCH  18  21
BRANCH  17  23
ATOM     23  O   LIG    1       28.338 -17.986   4.173  0.00  0.00    -0.384 OA
ATOM     24  H   LIG    1       28.306 -17.084   4.537  0.00  0.00    +0.210 HD
ENDBRANCH  17  23
BRANCH  19  25
ATOM     25  C   LIG    1       25.070 -20.431   6.228  0.00  0.00    +0.190 C 
BRANCH  25  26
ATOM     26  O   LIG    1       24.589 -21.569   6.931  0.00  0.00    -0.392 OA
ATOM     27  H   LIG    1       25.170 -21.729   7.699  0.00  0.00    +0.209 HD
ENDBRANCH  25  26
ENDBRANCH  19  25
ENDBRANCH  15  16
ENDBRANCH   6  15
BRANCH   1  28
ATOM     28  O   LIG    1       25.265 -15.751   4.228  0.00  0.00    -0.342 OA
BRANCH  28  33
ATOM     29  C   LIG    1       24.704 -12.933   3.986  0.00  0.00    +0.166 C 
ATOM     30  C   LIG    1       25.774 -12.347   4.925  0.00  0.00    +0.175 C 
ATOM     31  C   LIG    1       26.722 -13.450   5.416  0.00  0.00    +0.167 C 
ATOM     32  C   LIG    1       27.256 -14.269   4.226  0.00  0.00    +0.139 C 
ATOM     33  C   LIG    1       26.039 -14.844   3.438  0.00  0.00    +0.270 C 
ATOM     34  O   LIG    1       25.269 -13.752   2.949  0.00  0.00    -0.343 OA
BRANCH  32  35
ATOM     35  N   LIG    1       28.263 -15.264   4.656  0.00  0.00    -0.321 NA
ATOM     36  H   LIG    1       28.985 -14.769   5.186  0.00  0.00    +0.119 HD
ATOM     37  H   LIG    1       27.827 -15.896   5.329  0.00  0.00    +0.119 HD
ENDBRANCH  32  35
BRANCH  31  38
ATOM     38  O   LIG    1       27.809 -12.839   6.148  0.00  0.00    -0.387 OA
ATOM     39  H   LIG    1       27.511 -12.698   7.061  0.00  0.00    +0.210 HD
ENDBRANCH  31  38
BRANCH  30  40
ATOM     40  O   LIG    1       25.167 -11.706   6.053  0.00  0.00    -0.387 OA
ATOM     41  H   LIG    1       25.775 -10.990   6.328  0.00  0.00    +0.210 HD
ENDBRANCH  30  40
BRANCH  29  42
ATOM     42  C   LIG    1       23.845 -11.852   3.289  0.00  0.00    +0.112 C 
BRANCH  42  43
ATOM     43  N   LIG    1       23.853 -11.880   1.820  0.00  0.00    -0.328 NA
ATOM     44  H   LIG    1       23.126 -12.507   1.478  0.00  0.00    +0.118 HD
ATOM     45  H   LIG    1       24.748 -12.225   1.482  0.00  0.00    +0.118 HD
ENDBRANCH  42  43
ENDBRANCH  29  42
ENDBRANCH  28  33
ENDBRANCH   1  28
TORSDOF 16
ENDMDL
MODEL 2
REMARK VINA RESULT:       5.6      2.321      7.124
REMARK  Name = *****
REMARK                            x       y       z     vdW  Elec       q    Type
REMARK                         _______ _______ _______ _____ _____    ______ ____
ROOT
ATOM      1  C   LIG    1       25.930 -17.839   3.168  0.00  0.00    +0.169 C 
ATOM      2  C   LIG    1       26.617 -19.131   3.729  0.00  0.00    +0.084 C 
ATOM      3  C   LIG    1       28.069 -18.983   4.206  0.00  0.00    +0.042 C 
ATOM      4  C   LIG    1       28.155 -17.784   5.127  0.00  0.00    +0.084 C 
ATOM      5  C   LIG    1       27.912 -16.527   4.293  0.00  0.00    +0.163 C 
ATOM      6  C   LIG    1       26.502 -16.470   3.673  0.00  0.00    +0.182 C 
ENDROOT
BRANCH   2   7
ATOM      7  N   LIG    1       26.566 -20.245   2.756  0.00  0.00    -0.325 NA
ATOM      8  H   LIG    1       25.997 -19.968   1.946  0.00  0.00    +0.118 HD
ATOM      9  H   LIG    1       26.106 -21.058   3.161  0.00  0.00    +0.118 HD
ENDBRANCH   2   7
BRANCH   4  10
ATOM     10  N   LIG    1       29.470 -17.682   5.786  0.00  0.00    -0.325 NA
ATOM     11  H   LIG    1       30.166 -17.371   5.106  0.00  0.00    +0.118 HD
ATOM     12  H   LIG    1       29.447 -16.964   6.509  0.00  0.00    +0.118 HD
ENDBRANCH   4  10
BRANCH   5  13
ATOM     13  O   LIG    1       28.112 -15.403   5.167  0.00  0.00    -0.388 OA
ATOM     14  H   LIG    1       28.437 -15.789   6.008  0.00  0.00    +0.210 HD
ENDBRANCH   5  13
BRANCH   6  15
ATOM     15  O   LIG    1       26.483 -15.579   2.511  0.00  0.00    -0.340 OA
BRANCH  15  16
ATOM     16  C   LIG    1       25.652 -14.421   2.652  0.00  0.00    +0.282 C 
ATOM     17  C   LIG    1       24.989 -14.414   4.046  0.00  0.00    +0.201 C 
ATOM     18  C   LIG    1       25.098 -12.953   4.451  0.00  0.00    +0.179 C 
ATOM     19  C   LIG    1       26.366 -12.487   3.750  0.00  0.00    +0.178 C 
ATOM     20  O   LIG    1       26.456 -13.246   2.533  0.00  0.00    -0.341 OA
BRANCH  18  21
ATOM     21  O   LIG    1       23.968 -12.216   3.954  0.00  0.00    -0.386 OA
ATOM     22  H   LIG    1       24.298 -11.642   3.234  0.00  0.00    +0.210 HD
ENDBRANCH  18  21
BRANCH  17  23
ATOM     23  O   LIG    1       23.612 -14.818   4.018  0.00  0.00    -0.384 OA
ATOM     24  H   LIG    1       23.520 -15.429   3.267  0.00  0.00    +0.210 HD
ENDBRANCH  17  23
BRANCH  19  25
ATOM     25  C   LIG    1       27.647 -12.742   4.554  0.00  0.00    +0.190 C 
BRANCH  25  26
ATOM     26  O   LIG    1       27.391 -12.876   5.946  0.00  0.00    -0.392 OA
ATOM     27  H   LIG    1       28.158 -12.528   6.438  0.00  0.00    +0.209 HD
ENDBRANCH  25  26
ENDBRANCH  19  25
ENDBRANCH  15  16
ENDBRANCH   6  15
BRANCH   1  28
ATOM     28  O   LIG    1       24.514 -17.993   3.526  0.00  0.00    -0.342 OA
BRANCH  28  33
ATOM     29  C   LIG    1       24.288 -20.317   5.218  0.00  0.00    +0.166 C 
ATOM     30  C   LIG    1       22.814 -20.214   5.649  0.00  0.00    +0.175 C 
ATOM     31  C   LIG    1       22.110 -19.078   4.894  0.00  0.00    +0.167 C 
ATOM     32  C   LIG    1       22.355 -19.206   3.379  0.00  0.00    +0.139 C 
ATOM     33  C   LIG    1       23.893 -19.218   3.127  0.00  0.00    +0.270 C 
ATOM     34  O   LIG    1       24.444 -20.350   3.789  0.00  0.00    -0.343 OA
BRANCH  32  35
ATOM     35  N   LIG    1       21.593 -18.194   2.615  0.00  0.00    -0.321 NA
ATOM     36  H   LIG    1       21.355 -18.601   1.706  0.00  0.00    +0.119 HD
ATOM     37  H   LIG    1       20.696 -18.044   3.081  0.00  0.00    +0.119 HD
ENDBRANCH  32  35
BRANCH  31  38
ATOM     38  O   LIG    1       20.696 -19.125   5.192  0.00  0.00    -0.387 OA
ATOM     39  H   LIG    1       20.577 -19.664   5.991  0.00  0.00    +0.210 HD
ENDBRANCH  31  38
BRANCH  30  40
ATOM     40  O   LIG    1       22.709 -19.984   7.059  0.00  0.00    -0.387 OA
ATOM     41  H   LIG    1       21.758 -20.050   7.283  0.00  0.00    +0.210 HD
ENDBRANCH  30  40
BRANCH  29  42
ATOM     42  C   LIG    1       25.003 -21.569   5.779  0.00  0.00    +0.112 C 
BRANCH  42  43
ATOM     43  N   LIG    1       26.208 -21.311   6.579  0.00  0.00    -0.328 NA
ATOM     44  H   LIG    1       26.025 -20.577   7.261  0.00  0.00    +0.118 HD
ATOM     45  H   LIG    1       26.966 -20.997   5.977  0.00  0.00    +0.118 HD
ENDBRANCH  42  43
ENDBRANCH  29  42
ENDBRANCH  28  33
ENDBRANCH   1  28
TORSDOF 16
ENDMDL
MODEL 3
REMARK VINA RESULT:       5.7      2.500      6.599
REMARK  Name = *****
REMARK                            x       y       z     vdW  Elec       q    Type
REMARK                         _______ _______ _______ _____ _____    ______ ____
ROOT
ATOM      1  C   LIG    1       25.835 -18.538   3.254  0.00  0.00    +0.169 C 
ATOM      2  C   LIG    1       26.220 -19.895   3.938  0.00  0.00    +0.084 C 
ATOM      3  C   LIG    1       27.622 -19.977   4.556  0.00  0.00    +0.042 C 
ATOM      4  C   LIG    1       27.838 -18.759   5.428  0.00  0.00    +0.084 C 
ATOM      5  C   LIG    1       27.908 -17.532   4.520  0.00  0.00    +0.163 C 
ATOM      6  C   LIG    1       26.597 -17.264   3.755  0.00  0.00    +0.182 C 
ENDROOT
BRANCH   2   7
ATOM      7  N   LIG    1       26.058 -21.039   3.013  0.00  0.00    -0.325 NA
ATOM      8  H   LIG    1       25.729 -20.700   2.100  0.00  0.00    +0.118 HD
ATOM      9  H   LIG    1       25.343 -21.680   3.352  0.00  0.00    +0.118 HD
ENDBRANCH   2   7
BRANCH   4  10
ATOM     10  N   LIG    1       29.082 -18.851   6.215  0.00  0.00    -0.325 NA
ATOM     11  H   LIG    1       29.698 -18.075   5.967  0.00  0.00    +0.118 HD
ATOM     12  H   LIG    1       28.880 -18.740   7.208  0.00  0.00    +0.118 HD
ENDBRANCH   4  10
BRANCH   5  13
ATOM     13  O   LIG    1       28.227 -16.410   5.362  0.00  0.00    -0.388 OA
ATOM     14  H   LIG    1       29.054 -16.664   5.823  0.00  0.00    +0.210 HD
ENDBRANCH   5  13
BRANCH   6  15
ATOM     15  O   LIG    1       26.851 -16.456   2.561  0.00  0.00    -0.340 OA
BRANCH  15  16
ATOM     16  C   LIG    1       26.100 -15.238   2.485  0.00  0.00    +0.282 C 
ATOM     17  C   LIG    1       25.494 -14.906   3.866  0.00  0.00    +0.201 C 
ATOM     18  C   LIG    1       25.710 -13.405   3.964  0.00  0.00    +0.179 C 
ATOM     19  C   LIG    1       26.977 -13.178   3.151  0.00  0.00    +0.178 C 
ATOM     20  O   LIG    1       26.972 -14.170   2.110  0.00  0.00    -0.341 OA
BRANCH  18  21
ATOM     21  O   LIG    1       24.611 -12.705   3.357  0.00  0.00    -0.386 OA
ATOM     22  H   LIG    1       24.833 -11.752   3.380  0.00  0.00    +0.210 HD
ENDBRANCH  18  21
BRANCH  17  23
ATOM     23  O   LIG    1       24.094 -15.210   3.955  0.00  0.00    -0.384 OA
ATOM     24  H   LIG    1       24.026 -16.179   4.014  0.00  0.00    +0.210 HD
ENDBRANCH  17  23
BRANCH  19  25
ATOM     25  C   LIG    1       28.270 -13.355   3.957  0.00  0.00    +0.190 C 
BRANCH  25  26
ATOM     26  O   LIG    1       29.428 -13.328   3.132  0.00  0.00    -0.392 OA
ATOM     27  H   LIG    1       29.579 -12.410   2.839  0.00  0.00    +0.209 HD
ENDBRANCH  25  26
ENDBRANCH  19  25
ENDBRANCH  15  16
ENDBRANCH   6  15
BRANCH   1  28
ATOM     28  O   LIG    1       24.388 -18.416   3.469  0.00  0.00    -0.342 OA
BRANCH  28  33
ATOM     29  C   LIG    1       21.912 -17.417   4.558  0.00  0.00    +0.166 C 
ATOM     30  C   LIG    1       21.025 -18.670   4.446  0.00  0.00    +0.175 C 
ATOM     31  C   LIG    1       21.853 -19.878   3.986  0.00  0.00    +0.167 C 
ATOM     32  C   LIG    1       23.113 -20.029   4.859  0.00  0.00    +0.139 C 
ATOM     33  C   LIG    1       23.922 -18.698   4.792  0.00  0.00    +0.270 C 
ATOM     34  O   LIG    1       23.109 -17.655   5.318  0.00  0.00    -0.343 OA
BRANCH  32  35
ATOM     35  N   LIG    1       23.871 -21.252   4.517  0.00  0.00    -0.321 NA
ATOM     36  H   LIG    1       24.854 -21.088   4.753  0.00  0.00    +0.119 HD
ATOM     37  H   LIG    1       23.571 -22.004   5.139  0.00  0.00    +0.119 HD
ENDBRANCH  32  35
BRANCH  31  38
ATOM     38  O   LIG    1       21.031 -21.065   4.061  0.00  0.00    -0.387 OA
ATOM     39  H   LIG    1       20.292 -20.955   3.441  0.00  0.00    +0.210 HD
ENDBRANCH  31  38
BRANCH  30  40
ATOM     40  O   LIG    1       19.950 -18.453   3.523  0.00  0.00    -0.387 OA
ATOM     41  H   LIG    1       19.591 -17.563   3.716  0.00  0.00    +0.210 HD
ENDBRANCH  30  40
BRANCH  29  42
ATOM     42  C   LIG    1       21.192 -16.216   5.214  0.00  0.00    +0.112 C 
BRANCH  42  43
ATOM     43  N   LIG    1       22.030 -15.357   6.063  0.00  0.00    -0.328 NA
ATOM     44  H   LIG    1       22.091 -15.747   7.003  0.00  0.00    +0.118 HD
ATOM     45  H   LIG    1       21.619 -14.429   6.135  0.00  0.00    +0.118 HD
ENDBRANCH  42  43
ENDBRANCH  29  42
ENDBRANCH  28  33
ENDBRANCH   1  28
TORSDOF 16
ENDMDL
MODEL 4
REMARK VINA RESULT:       6.0      1.633      1.980
REMARK  Name = *****
REMARK                            x       y       z     vdW  Elec       q    Type
REMARK                         _______ _______ _______ _____ _____    ______ ____
ROOT
ATOM      1  C   LIG    1       23.972 -18.287   3.786  0.00  0.00    +0.169 C 
ATOM      2  C   LIG    1       22.414 -18.318   3.952  0.00  0.00    +0.084 C 
ATOM      3  C   LIG    1       21.783 -19.687   4.240  0.00  0.00    +0.042 C 
ATOM      4  C   LIG    1       22.543 -20.339   5.377  0.00  0.00    +0.084 C 
ATOM      5  C   LIG    1       23.945 -20.679   4.876  0.00  0.00    +0.163 C 
ATOM      6  C   LIG    1       24.772 -19.437   4.488  0.00  0.00    +0.182 C 
ENDROOT
BRANCH   2   7
ATOM      7  N   LIG    1       21.726 -17.734   2.779  0.00  0.00    -0.325 NA
ATOM      8  H   LIG    1       21.289 -16.842   3.045  0.00  0.00    +0.118 HD
ATOM      9  H   LIG    1       20.970 -18.338   2.465  0.00  0.00    +0.118 HD
ENDBRANCH   2   7
BRANCH   4  10
ATOM     10  N   LIG    1       21.885 -21.571   5.850  0.00  0.00    -0.325 NA
ATOM     11  H   LIG    1       21.956 -22.292   5.129  0.00  0.00    +0.118 HD
ATOM     12  H   LIG    1       22.375 -21.943   6.663  0.00  0.00    +0.118 HD
ENDBRANCH   4  10
BRANCH   5  13
ATOM     13  O   LIG    1       24.602 -21.397   5.935  0.00  0.00    -0.388 OA
ATOM     14  H   LIG    1       24.980 -20.703   6.517  0.00  0.00    +0.210 HD
ENDBRANCH   5  13
BRANCH   6  15
ATOM     15  O   LIG    1       25.845 -19.798   3.560  0.00  0.00    -0.340 OA
BRANCH  15  16
ATOM     16  C   LIG    1       27.123 -20.014   4.170  0.00  0.00    +0.282 C 
ATOM     17  C   LIG    1       27.452 -18.849   5.130  0.00  0.00    +0.201 C 
ATOM     18  C   LIG    1       28.059 -19.571   6.321  0.00  0.00    +0.179 C 
ATOM     19  C   LIG    1       27.359 -20.923   6.309  0.00  0.00    +0.178 C 
ATOM     20  O   LIG    1       27.086 -21.223   4.930  0.00  0.00    -0.341 OA
BRANCH  18  21
ATOM     21  O   LIG    1       29.472 -19.753   6.122  0.00  0.00    -0.386 OA
ATOM     22  H   LIG    1       29.803 -20.264   6.888  0.00  0.00    +0.210 HD
ENDBRANCH  18  21
BRANCH  17  23
ATOM     23  O   LIG    1       28.396 -17.917   4.583  0.00  0.00    -0.384 OA
ATOM     24  H   LIG    1       27.902 -17.098   4.404  0.00  0.00    +0.210 HD
ENDBRANCH  17  23
BRANCH  19  25
ATOM     25  C   LIG    1       26.023 -20.934   7.062  0.00  0.00    +0.190 C 
BRANCH  25  26
ATOM     26  O   LIG    1       25.394 -19.659   7.062  0.00  0.00    -0.392 OA
ATOM     27  H   LIG    1       25.949 -19.038   7.569  0.00  0.00    +0.209 HD
ENDBRANCH  25  26
ENDBRANCH  19  25
ENDBRANCH  15  16
ENDBRANCH   6  15
BRANCH   1  28
ATOM     28  O   LIG    1       24.368 -16.969   4.298  0.00  0.00    -0.342 OA
BRANCH  28  33
ATOM     29  C   LIG    1       24.573 -14.151   4.873  0.00  0.00    +0.166 C 
ATOM     30  C   LIG    1       26.101 -13.967   4.859  0.00  0.00    +0.175 C 
ATOM     31  C   LIG    1       26.796 -15.258   4.403  0.00  0.00    +0.167 C 
ATOM     32  C   LIG    1       26.173 -15.768   3.090  0.00  0.00    +0.139 C 
ATOM     33  C   LIG    1       24.643 -15.968   3.314  0.00  0.00    +0.270 C 
ATOM     34  O   LIG    1       24.073 -14.706   3.645  0.00  0.00    -0.343 OA
BRANCH  32  35
ATOM     35  N   LIG    1       26.898 -16.945   2.564  0.00  0.00    -0.321 NA
ATOM     36  H   LIG    1       27.472 -17.324   3.322  0.00  0.00    +0.119 HD
ATOM     37  H   LIG    1       26.218 -17.678   2.354  0.00  0.00    +0.119 HD
ENDBRANCH  32  35
BRANCH  31  38
ATOM     38  O   LIG    1       28.207 -14.995   4.235  0.00  0.00    -0.387 OA
ATOM     39  H   LIG    1       28.637 -15.111   5.098  0.00  0.00    +0.210 HD
ENDBRANCH  31  38
BRANCH  30  40
ATOM     40  O   LIG    1       26.583 -13.602   6.158  0.00  0.00    -0.387 OA
ATOM     41  H   LIG    1       26.020 -14.071   6.807  0.00  0.00    +0.210 HD
ENDBRANCH  30  40
BRANCH  29  42
ATOM     42  C   LIG    1       23.801 -12.833   5.119  0.00  0.00    +0.112 C 
BRANCH  42  43
ATOM     43  N   LIG    1       23.775 -11.890   3.992  0.00  0.00    -0.328 NA
ATOM     44  H   LIG    1       24.626 -11.329   3.985  0.00  0.00    +0.118 HD
ATOM     45  H   LIG    1       22.984 -11.257   4.085  0.00  0.00    +0.118 HD
ENDBRANCH  42  43
ENDBRANCH  29  42
ENDBRANCH  28  33
ENDBRANCH   1  28
TORSDOF 16
ENDMDL
MODEL 5
REMARK VINA RESULT:       6.6      2.182      7.165
REMARK  Name = *****
REMARK                            x       y       z     vdW  Elec       q    Type
REMARK                         _______ _______ _______ _____ _____    ______ ____
ROOT
ATOM      1  C   LIG    1       26.510 -15.086   4.370  0.00  0.00    +0.169 C 
ATOM      2  C   LIG    1       27.303 -15.050   3.019  0.00  0.00    +0.084 C 
ATOM      3  C   LIG    1       27.920 -13.702   2.622  0.00  0.00    +0.042 C 
ATOM      4  C   LIG    1       28.687 -13.154   3.808  0.00  0.00    +0.084 C 
ATOM      5  C   LIG    1       27.680 -12.791   4.897  0.00  0.00    +0.163 C 
ATOM      6  C   LIG    1       26.900 -14.006   5.437  0.00  0.00    +0.182 C 
ENDROOT
BRANCH   2   7
ATOM      7  N   LIG    1       26.478 -15.528   1.887  0.00  0.00    -0.325 NA
ATOM      8  H   LIG    1       25.552 -15.810   2.231  0.00  0.00    +0.118 HD
ATOM      9  H   LIG    1       26.889 -16.358   1.464  0.00  0.00    +0.118 HD
ENDBRANCH   2   7
BRANCH   4  10
ATOM     10  N   LIG    1       29.474 -11.958   3.457  0.00  0.00    -0.325 NA
ATOM     11  H   LIG    1       28.983 -11.430   2.733  0.00  0.00    +0.118 HD
ATOM     12  H   LIG    1       29.542 -11.333   4.259  0.00  0.00    +0.118 HD
ENDBRANCH   4  10
BRANCH   5  13
ATOM     13  O   LIG    1       28.423 -12.170   5.960  0.00  0.00    -0.388 OA
ATOM     14  H   LIG    1       29.028 -11.540   5.514  0.00  0.00    +0.210 HD
ENDBRANCH   5  13
BRANCH   6  15
ATOM     15  O   LIG    1       25.642 -13.582   6.052  0.00  0.00    -0.340 OA
BRANCH  15  16
ATOM     16  C   LIG    1       24.758 -12.861   5.186  0.00  0.00    +0.282 C 
ATOM     17  C   LIG    1       25.189 -13.053   3.715  0.00  0.00    +0.201 C 
ATOM     18  C   LIG    1       23.857 -13.237   3.007  0.00  0.00    +0.179 C 
ATOM     19  C   LIG    1       22.979 -13.884   4.070  0.00  0.00    +0.178 C 
ATOM     20  O   LIG    1       23.431 -13.371   5.334  0.00  0.00    -0.341 OA
BRANCH  18  21
ATOM     21  O   LIG    1       23.312 -11.958   2.638  0.00  0.00    -0.386 OA
ATOM     22  H   LIG    1       22.361 -12.099   2.450  0.00  0.00    +0.210 HD
ENDBRANCH  18  21
BRANCH  17  23
ATOM     23  O   LIG    1       25.882 -11.918   3.178  0.00  0.00    -0.384 OA
ATOM     24  H   LIG    1       26.832 -12.101   3.280  0.00  0.00    +0.210 HD
ENDBRANCH  17  23
BRANCH  19  25
ATOM     25  C   LIG    1       23.094 -15.413   4.119  0.00  0.00    +0.190 C 
BRANCH  25  26
ATOM     26  O   LIG    1       22.366 -15.973   5.205  0.00  0.00    -0.392 OA
ATOM     27  H   LIG    1       21.469 -16.198   4.895  0.00  0.00    +0.209 HD
ENDBRANCH  25  26
ENDBRANCH  19  25
ENDBRANCH  15  16
ENDBRANCH   6  15
BRANCH   1  28
ATOM     28  O   LIG    1       26.720 -16.446   4.882  0.00  0.00    -0.342 OA
BRANCH  28  33
ATOM     29  C   LIG    1       28.124 -18.832   5.687  0.00  0.00    +0.166 C 
ATOM     30  C   LIG    1       27.049 -19.901   5.417  0.00  0.00    +0.175 C 
ATOM     31  C   LIG    1       25.832 -19.277   4.718  0.00  0.00    +0.167 C 
ATOM     32  C   LIG    1       26.279 -18.455   3.494  0.00  0.00    +0.139 C 
ATOM     33  C   LIG    1       27.303 -17.379   3.969  0.00  0.00    +0.270 C 
ATOM     34  O   LIG    1       28.430 -18.051   4.520  0.00  0.00    -0.343 OA
BRANCH  32  35
ATOM     35  N   LIG    1       25.121 -17.938   2.732  0.00  0.00    -0.321 NA
ATOM     36  H   LIG    1       24.290 -18.031   3.324  0.00  0.00    +0.119 HD
ATOM     37  H   LIG    1       25.242 -16.932   2.601  0.00  0.00    +0.119 HD
ENDBRANCH  32  35
BRANCH  31  38
ATOM     38  O   LIG    1       24.927 -20.333   4.325  0.00  0.00    -0.387 OA
ATOM     39  H   LIG    1       25.032 -20.477   3.371  0.00  0.00    +0.210 HD
ENDBRANCH  31  38
BRANCH  30  40
ATOM     40  O   LIG    1       26.628 -20.522   6.637  0.00  0.00    -0.387 OA
ATOM     41  H   LIG    1       27.173 -21.328   6.743  0.00  0.00    +0.210 HD
ENDBRANCH  30  40
BRANCH  29  42
ATOM     42  C   LIG    1       29.459 -19.425   6.196  0.00  0.00    +0.112 C 
BRANCH  42  43
ATOM     43  N   LIG    1       29.392 -20.800   6.709  0.00  0.00    -0.328 NA
ATOM     44  H   LIG    1       28.420 -21.080   6.835  0.00  0.00    +0.118 HD
ATOM     45  H   LIG    1       29.855 -20.859   7.613  0.00  0.00    +0.118 HD
ENDBRANCH  42  43
ENDBRANCH  29  42
ENDBRANCH  28  33
ENDBRANCH   1  28
TORSDOF 16
ENDMDL
MODEL 6
REMARK VINA RESULT:       6.8      1.995      3.844
REMARK  Name = *****
REMARK                            x       y       z     vdW  Elec       q    Type
REMARK                         _______ _______ _______ _____ _____    ______ ____
ROOT
ATOM      1  C   LIG    1       26.976 -16.513   3.993  0.00  0.00    +0.169 C 
ATOM      2  C   LIG    1       28.352 -16.486   4.743  0.00  0.00    +0.084 C 
ATOM      3  C   LIG    1       28.627 -17.645   5.711  0.00  0.00    +0.042 C 
ATOM      4  C   LIG    1       28.333 -18.949   4.999  0.00  0.00    +0.084 C 
ATOM      5  C   LIG    1       26.827 -19.025   4.753  0.00  0.00    +0.163 C 
ATOM      6  C   LIG    1       26.305 -17.918   3.817  0.00  0.00    +0.182 C 
ENDROOT
BRANCH   2   7
ATOM      7  N   LIG    1       28.550 -15.217   5.479  0.00  0.00    -0.325 NA
ATOM      8  H   LIG    1       28.207 -15.321   6.443  0.00  0.00    +0.118 HD
ATOM      9  H   LIG    1       28.002 -14.468   5.063  0.00  0.00    +0.118 HD
ENDBRANCH   2   7
BRANCH   4  10
ATOM     10  N   LIG    1       28.755 -20.121   5.788  0.00  0.00    -0.325 NA
ATOM     11  H   LIG    1       28.018 -20.827   5.767  0.00  0.00    +0.118 HD
ATOM     12  H   LIG    1       29.571 -20.558   5.360  0.00  0.00    +0.118 HD
ENDBRANCH   4  10
BRANCH   5  13
ATOM     13  O   LIG    1       26.564 -20.318   4.182  0.00  0.00    -0.388 OA
ATOM     14  H   LIG    1       26.207 -20.856   4.921  0.00  0.00    +0.210 HD
ENDBRANCH   5  13
BRANCH   6  15
ATOM     15  O   LIG    1       24.871 -17.702   4.020  0.00  0.00    -0.340 OA
BRANCH  15  16
ATOM     16  C   LIG    1       24.024 -18.718   3.471  0.00  0.00    +0.282 C 
ATOM     17  C   LIG    1       24.834 -20.014   3.244  0.00  0.00    +0.201 C 
ATOM     18  C   LIG    1       23.865 -21.088   3.709  0.00  0.00    +0.179 C 
ATOM     19  C   LIG    1       23.048 -20.385   4.784  0.00  0.00    +0.178 C 
ATOM     20  O   LIG    1       22.971 -19.005   4.394  0.00  0.00    -0.341 OA
BRANCH  18  21
ATOM     21  O   LIG    1       23.007 -21.483   2.625  0.00  0.00    -0.386 OA
ATOM     22  H   LIG    1       23.523 -21.377   1.800  0.00  0.00    +0.210 HD
ENDBRANCH  18  21
BRANCH  17  23
ATOM     23  O   LIG    1       25.185 -20.225   1.869  0.00  0.00    -0.384 OA
ATOM     24  H   LIG    1       25.927 -19.625   1.678  0.00  0.00    +0.210 HD
ENDBRANCH  17  23
BRANCH  19  25
ATOM     25  C   LIG    1       23.683 -20.442   6.179  0.00  0.00    +0.190 C 
BRANCH  25  26
ATOM     26  O   LIG    1       24.646 -21.482   6.291  0.00  0.00    -0.392 OA
ATOM     27  H   LIG    1       24.181 -22.317   6.484  0.00  0.00    +0.209 HD
ENDBRANCH  25  26
ENDBRANCH  19  25
ENDBRANCH  15  16
ENDBRANCH   6  15
BRANCH   1  28
ATOM     28  O   LIG    1       27.254 -15.885   2.696  0.00  0.00    -0.342 OA
BRANCH  28  33
ATOM     29  C   LIG    1       25.319 -14.695   4.473  0.00  0.00    +0.166 C 
ATOM     30  C   LIG    1       26.168 -13.584   5.116  0.00  0.00    +0.175 C 
ATOM     31  C   LIG    1       27.544 -13.498   4.441  0.00  0.00    +0.167 C 
ATOM     32  C   LIG    1       27.388 -13.416   2.911  0.00  0.00    +0.139 C 
ATOM     33  C   LIG    1       26.572 -14.655   2.432  0.00  0.00    +0.270 C 
ATOM     34  O   LIG    1       25.286 -14.603   3.038  0.00  0.00    -0.343 OA
BRANCH  32  35
ATOM     35  N   LIG    1       28.690 -13.214   2.240  0.00  0.00    -0.321 NA
ATOM     36  H   LIG    1       29.342 -13.916   2.601  0.00  0.00    +0.119 HD
ATOM     37  H   LIG    1       28.583 -13.438   1.249  0.00  0.00    +0.119 HD
ENDBRANCH  32  35
BRANCH  31  38
ATOM     38  O   LIG    1       28.242 -12.338   4.949  0.00  0.00    -0.387 OA
ATOM     39  H   LIG    1       28.267 -11.671   4.243  0.00  0.00    +0.210 HD
ENDBRANCH  31  38
BRANCH  30  40
ATOM     40  O   LIG    1       26.341 -13.821   6.518  0.00  0.00    -0.387 OA
ATOM     41  H   LIG    1       25.458 -14.047   6.875  0.00  0.00    +0.210 HD
ENDBRANCH  30  40
BRANCH  29  42
ATOM     42  C   LIG    1       23.851 -14.701   4.959  0.00  0.00    +0.112 C 
BRANCH  42  43
ATOM     43  N   LIG    1       22.945 -15.608   4.241  0.00  0.00    -0.328 NA
ATOM     44  H   LIG    1       23.061 -15.495   3.235  0.00  0.00    +0.118 HD
ATOM     45  H   LIG    1       21.978 -15.390   4.471  0.00  0.00    +0.118 HD
ENDBRANCH  42  43
ENDBRANCH  29  42
ENDBRANCH  28  33
ENDBRANCH   1  28
TORSDOF 16
ENDMDL
MODEL 7
REMARK VINA RESULT:       6.9      2.031      4.284
REMARK  Name = *****
REMARK                            x       y       z     vdW  Elec       q    Type
REMARK                         _______ _______ _______ _____ _____    ______ ____
ROOT
ATOM      1  C   LIG    1       26.615 -16.610   3.832  0.00  0.00    +0.169 C 
ATOM      2  C   LIG    1       27.988 -16.509   4.581  0.00  0.00    +0.084 C 
ATOM      3  C   LIG    1       28.356 -17.681   5.500  0.00  0.00    +0.042 C 
ATOM      4  C   LIG    1       28.159 -18.974   4.737  0.00  0.00    +0.084 C 
ATOM      5  C   LIG    1       26.662 -19.156   4.490  0.00  0.00    +0.163 C 
ATOM      6  C   LIG    1       26.053 -18.054   3.600  0.00  0.00    +0.182 C 
ENDROOT
BRANCH   2   7
ATOM      7  N   LIG    1       28.092 -15.259   5.367  0.00  0.00    -0.325 NA
ATOM      8  H   LIG    1       28.217 -15.488   6.362  0.00  0.00    +0.118 HD
ATOM      9  H   LIG    1       27.231 -14.720   5.306  0.00  0.00    +0.118 HD
ENDBRANCH   2   7
BRANCH   4  10
ATOM     10  N   LIG    1       28.674 -20.141   5.477  0.00  0.00    -0.325 NA
ATOM     11  H   LIG    1       28.390 -20.073   6.456  0.00  0.00    +0.118 HD
ATOM     12  H   LIG    1       28.250 -20.998   5.123  0.00  0.00    +0.118 HD
ENDBRANCH   4  10
BRANCH   5  13
ATOM     13  O   LIG    1       26.497 -20.441   3.867  0.00  0.00    -0.388 OA
ATOM     14  H   LIG    1       25.546 -20.490   3.631  0.00  0.00    +0.210 HD
ENDBRANCH   5  13
BRANCH   6  15
ATOM     15  O   LIG    1       24.608 -17.958   3.813  0.00  0.00    -0.340 OA
BRANCH  15  16
ATOM     16  C   LIG    1       23.922 -19.214   3.887  0.00  0.00    +0.282 C 
ATOM     17  C   LIG    1       23.337 -19.412   5.302  0.00  0.00    +0.201 C 
ATOM     18  C   LIG    1       21.968 -20.003   5.008  0.00  0.00    +0.179 C 
ATOM     19  C   LIG    1       21.605 -19.396   3.659  0.00  0.00    +0.178 C 
ATOM     20  O   LIG    1       22.842 -19.217   2.951  0.00  0.00    -0.341 OA
BRANCH  18  21
ATOM     21  O   LIG    1       22.061 -21.433   4.889  0.00  0.00    -0.386 OA
ATOM     22  H   LIG    1       21.730 -21.809   5.730  0.00  0.00    +0.210 HD
ENDBRANCH  18  21
BRANCH  17  23
ATOM     23  O   LIG    1       24.104 -20.319   6.107  0.00  0.00    -0.384 OA
ATOM     24  H   LIG    1       25.030 -20.224   5.823  0.00  0.00    +0.210 HD
ENDBRANCH  17  23
BRANCH  19  25
ATOM     25  C   LIG    1       20.924 -18.026   3.761  0.00  0.00    +0.190 C 
BRANCH  25  26
ATOM     26  O   LIG    1       19.704 -17.975   3.032  0.00  0.00    -0.392 OA
ATOM     27  H   LIG    1       18.962 -18.012   3.664  0.00  0.00    +0.209 HD
ENDBRANCH  25  26
ENDBRANCH  19  25
ENDBRANCH  15  16
ENDBRANCH   6  15
BRANCH   1  28
ATOM     28  O   LIG    1       26.838 -15.912   2.561  0.00  0.00    -0.342 OA
BRANCH  28  33
ATOM     29  C   LIG    1       25.084 -14.749   4.533  0.00  0.00    +0.166 C 
ATOM     30  C   LIG    1       25.941 -13.563   5.013  0.00  0.00    +0.175 C 
ATOM     31  C   LIG    1       27.209 -13.433   4.157  0.00  0.00    +0.167 C 
ATOM     32  C   LIG    1       26.849 -13.432   2.659  0.00  0.00    +0.139 C 
ATOM     33  C   LIG    1       26.054 -14.735   2.342  0.00  0.00    +0.270 C 
ATOM     34  O   LIG    1       24.858 -14.726   3.113  0.00  0.00    -0.343 OA
BRANCH  32  35
ATOM     35  N   LIG    1       28.037 -13.190   1.813  0.00  0.00    -0.321 NA
ATOM     36  H   LIG    1       28.822 -13.705   2.220  0.00  0.00    +0.119 HD
ATOM     37  H   LIG    1       27.880 -13.624   0.901  0.00  0.00    +0.119 HD
ENDBRANCH  32  35
BRANCH  31  38
ATOM     38  O   LIG    1       27.895 -12.213   4.521  0.00  0.00    -0.387 OA
ATOM     39  H   LIG    1       28.376 -11.897   3.740  0.00  0.00    +0.210 HD
ENDBRANCH  31  38
BRANCH  30  40
ATOM     40  O   LIG    1       26.311 -13.724   6.387  0.00  0.00    -0.387 OA
ATOM     41  H   LIG    1       25.543 -13.432   6.920  0.00  0.00    +0.210 HD
ENDBRANCH  30  40
BRANCH  29  42
ATOM     42  C   LIG    1       23.696 -14.812   5.210  0.00  0.00    +0.112 C 
BRANCH  42  43
ATOM     43  N   LIG    1       22.729 -15.734   4.598  0.00  0.00    -0.328 NA
ATOM     44  H   LIG    1       21.793 -15.332   4.630  0.00  0.00    +0.118 HD
ATOM     45  H   LIG    1       22.711 -16.613   5.110  0.00  0.00    +0.118 HD
ENDBRANCH  42  43
ENDBRANCH  29  42
ENDBRANCH  28  33
ENDBRANCH   1  28
TORSDOF 16
ENDMDL
MODEL 8
REMARK VINA RESULT:       7.3      1.928      3.014
REMARK  Name = *****
REMARK                            x       y       z     vdW  Elec       q    Type
REMARK                         _______ _______ _______ _____ _____    ______ ____
ROOT
ATOM      1  C   LIG    1       23.649 -18.575   3.447  0.00  0.00    +0.169 C 
ATOM      2  C   LIG    1       22.160 -18.559   3.935  0.00  0.00    +0.084 C 
ATOM      3  C   LIG    1       21.738 -19.690   4.883  0.00  0.00    +0.042 C 
ATOM      4  C   LIG    1       22.756 -19.790   6.000  0.00  0.00    +0.084 C 
ATOM      5  C   LIG    1       24.071 -20.285   5.399  0.00  0.00    +0.163 C 
ATOM      6  C   LIG    1       24.678 -19.309   4.372  0.00  0.00    +0.182 C 
ENDROOT
BRANCH   2   7
ATOM      7  N   LIG    1       21.211 -18.535   2.799  0.00  0.00    -0.325 NA
ATOM      8  H   LIG    1       21.734 -18.484   1.915  0.00  0.00    +0.118 HD
ATOM      9  H   LIG    1       20.628 -17.703   2.832  0.00  0.00    +0.118 HD
ENDBRANCH   2   7
BRANCH   4  10
ATOM     10  N   LIG    1       22.328 -20.718   7.062  0.00  0.00    -0.325 NA
ATOM     11  H   LIG    1       22.755 -20.440   7.947  0.00  0.00    +0.118 HD
ATOM     12  H   LIG    1       21.321 -20.650   7.205  0.00  0.00    +0.118 HD
ENDBRANCH   4  10
BRANCH   5  13
ATOM     13  O   LIG    1       24.981 -20.479   6.495  0.00  0.00    -0.388 OA
ATOM     14  H   LIG    1       25.873 -20.324   6.116  0.00  0.00    +0.210 HD
ENDBRANCH   5  13
BRANCH   6  15
ATOM     15  O   LIG    1       25.594 -20.010   3.471  0.00  0.00    -0.340 OA
BRANCH  15  16
ATOM     16  C   LIG    1       26.968 -19.616   3.579  0.00  0.00    +0.282 C 
ATOM     17  C   LIG    1       27.066 -18.221   4.233  0.00  0.00    +0.201 C 
ATOM     18  C   LIG    1       28.246 -18.386   5.175  0.00  0.00    +0.179 C 
ATOM     19  C   LIG    1       28.194 -19.860   5.551  0.00  0.00    +0.178 C 
ATOM     20  O   LIG    1       27.663 -20.549   4.408  0.00  0.00    -0.341 OA
BRANCH  18  21
ATOM     21  O   LIG    1       29.475 -18.103   4.483  0.00  0.00    -0.386 OA
ATOM     22  H   LIG    1       30.188 -18.116   5.154  0.00  0.00    +0.210 HD
ENDBRANCH  18  21
BRANCH  17  23
ATOM     23  O   LIG    1       27.328 -17.173   3.289  0.00  0.00    -0.384 OA
ATOM     24  H   LIG    1       28.241 -16.877   3.452  0.00  0.00    +0.210 HD
ENDBRANCH  17  23
BRANCH  19  25
ATOM     25  C   LIG    1       27.279 -20.162   6.745  0.00  0.00    +0.190 C 
BRANCH  25  26
ATOM     26  O   LIG    1       27.246 -21.548   7.061  0.00  0.00    -0.392 OA
ATOM     27  H   LIG    1       26.856 -22.029   6.308  0.00  0.00    +0.209 HD
ENDBRANCH  25  26
ENDBRANCH  19  25
ENDBRANCH  15  16
ENDBRANCH   6  15
BRANCH   1  28
ATOM     28  O   LIG    1       23.995 -17.158   3.279  0.00  0.00    -0.342 OA
BRANCH  28  33
ATOM     29  C   LIG    1       25.897 -14.991   3.309  0.00  0.00    +0.166 C 
ATOM     30  C   LIG    1       24.952 -13.784   3.449  0.00  0.00    +0.175 C 
ATOM     31  C   LIG    1       23.507 -14.253   3.669  0.00  0.00    +0.167 C 
ATOM     32  C   LIG    1       23.445 -15.285   4.811  0.00  0.00    +0.139 C 
ATOM     33  C   LIG    1       24.402 -16.465   4.462  0.00  0.00    +0.270 C 
ATOM     34  O   LIG    1       25.725 -15.951   4.366  0.00  0.00    -0.343 OA
BRANCH  32  35
ATOM     35  N   LIG    1       22.051 -15.668   5.125  0.00  0.00    -0.321 NA
ATOM     36  H   LIG    1       21.430 -15.088   4.553  0.00  0.00    +0.119 HD
ATOM     37  H   LIG    1       21.895 -16.623   4.798  0.00  0.00    +0.119 HD
ENDBRANCH  32  35
BRANCH  31  38
ATOM     38  O   LIG    1       22.683 -13.103   3.969  0.00  0.00    -0.387 OA
ATOM     39  H   LIG    1       21.913 -13.412   4.474  0.00  0.00    +0.210 HD
ENDBRANCH  31  38
BRANCH  30  40
ATOM     40  O   LIG    1       25.009 -12.953   2.283  0.00  0.00    -0.387 OA
ATOM     41  H   LIG    1       24.973 -12.027   2.598  0.00  0.00    +0.210 HD
ENDBRANCH  30  40
BRANCH  29  42
ATOM     42  C   LIG    1       27.393 -14.598   3.296  0.00  0.00    +0.112 C 
BRANCH  42  43
ATOM     43  N   LIG    1       27.736 -13.370   4.026  0.00  0.00    -0.328 NA
ATOM     44  H   LIG    1       27.070 -13.215   4.782  0.00  0.00    +0.118 HD
ATOM     45  H   LIG    1       27.694 -12.569   3.402  0.00  0.00    +0.118 HD
ENDBRANCH  42  43
ENDBRANCH  29  42
ENDBRANCH  28  33
ENDBRANCH   1  28
TORSDOF 16
ENDMDL
MODEL 9
REMARK VINA RESULT:       7.6      2.115      6.155
REMARK  Name = *****
REMARK                            x       y       z     vdW  Elec       q    Type
REMARK                         _______ _______ _______ _____ _____    ______ ____
ROOT
ATOM      1  C   LIG    1       23.198 -16.012   4.877  0.00  0.00    +0.169 C 
ATOM      2  C   LIG    1       22.428 -14.857   5.606  0.00  0.00    +0.084 C 
ATOM      3  C   LIG    1       22.971 -13.436   5.401  0.00  0.00    +0.042 C 
ATOM      4  C   LIG    1       23.176 -13.207   3.918  0.00  0.00    +0.084 C 
ATOM      5  C   LIG    1       24.319 -14.108   3.453  0.00  0.00    +0.163 C 
ATOM      6  C   LIG    1       24.009 -15.610   3.598  0.00  0.00    +0.182 C 
ENDROOT
BRANCH   2   7
ATOM      7  N   LIG    1       22.323 -15.102   7.062  0.00  0.00    -0.325 NA
ATOM      8  H   LIG    1       22.930 -15.891   7.322  0.00  0.00    +0.118 HD
ATOM      9  H   LIG    1       21.377 -15.376   7.316  0.00  0.00    +0.118 HD
ENDBRANCH   2   7
BRANCH   4  10
ATOM     10  N   LIG    1       23.510 -11.804   3.613  0.00  0.00    -0.325 NA
ATOM     11  H   LIG    1       23.437 -11.245   4.465  0.00  0.00    +0.118 HD
ATOM     12  H   LIG    1       24.482 -11.729   3.315  0.00  0.00    +0.118 HD
ENDBRANCH   4  10
BRANCH   5  13
ATOM     13  O   LIG    1       24.567 -13.786   2.073  0.00  0.00    -0.388 OA
ATOM     14  H   LIG    1       25.016 -12.915   2.091  0.00  0.00    +0.210 HD
ENDBRANCH   5  13
BRANCH   6  15
ATOM     15  O   LIG    1       25.246 -16.391   3.651  0.00  0.00    -0.340 OA
BRANCH  15  16
ATOM     16  C   LIG    1       26.438 -15.658   3.342  0.00  0.00    +0.282 C 
ATOM     17  C   LIG    1       26.782 -14.699   4.502  0.00  0.00    +0.201 C 
ATOM     18  C   LIG    1       28.291 -14.844   4.608  0.00  0.00    +0.179 C 
ATOM     19  C   LIG    1       28.539 -16.275   4.152  0.00  0.00    +0.178 C 
ATOM     20  O   LIG    1       27.525 -16.571   3.179  0.00  0.00    -0.341 OA
BRANCH  18  21
ATOM     21  O   LIG    1       28.940 -13.927   3.710  0.00  0.00    -0.386 OA
ATOM     22  H   LIG    1       28.259 -13.615   3.081  0.00  0.00    +0.210 HD
ENDBRANCH  18  21
BRANCH  17  23
ATOM     23  O   LIG    1       26.434 -13.334   4.227  0.00  0.00    -0.384 OA
ATOM     24  H   LIG    1       25.789 -13.355   3.499  0.00  0.00    +0.210 HD
ENDBRANCH  17  23
BRANCH  19  25
ATOM     25  C   LIG    1       28.423 -17.311   5.277  0.00  0.00    +0.190 C 
BRANCH  25  26
ATOM     26  O   LIG    1       28.967 -18.572   4.907  0.00  0.00    -0.392 OA
ATOM     27  H   LIG    1       28.297 -19.261   5.073  0.00  0.00    +0.209 HD
ENDBRANCH  25  26
ENDBRANCH  19  25
ENDBRANCH  15  16
ENDBRANCH   6  15
BRANCH   1  28
ATOM     28  O   LIG    1       22.161 -17.003   4.565  0.00  0.00    -0.342 OA
BRANCH  28  33
ATOM     29  C   LIG    1       23.866 -19.318   4.776  0.00  0.00    +0.166 C 
ATOM     30  C   LIG    1       22.815 -20.441   4.851  0.00  0.00    +0.175 C 
ATOM     31  C   LIG    1       21.406 -19.876   4.622  0.00  0.00    +0.167 C 
ATOM     32  C   LIG    1       21.373 -19.016   3.345  0.00  0.00    +0.139 C 
ATOM     33  C   LIG    1       22.445 -17.891   3.480  0.00  0.00    +0.270 C 
ATOM     34  O   LIG    1       23.722 -18.506   3.598  0.00  0.00    -0.343 OA
BRANCH  32  35
ATOM     35  N   LIG    1       20.003 -18.554   3.034  0.00  0.00    -0.321 NA
ATOM     36  H   LIG    1       19.969 -18.320   2.038  0.00  0.00    +0.119 HD
ATOM     37  H   LIG    1       19.362 -19.343   3.142  0.00  0.00    +0.119 HD
ENDBRANCH  32  35
BRANCH  31  38
ATOM     38  O   LIG    1       20.472 -20.976   4.525  0.00  0.00    -0.387 OA
ATOM     39  H   LIG    1       20.814 -21.706   5.067  0.00  0.00    +0.210 HD
ENDBRANCH  31  38
BRANCH  30  40
ATOM     40  O   LIG    1       22.862 -21.100   6.122  0.00  0.00    -0.387 OA
ATOM     41  H   LIG    1       22.637 -22.038   5.959  0.00  0.00    +0.210 HD
ENDBRANCH  30  40
BRANCH  29  42
ATOM     42  C   LIG    1       25.321 -19.842   4.788  0.00  0.00    +0.112 C 
BRANCH  42  43
ATOM     43  N   LIG    1       26.182 -19.359   3.700  0.00  0.00    -0.328 NA
ATOM     44  H   LIG    1       26.285 -18.347   3.758  0.00  0.00    +0.118 HD
ATOM     45  H   LIG    1       25.764 -19.580   2.799  0.00  0.00    +0.118 HD
ENDBRANCH  42  43
ENDBRANCH  29  42
ENDBRANCH  28  33
ENDBRANCH   1  28
TORSDOF 16
ENDMDL
