MODEL 1
REMARK VINA RESULT:      -5.7      0.000      0.000
REMARK  Name = *****
REMARK                            x       y       z     vdW  Elec       q    Type
REMARK                         _______ _______ _______ _____ _____    ______ ____
ROOT
ATOM      1  C   LIG    1       25.652 -19.157   3.917  0.00  0.00    +0.150 A 
ATOM      2  C   LIG    1       26.206 -19.939   4.955  0.00  0.00    +0.147 A 
ATOM      3  C   LIG    1       25.425 -20.978   5.435  0.00  0.00    +0.163 A 
ATOM      4  N   LIG    1       26.167 -21.566   6.417  0.00  0.00    -0.329 N 
ATOM      5  H   LIG    1       25.876 -22.356   6.972  0.00  0.00    +0.168 HD
ATOM      6  C   LIG    1       27.348 -20.880   6.507  0.00  0.00    +0.198 A 
ATOM      7  N   LIG    1       24.197 -21.340   5.039  0.00  0.00    -0.216 NA
ATOM      8  C   LIG    1       23.762 -20.530   4.057  0.00  0.00    +0.225 A 
ATOM      9  N   LIG    1       27.414 -19.897   5.628  0.00  0.00    -0.231 NA
ATOM     10  N   LIG    1       24.404 -19.489   3.485  0.00  0.00    -0.219 NA
ENDROOT
BRANCH   1  11
ATOM     11  N   LIG    1       26.319 -18.064   3.348  0.00  0.00    -0.320 N 
ATOM     12  H   LIG    1       26.735 -18.317   2.455  0.00  0.00    +0.148 HD
BRANCH  11  13
ATOM     13  C   LIG    1       25.537 -16.834   3.333  0.00  0.00    +0.177 C 
BRANCH  13  16
ATOM     14  C   LIG    1       27.761 -13.861   3.527  0.00  0.00    +0.041 A 
ATOM     15  C   LIG    1       27.447 -15.150   4.019  0.00  0.00    +0.046 A 
ATOM     16  C   LIG    1       26.358 -15.591   3.295  0.00  0.00    +0.122 A 
ATOM     17  O   LIG    1       25.989 -14.640   2.386  0.00  0.00    -0.466 OA
ATOM     18  C   LIG    1       26.844 -13.595   2.536  0.00  0.00    +0.195 A 
ENDBRANCH  13  16
ENDBRANCH  11  13
ENDBRANCH   1  11
TORSDOF 3
ENDMDL
MODEL 2
REMARK VINA RESULT:      -5.4      1.192      1.380
REMARK  Name = *****
REMARK                            x       y       z     vdW  Elec       q    Type
REMARK                         _______ _______ _______ _____ _____    ______ ____
ROOT
ATOM      1  C   LIG    1       24.922 -18.853   3.793  0.00  0.00    +0.150 A 
ATOM      2  C   LIG    1       25.361 -19.737   4.804  0.00  0.00    +0.147 A 
ATOM      3  C   LIG    1       24.377 -20.353   5.561  0.00  0.00    +0.163 A 
ATOM      4  N   LIG    1       25.045 -21.137   6.456  0.00  0.00    -0.329 N 
ATOM      5  H   LIG    1       24.613 -21.716   7.158  0.00  0.00    +0.168 HD
ATOM      6  C   LIG    1       26.384 -20.974   6.225  0.00  0.00    +0.198 A 
ATOM      7  N   LIG    1       23.048 -20.216   5.458  0.00  0.00    -0.216 NA
ATOM      8  C   LIG    1       22.739 -19.352   4.475  0.00  0.00    +0.225 A 
ATOM      9  N   LIG    1       26.614 -20.145   5.223  0.00  0.00    -0.231 NA
ATOM     10  N   LIG    1       23.577 -18.683   3.655  0.00  0.00    -0.219 NA
ENDROOT
BRANCH   1  11
ATOM     11  N   LIG    1       25.802 -18.147   2.964  0.00  0.00    -0.320 N 
ATOM     12  H   LIG    1       25.339 -17.856   2.106  0.00  0.00    +0.148 HD
BRANCH  11  13
ATOM     13  C   LIG    1       26.544 -17.094   3.646  0.00  0.00    +0.177 C 
BRANCH  13  16
ATOM     14  C   LIG    1       24.962 -13.759   3.192  0.00  0.00    +0.041 A 
ATOM     15  C   LIG    1       24.909 -15.030   3.813  0.00  0.00    +0.046 A 
ATOM     16  C   LIG    1       26.027 -15.720   3.387  0.00  0.00    +0.122 A 
ATOM     17  O   LIG    1       26.759 -14.938   2.538  0.00  0.00    -0.466 OA
ATOM     18  C   LIG    1       26.105 -13.754   2.425  0.00  0.00    +0.195 A 
ENDBRANCH  13  16
ENDBRANCH  11  13
ENDBRANCH   1  11
TORSDOF 3
ENDMDL
MODEL 3
REMARK VINA RESULT:      -5.4      1.280      2.607
REMARK  Name = *****
REMARK                            x       y       z     vdW  Elec       q    Type
REMARK                         _______ _______ _______ _____ _____    ______ ____
ROOT
ATOM      1  C   LIG    1       25.569 -18.998   4.044  0.00  0.00    +0.150 A 
ATOM      2  C   LIG    1       24.254 -19.382   4.388  0.00  0.00    +0.147 A 
ATOM      3  C   LIG    1       24.127 -20.366   5.356  0.00  0.00    +0.163 A 
ATOM      4  N   LIG    1       22.784 -20.559   5.503  0.00  0.00    -0.329 N 
ATOM      5  H   LIG    1       22.357 -21.219   6.134  0.00  0.00    +0.168 HD
ATOM      6  C   LIG    1       22.149 -19.710   4.637  0.00  0.00    +0.198 A 
ATOM      7  N   LIG    1       25.101 -21.009   6.013  0.00  0.00    -0.216 NA
ATOM      8  C   LIG    1       26.308 -20.575   5.607  0.00  0.00    +0.225 A 
ATOM      9  N   LIG    1       23.006 -18.971   3.955  0.00  0.00    -0.231 NA
ATOM     10  N   LIG    1       26.591 -19.629   4.687  0.00  0.00    -0.219 NA
ENDROOT
BRANCH   1  11
ATOM     11  N   LIG    1       25.849 -18.031   3.070  0.00  0.00    -0.320 N 
ATOM     12  H   LIG    1       25.000 -17.737   2.594  0.00  0.00    +0.148 HD
BRANCH  11  13
ATOM     13  C   LIG    1       26.694 -16.942   3.542  0.00  0.00    +0.177 C 
BRANCH  13  16
ATOM     14  C   LIG    1       24.963 -13.663   3.263  0.00  0.00    +0.041 A 
ATOM     15  C   LIG    1       25.015 -14.936   3.881  0.00  0.00    +0.046 A 
ATOM     16  C   LIG    1       26.108 -15.586   3.343  0.00  0.00    +0.122 A 
ATOM     17  O   LIG    1       26.725 -14.779   2.429  0.00  0.00    -0.466 OA
ATOM     18  C   LIG    1       26.022 -13.617   2.387  0.00  0.00    +0.195 A 
ENDBRANCH  13  16
ENDBRANCH  11  13
ENDBRANCH   1  11
TORSDOF 3
ENDMDL
MODEL 4
REMARK VINA RESULT:      -4.8      3.026      6.545
REMARK  Name = *****
REMARK                            x       y       z     vdW  Elec       q    Type
REMARK                         _______ _______ _______ _____ _____    ______ ____
ROOT
ATOM      1  C   LIG    1       25.930 -15.746   3.554  0.00  0.00    +0.150 A 
ATOM      2  C   LIG    1       25.208 -14.573   3.868  0.00  0.00    +0.147 A 
ATOM      3  C   LIG    1       25.954 -13.466   4.240  0.00  0.00    +0.163 A 
ATOM      4  N   LIG    1       25.041 -12.483   4.494  0.00  0.00    -0.329 N 
ATOM      5  H   LIG    1       25.263 -11.547   4.794  0.00  0.00    +0.168 HD
ATOM      6  C   LIG    1       23.797 -13.012   4.279  0.00  0.00    +0.198 A 
ATOM      7  N   LIG    1       27.285 -13.363   4.342  0.00  0.00    -0.216 NA
ATOM      8  C   LIG    1       27.873 -14.531   4.029  0.00  0.00    +0.225 A 
ATOM      9  N   LIG    1       23.858 -14.271   3.886  0.00  0.00    -0.231 NA
ATOM     10  N   LIG    1       27.287 -15.686   3.647  0.00  0.00    -0.219 NA
ENDROOT
BRANCH   1  11
ATOM     11  N   LIG    1       25.310 -16.945   3.181  0.00  0.00    -0.320 N 
ATOM     12  H   LIG    1       24.916 -16.876   2.245  0.00  0.00    +0.148 HD
BRANCH  11  13
ATOM     13  C   LIG    1       26.122 -18.132   3.417  0.00  0.00    +0.177 C 
BRANCH  13  16
ATOM     14  C   LIG    1       23.921 -20.991   4.318  0.00  0.00    +0.041 A 
ATOM     15  C   LIG    1       24.130 -19.859   3.492  0.00  0.00    +0.046 A 
ATOM     16  C   LIG    1       25.345 -19.322   3.867  0.00  0.00    +0.122 A 
ATOM     17  O   LIG    1       25.890 -20.064   4.877  0.00  0.00    -0.466 OA
ATOM     18  C   LIG    1       25.019 -21.071   5.143  0.00  0.00    +0.195 A 
ENDBRANCH  13  16
ENDBRANCH  11  13
ENDBRANCH   1  11
TORSDOF 3
ENDMDL
MODEL 5
REMARK VINA RESULT:      -4.3      3.688      6.545
REMARK  Name = *****
REMARK                            x       y       z     vdW  Elec       q    Type
REMARK                         _______ _______ _______ _____ _____    ______ ____
ROOT
ATOM      1  C   LIG    1       24.401 -14.248   3.882  0.00  0.00    +0.150 A 
ATOM      2  C   LIG    1       25.798 -14.097   3.739  0.00  0.00    +0.147 A 
ATOM      3  C   LIG    1       26.230 -13.179   2.796  0.00  0.00    +0.163 A 
ATOM      4  N   LIG    1       27.593 -13.223   2.845  0.00  0.00    -0.329 N 
ATOM      5  H   LIG    1       28.215 -12.673   2.273  0.00  0.00    +0.168 HD
ATOM      6  C   LIG    1       27.941 -14.149   3.791  0.00  0.00    +0.198 A 
ATOM      7  N   LIG    1       25.487 -12.407   1.992  0.00  0.00    -0.216 NA
ATOM      8  C   LIG    1       24.177 -12.633   2.203  0.00  0.00    +0.225 A 
ATOM      9  N   LIG    1       26.881 -14.689   4.364  0.00  0.00    -0.231 NA
ATOM     10  N   LIG    1       23.606 -13.483   3.082  0.00  0.00    -0.219 NA
ENDROOT
BRANCH   1  11
ATOM     11  N   LIG    1       23.820 -15.151   4.781  0.00  0.00    -0.320 N 
ATOM     12  H   LIG    1       23.624 -14.701   5.673  0.00  0.00    +0.148 HD
BRANCH  11  13
ATOM     13  C   LIG    1       22.710 -15.913   4.224  0.00  0.00    +0.177 C 
BRANCH  13  16
ATOM     14  C   LIG    1       22.923 -19.618   4.468  0.00  0.00    +0.041 A 
ATOM     15  C   LIG    1       22.177 -18.445   4.738  0.00  0.00    +0.046 A 
ATOM     16  C   LIG    1       22.916 -17.389   4.242  0.00  0.00    +0.122 A 
ATOM     17  O   LIG    1       24.073 -17.854   3.684  0.00  0.00    -0.466 OA
ATOM     18  C   LIG    1       24.068 -19.205   3.828  0.00  0.00    +0.195 A 
ENDBRANCH  13  16
ENDBRANCH  11  13
ENDBRANCH   1  11
TORSDOF 3
ENDMDL
MODEL 6
REMARK VINA RESULT:      -4.3      2.648      5.925
REMARK  Name = *****
REMARK                            x       y       z     vdW  Elec       q    Type
REMARK                         _______ _______ _______ _____ _____    ______ ____
ROOT
ATOM      1  C   LIG    1       25.255 -16.643   3.549  0.00  0.00    +0.150 A 
ATOM      2  C   LIG    1       25.852 -15.374   3.382  0.00  0.00    +0.147 A 
ATOM      3  C   LIG    1       25.077 -14.275   3.717  0.00  0.00    +0.163 A 
ATOM      4  N   LIG    1       25.862 -13.187   3.465  0.00  0.00    -0.329 N 
ATOM      5  H   LIG    1       25.587 -12.227   3.601  0.00  0.00    +0.168 HD
ATOM      6  C   LIG    1       27.061 -13.647   2.991  0.00  0.00    +0.198 A 
ATOM      7  N   LIG    1       23.821 -14.260   4.182  0.00  0.00    -0.216 NA
ATOM      8  C   LIG    1       23.347 -15.513   4.297  0.00  0.00    +0.225 A 
ATOM      9  N   LIG    1       27.097 -14.966   2.940  0.00  0.00    -0.231 NA
ATOM     10  N   LIG    1       23.977 -16.674   4.019  0.00  0.00    -0.219 NA
ENDROOT
BRANCH   1  11
ATOM     11  N   LIG    1       25.911 -17.840   3.235  0.00  0.00    -0.320 N 
ATOM     12  H   LIG    1       26.844 -17.861   3.639  0.00  0.00    +0.148 HD
BRANCH  11  13
ATOM     13  C   LIG    1       25.113 -19.036   3.477  0.00  0.00    +0.177 C 
BRANCH  13  16
ATOM     14  C   LIG    1       25.820 -21.081   6.501  0.00  0.00    +0.041 A 
ATOM     15  C   LIG    1       24.871 -20.670   5.532  0.00  0.00    +0.046 A 
ATOM     16  C   LIG    1       25.535 -19.817   4.674  0.00  0.00    +0.122 A 
ATOM     17  O   LIG    1       26.837 -19.684   5.065  0.00  0.00    -0.466 OA
ATOM     18  C   LIG    1       26.999 -20.452   6.173  0.00  0.00    +0.195 A 
ENDBRANCH  13  16
ENDBRANCH  11  13
ENDBRANCH   1  11
TORSDOF 3
ENDMDL
MODEL 7
REMARK VINA RESULT:      -4.1      2.950      5.760
REMARK  Name = *****
REMARK                            x       y       z     vdW  Elec       q    Type
REMARK                         _______ _______ _______ _____ _____    ______ ____
ROOT
ATOM      1  C   LIG    1       27.548 -20.460   6.090  0.00  0.00    +0.150 A 
ATOM      2  C   LIG    1       27.326 -19.440   5.138  0.00  0.00    +0.147 A 
ATOM      3  C   LIG    1       28.263 -18.420   5.092  0.00  0.00    +0.163 A 
ATOM      4  N   LIG    1       27.828 -17.573   4.114  0.00  0.00    -0.329 N 
ATOM      5  H   LIG    1       28.289 -16.721   3.834  0.00  0.00    +0.168 HD
ATOM      6  C   LIG    1       26.665 -18.089   3.611  0.00  0.00    +0.198 A 
ATOM      7  N   LIG    1       29.363 -18.273   5.842  0.00  0.00    -0.216 NA
ATOM      8  C   LIG    1       29.475 -19.289   6.716  0.00  0.00    +0.225 A 
ATOM      9  N   LIG    1       26.336 -19.226   4.196  0.00  0.00    -0.231 NA
ATOM     10  N   LIG    1       28.654 -20.349   6.876  0.00  0.00    -0.219 NA
ENDROOT
BRANCH   1  11
ATOM     11  N   LIG    1       26.676 -21.543   6.263  0.00  0.00    -0.320 N 
ATOM     12  H   LIG    1       27.175 -22.360   6.607  0.00  0.00    +0.148 HD
BRANCH  11  13
ATOM     13  C   LIG    1       25.461 -21.215   6.998  0.00  0.00    +0.177 C 
BRANCH  13  16
ATOM     14  C   LIG    1       22.331 -20.482   5.129  0.00  0.00    +0.041 A 
ATOM     15  C   LIG    1       23.054 -20.359   6.340  0.00  0.00    +0.046 A 
ATOM     16  C   LIG    1       24.271 -20.977   6.132  0.00  0.00    +0.122 A 
ATOM     17  O   LIG    1       24.330 -21.470   4.860  0.00  0.00    -0.466 OA
ATOM     18  C   LIG    1       23.149 -21.167   4.262  0.00  0.00    +0.195 A 
ENDBRANCH  13  16
ENDBRANCH  11  13
ENDBRANCH   1  11
TORSDOF 3
ENDMDL
MODEL 8
REMARK VINA RESULT:      -4.0      1.260      1.616
REMARK  Name = *****
REMARK                            x       y       z     vdW  Elec       q    Type
REMARK                         _______ _______ _______ _____ _____    ______ ____
ROOT
ATOM      1  C   LIG    1       26.547 -18.163   3.786  0.00  0.00    +0.150 A 
ATOM      2  C   LIG    1       26.990 -19.117   4.729  0.00  0.00    +0.147 A 
ATOM      3  C   LIG    1       26.089 -20.110   5.079  0.00  0.00    +0.163 A 
ATOM      4  N   LIG    1       26.742 -20.887   5.991  0.00  0.00    -0.329 N 
ATOM      5  H   LIG    1       26.355 -21.698   6.448  0.00  0.00    +0.168 HD
ATOM      6  C   LIG    1       27.989 -20.352   6.169  0.00  0.00    +0.198 A 
ATOM      7  N   LIG    1       24.838 -20.284   4.634  0.00  0.00    -0.216 NA
ATOM      8  C   LIG    1       24.515 -19.323   3.750  0.00  0.00    +0.225 A 
ATOM      9  N   LIG    1       28.182 -19.288   5.411  0.00  0.00    -0.231 NA
ATOM     10  N   LIG    1       25.279 -18.302   3.309  0.00  0.00    -0.219 NA
ENDROOT
BRANCH   1  11
ATOM     11  N   LIG    1       27.341 -17.094   3.353  0.00  0.00    -0.320 N 
ATOM     12  H   LIG    1       27.255 -16.960   2.348  0.00  0.00    +0.148 HD
BRANCH  11  13
ATOM     13  C   LIG    1       27.188 -15.881   4.146  0.00  0.00    +0.177 C 
BRANCH  13  16
ATOM     14  C   LIG    1       25.380 -13.180   2.340  0.00  0.00    +0.041 A 
ATOM     15  C   LIG    1       26.565 -13.944   2.468  0.00  0.00    +0.046 A 
ATOM     16  C   LIG    1       26.347 -14.833   3.501  0.00  0.00    +0.122 A 
ATOM     17  O   LIG    1       25.092 -14.654   4.011  0.00  0.00    -0.466 OA
ATOM     18  C   LIG    1       24.516 -13.649   3.302  0.00  0.00    +0.195 A 
ENDBRANCH  13  16
ENDBRANCH  11  13
ENDBRANCH   1  11
TORSDOF 3
ENDMDL
MODEL 9
REMARK VINA RESULT:      -4.0      3.163      4.341
REMARK  Name = *****
REMARK                            x       y       z     vdW  Elec       q    Type
REMARK                         _______ _______ _______ _____ _____    ______ ____
ROOT
ATOM      1  C   LIG    1       24.795 -19.473   4.182  0.00  0.00    +0.150 A 
ATOM      2  C   LIG    1       24.122 -20.229   5.167  0.00  0.00    +0.147 A 
ATOM      3  C   LIG    1       22.823 -19.847   5.465  0.00  0.00    +0.163 A 
ATOM      4  N   LIG    1       22.403 -20.713   6.432  0.00  0.00    -0.329 N 
ATOM      5  H   LIG    1       21.496 -20.699   6.871  0.00  0.00    +0.168 HD
ATOM      6  C   LIG    1       23.437 -21.571   6.692  0.00  0.00    +0.198 A 
ATOM      7  N   LIG    1       22.116 -18.842   4.933  0.00  0.00    -0.216 NA
ATOM      8  C   LIG    1       22.848 -18.185   4.015  0.00  0.00    +0.225 A 
ATOM      9  N   LIG    1       24.489 -21.319   5.936  0.00  0.00    -0.231 NA
ATOM     10  N   LIG    1       24.112 -18.439   3.616  0.00  0.00    -0.219 NA
ENDROOT
BRANCH   1  11
ATOM     11  N   LIG    1       26.115 -19.731   3.793  0.00  0.00    -0.320 N 
ATOM     12  H   LIG    1       26.176 -19.881   2.788  0.00  0.00    +0.148 HD
BRANCH  11  13
ATOM     13  C   LIG    1       27.088 -18.789   4.331  0.00  0.00    +0.177 C 
BRANCH  13  16
ATOM     14  C   LIG    1       29.475 -19.928   6.945  0.00  0.00    +0.041 A 
ATOM     15  C   LIG    1       29.132 -18.939   5.991  0.00  0.00    +0.046 A 
ATOM     16  C   LIG    1       27.952 -19.353   5.406  0.00  0.00    +0.122 A 
ATOM     17  O   LIG    1       27.557 -20.543   5.950  0.00  0.00    -0.466 OA
ATOM     18  C   LIG    1       28.487 -20.883   6.879  0.00  0.00    +0.195 A 
ENDBRANCH  13  16
ENDBRANCH  11  13
ENDBRANCH   1  11
TORSDOF 3
ENDMDL
