MODEL 1
REMARK VINA RESULT:     -10.5      0.000      0.000
REMARK  Name = *****
REMARK                            x       y       z     vdW  Elec       q    Type
REMARK                         _______ _______ _______ _____ _____    ______ ____
ROOT
ATOM      1  C   LIG    1       26.845 -21.323   7.551  0.00  0.00    +0.018 A 
ATOM      2  C   LIG    1       26.418 -22.639   7.483  0.00  0.00    +0.025 A 
ATOM      3  C   LIG    1       25.137 -23.033   7.057  0.00  0.00    +0.041 A 
ATOM      4  C   LIG    1       24.133 -22.070   7.086  0.00  0.00    +0.076 A 
ATOM      5  N   LIG    1       22.846 -22.397   6.927  0.00  0.00    -0.235 NA
ATOM      6  C   LIG    1       22.576 -23.690   6.699  0.00  0.00    +0.224 A 
ATOM      7  N   LIG    1       23.476 -24.684   6.566  0.00  0.00    -0.220 NA
ATOM      8  C   LIG    1       24.515 -20.756   7.352  0.00  0.00    +0.029 A 
ATOM      9  C   LIG    1       24.775 -24.345   6.717  0.00  0.00    +0.134 A 
ATOM     10  C   LIG    1       25.855 -20.365   7.503  0.00  0.00    +0.013 A 
ENDROOT
BRANCH   1  13
ATOM     11  C   LIG    1       29.990 -19.687   7.690  0.00  0.00    +0.119 A 
ATOM     12  O   LIG    1       28.646 -19.759   7.458  0.00  0.00    -0.458 OA
ATOM     13  C   LIG    1       28.253 -21.021   7.739  0.00  0.00    +0.135 A 
ATOM     14  C   LIG    1       29.345 -21.715   8.206  0.00  0.00    +0.050 A 
ATOM     15  C   LIG    1       30.493 -20.922   8.006  0.00  0.00    +0.046 A 
BRANCH  11  16
ATOM     16  C   LIG    1       30.599 -18.348   7.583  0.00  0.00    +0.155 C 
BRANCH  16  17
ATOM     17  N   LIG    1       31.826 -18.271   8.364  0.00  0.00    -0.308 NA
ATOM     18  H   LIG    1       32.598 -18.643   7.804  0.00  0.00    +0.122 HD
BRANCH  17  19
ATOM     19  C   LIG    1       32.106 -16.910   8.824  0.00  0.00    +0.104 C 
BRANCH  19  20
ATOM     20  C   LIG    1       32.576 -16.898  10.267  0.00  0.00    +0.180 C 
BRANCH  20  22
ATOM     21  C   LIG    1       31.967 -16.909  12.977  0.00  0.00    +0.194 C 
ATOM     22  S   LIG    1       31.215 -17.133  11.391  0.00  0.00    -0.033 S 
ATOM     23  O   LIG    1       30.248 -16.113  11.205  0.00  0.00    -0.175 OA
ATOM     24  O   LIG    1       30.824 -18.563  11.301  0.00  0.00    -0.175 OA
ENDBRANCH  20  22
ENDBRANCH  19  20
ENDBRANCH  17  19
ENDBRANCH  16  17
ENDBRANCH  11  16
ENDBRANCH   1  13
BRANCH   9  25
ATOM     25  N   LIG    1       25.714 -25.388   6.524  0.00  0.00    -0.299 N 
ATOM     26  H   LIG    1       26.561 -24.974   6.140  0.00  0.00    +0.154 HD
BRANCH  25  27
ATOM     27  C   LIG    1       25.701 -26.798   6.596  0.00  0.00    +0.034 A 
ATOM     28  C   LIG    1       26.008 -27.577   7.726  0.00  0.00    +0.047 A 
ATOM     29  C   LIG    1       25.715 -28.944   7.797  0.00  0.00    +0.084 A 
ATOM     30 CL   LIG    1       26.253 -29.905   9.145  0.00  0.00    -0.080 Cl
ATOM     31  C   LIG    1       25.124 -29.579   6.727  0.00  0.00    +0.139 A 
ATOM     32  C   LIG    1       25.098 -28.900   5.517  0.00  0.00    +0.049 A 
ATOM     33  C   LIG    1       25.377 -27.525   5.454  0.00  0.00    +0.027 A 
BRANCH  31  34
ATOM     34  O   LIG    1       24.708 -30.850   6.959  0.00  0.00    -0.486 OA
BRANCH  34  35
ATOM     35  C   LIG    1       24.467 -31.656   5.826  0.00  0.00    +0.264 C 
BRANCH  35  36
ATOM     36  C   LIG    1       25.701 -32.464   5.514  0.00  0.00    -0.008 A 
ATOM     37  C   LIG    1       26.153 -32.677   4.200  0.00  0.00    +0.045 A 
ATOM     38  C   LIG    1       27.345 -33.352   3.974  0.00  0.00    +0.124 A 
ATOM     39  F   LIG    1       27.771 -33.532   2.717  0.00  0.00    -0.205 F 
ATOM     40  C   LIG    1       28.108 -33.825   5.031  0.00  0.00    +0.038 A 
ATOM     41  C   LIG    1       27.656 -33.647   6.338  0.00  0.00    +0.003 A 
ATOM     42  C   LIG    1       26.453 -32.982   6.577  0.00  0.00    +0.007 A 
ENDBRANCH  35  36
ENDBRANCH  34  35
ENDBRANCH  31  34
ENDBRANCH  25  27
ENDBRANCH   9  25
TORSDOF 11
ENDMDL
MODEL 2
REMARK VINA RESULT:     -10.0      2.624      3.369
REMARK  Name = *****
REMARK                            x       y       z     vdW  Elec       q    Type
REMARK                         _______ _______ _______ _____ _____    ______ ____
ROOT
ATOM      1  C   LIG    1       26.684 -21.239   7.088  0.00  0.00    +0.018 A 
ATOM      2  C   LIG    1       26.312 -22.573   7.085  0.00  0.00    +0.025 A 
ATOM      3  C   LIG    1       25.003 -23.028   6.845  0.00  0.00    +0.041 A 
ATOM      4  C   LIG    1       23.971 -22.111   7.013  0.00  0.00    +0.076 A 
ATOM      5  N   LIG    1       22.691 -22.496   7.040  0.00  0.00    -0.235 NA
ATOM      6  C   LIG    1       22.450 -23.803   6.855  0.00  0.00    +0.224 A 
ATOM      7  N   LIG    1       23.366 -24.756   6.599  0.00  0.00    -0.220 NA
ATOM      8  C   LIG    1       24.326 -20.779   7.220  0.00  0.00    +0.029 A 
ATOM      9  C   LIG    1       24.657 -24.358   6.563  0.00  0.00    +0.134 A 
ATOM     10  C   LIG    1       25.654 -20.327   7.179  0.00  0.00    +0.013 A 
ENDROOT
BRANCH   1  13
ATOM     11  C   LIG    1       30.080 -20.719   7.975  0.00  0.00    +0.119 A 
ATOM     12  O   LIG    1       28.800 -21.145   8.189  0.00  0.00    -0.458 OA
ATOM     13  C   LIG    1       28.090 -20.872   7.074  0.00  0.00    +0.135 A 
ATOM     14  C   LIG    1       28.946 -20.333   6.142  0.00  0.00    +0.050 A 
ATOM     15  C   LIG    1       30.176 -20.066   6.775  0.00  0.00    +0.046 A 
BRANCH  11  16
ATOM     16  C   LIG    1       31.063 -21.056   9.021  0.00  0.00    +0.155 C 
BRANCH  16  17
ATOM     17  N   LIG    1       32.029 -19.980   9.193  0.00  0.00    -0.308 NA
ATOM     18  H   LIG    1       32.875 -20.207   8.664  0.00  0.00    +0.122 HD
BRANCH  17  19
ATOM     19  C   LIG    1       31.486 -18.678   8.799  0.00  0.00    +0.104 C 
BRANCH  19  20
ATOM     20  C   LIG    1       32.075 -17.556   9.634  0.00  0.00    +0.180 C 
BRANCH  20  22
ATOM     21  C   LIG    1       32.318 -16.686  12.261  0.00  0.00    +0.194 C 
ATOM     22  S   LIG    1       31.113 -17.275  11.106  0.00  0.00    -0.033 S 
ATOM     23  O   LIG    1       30.167 -16.244  10.882  0.00  0.00    -0.175 OA
ATOM     24  O   LIG    1       30.670 -18.607  11.593  0.00  0.00    -0.175 OA
ENDBRANCH  20  22
ENDBRANCH  19  20
ENDBRANCH  17  19
ENDBRANCH  16  17
ENDBRANCH  11  16
ENDBRANCH   1  13
BRANCH   9  25
ATOM     25  N   LIG    1       25.607 -25.359   6.242  0.00  0.00    -0.299 N 
ATOM     26  H   LIG    1       26.272 -24.955   5.587  0.00  0.00    +0.154 HD
BRANCH  25  27
ATOM     27  C   LIG    1       25.751 -26.743   6.485  0.00  0.00    +0.034 A 
ATOM     28  C   LIG    1       26.153 -27.337   7.694  0.00  0.00    +0.047 A 
ATOM     29  C   LIG    1       26.014 -28.709   7.938  0.00  0.00    +0.084 A 
ATOM     30 CL   LIG    1       26.668 -29.432   9.380  0.00  0.00    -0.080 Cl
ATOM     31  C   LIG    1       25.489 -29.532   6.966  0.00  0.00    +0.139 A 
ATOM     32  C   LIG    1       25.376 -29.015   5.684  0.00  0.00    +0.049 A 
ATOM     33  C   LIG    1       25.500 -27.636   5.447  0.00  0.00    +0.027 A 
BRANCH  31  34
ATOM     34  O   LIG    1       25.219 -30.803   7.360  0.00  0.00    -0.486 OA
BRANCH  34  35
ATOM     35  C   LIG    1       23.875 -31.102   7.664  0.00  0.00    +0.264 C 
BRANCH  35  36
ATOM     36  C   LIG    1       23.699 -31.160   9.161  0.00  0.00    -0.008 A 
ATOM     37  C   LIG    1       23.047 -30.147   9.884  0.00  0.00    +0.045 A 
ATOM     38  C   LIG    1       22.832 -30.293  11.249  0.00  0.00    +0.124 A 
ATOM     39  F   LIG    1       22.195 -29.326  11.922  0.00  0.00    -0.205 F 
ATOM     40  C   LIG    1       23.254 -31.432  11.918  0.00  0.00    +0.038 A 
ATOM     41  C   LIG    1       23.929 -32.431  11.217  0.00  0.00    +0.003 A 
ATOM     42  C   LIG    1       24.162 -32.289   9.849  0.00  0.00    +0.007 A 
ENDBRANCH  35  36
ENDBRANCH  34  35
ENDBRANCH  31  34
ENDBRANCH  25  27
ENDBRANCH   9  25
TORSDOF 11
ENDMDL
MODEL 3
REMARK VINA RESULT:      -9.8      4.299      6.211
REMARK  Name = *****
REMARK                            x       y       z     vdW  Elec       q    Type
REMARK                         _______ _______ _______ _____ _____    ______ ____
ROOT
ATOM      1  C   LIG    1       25.566 -23.950   6.591  0.00  0.00    +0.018 A 
ATOM      2  C   LIG    1       25.636 -25.174   7.235  0.00  0.00    +0.025 A 
ATOM      3  C   LIG    1       25.558 -26.417   6.582  0.00  0.00    +0.041 A 
ATOM      4  C   LIG    1       24.994 -26.433   5.310  0.00  0.00    +0.076 A 
ATOM      5  N   LIG    1       24.662 -27.579   4.707  0.00  0.00    -0.235 NA
ATOM      6  C   LIG    1       24.937 -28.712   5.370  0.00  0.00    +0.224 A 
ATOM      7  N   LIG    1       25.556 -28.810   6.562  0.00  0.00    -0.220 NA
ATOM      8  C   LIG    1       24.727 -25.201   4.714  0.00  0.00    +0.029 A 
ATOM      9  C   LIG    1       25.898 -27.648   7.161  0.00  0.00    +0.134 A 
ATOM     10  C   LIG    1       25.078 -23.976   5.301  0.00  0.00    +0.013 A 
ENDROOT
BRANCH   1  13
ATOM     11  C   LIG    1       27.216 -21.006   7.686  0.00  0.00    +0.119 A 
ATOM     12  O   LIG    1       27.059 -22.114   6.902  0.00  0.00    -0.458 OA
ATOM     13  C   LIG    1       25.924 -22.732   7.295  0.00  0.00    +0.135 A 
ATOM     14  C   LIG    1       25.343 -21.972   8.283  0.00  0.00    +0.050 A 
ATOM     15  C   LIG    1       26.255 -20.966   8.662  0.00  0.00    +0.046 A 
BRANCH  11  16
ATOM     16  C   LIG    1       28.324 -20.103   7.325  0.00  0.00    +0.155 C 
BRANCH  16  17
ATOM     17  N   LIG    1       29.586 -20.827   7.264  0.00  0.00    -0.308 NA
ATOM     18  H   LIG    1       29.544 -21.503   6.497  0.00  0.00    +0.122 HD
BRANCH  17  19
ATOM     19  C   LIG    1       30.734 -19.929   7.123  0.00  0.00    +0.104 C 
BRANCH  19  20
ATOM     20  C   LIG    1       30.421 -18.541   7.650  0.00  0.00    +0.180 C 
BRANCH  20  22
ATOM     21  C   LIG    1       30.265 -17.730  10.302  0.00  0.00    +0.194 C 
ATOM     22  S   LIG    1       31.446 -18.136   9.048  0.00  0.00    -0.033 S 
ATOM     23  O   LIG    1       32.172 -19.278   9.469  0.00  0.00    -0.175 OA
ATOM     24  O   LIG    1       32.159 -16.877   8.709  0.00  0.00    -0.175 OA
ENDBRANCH  20  22
ENDBRANCH  19  20
ENDBRANCH  17  19
ENDBRANCH  16  17
ENDBRANCH  11  16
ENDBRANCH   1  13
BRANCH   9  25
ATOM     25  N   LIG    1       26.596 -27.766   8.389  0.00  0.00    -0.299 N 
ATOM     26  H   LIG    1       27.478 -27.269   8.292  0.00  0.00    +0.154 HD
BRANCH  25  27
ATOM     27  C   LIG    1       26.431 -28.490   9.590  0.00  0.00    +0.034 A 
ATOM     28  C   LIG    1       27.071 -28.229  10.814  0.00  0.00    +0.047 A 
ATOM     29  C   LIG    1       26.660 -28.816  12.017  0.00  0.00    +0.084 A 
ATOM     30 CL   LIG    1       27.574 -28.593  13.480  0.00  0.00    -0.080 Cl
ATOM     31  C   LIG    1       25.604 -29.702  12.026  0.00  0.00    +0.139 A 
ATOM     32  C   LIG    1       25.171 -30.191  10.801  0.00  0.00    +0.049 A 
ATOM     33  C   LIG    1       25.575 -29.588   9.599  0.00  0.00    +0.027 A 
BRANCH  31  34
ATOM     34  O   LIG    1       25.160 -30.069  13.254  0.00  0.00    -0.486 OA
BRANCH  34  35
ATOM     35  C   LIG    1       23.769 -30.253  13.398  0.00  0.00    +0.264 C 
BRANCH  35  36
ATOM     36  C   LIG    1       23.082 -28.910  13.403  0.00  0.00    -0.008 A 
ATOM     37  C   LIG    1       23.749 -27.722  13.745  0.00  0.00    +0.045 A 
ATOM     38  C   LIG    1       23.094 -26.501  13.646  0.00  0.00    +0.124 A 
ATOM     39  F   LIG    1       23.748 -25.376  13.960  0.00  0.00    -0.205 F 
ATOM     40  C   LIG    1       21.779 -26.432  13.209  0.00  0.00    +0.038 A 
ATOM     41  C   LIG    1       21.097 -27.607  12.895  0.00  0.00    +0.003 A 
ATOM     42  C   LIG    1       21.741 -28.840  13.004  0.00  0.00    +0.007 A 
ENDBRANCH  35  36
ENDBRANCH  34  35
ENDBRANCH  31  34
ENDBRANCH  25  27
ENDBRANCH   9  25
TORSDOF 11
ENDMDL
MODEL 4
REMARK VINA RESULT:      -9.5      4.943      8.331
REMARK  Name = *****
REMARK                            x       y       z     vdW  Elec       q    Type
REMARK                         _______ _______ _______ _____ _____    ______ ____
ROOT
ATOM      1  C   LIG    1       24.642 -27.822   6.305  0.00  0.00    +0.018 A 
ATOM      2  C   LIG    1       25.144 -28.396   7.461  0.00  0.00    +0.025 A 
ATOM      3  C   LIG    1       25.325 -29.779   7.642  0.00  0.00    +0.041 A 
ATOM      4  C   LIG    1       24.612 -30.629   6.803  0.00  0.00    +0.076 A 
ATOM      5  N   LIG    1       24.532 -31.942   7.042  0.00  0.00    -0.235 NA
ATOM      6  C   LIG    1       25.207 -32.404   8.106  0.00  0.00    +0.224 A 
ATOM      7  N   LIG    1       25.993 -31.683   8.928  0.00  0.00    -0.220 NA
ATOM      8  C   LIG    1       23.927 -30.049   5.737  0.00  0.00    +0.029 A 
ATOM      9  C   LIG    1       26.077 -30.359   8.674  0.00  0.00    +0.134 A 
ATOM     10  C   LIG    1       24.001 -28.680   5.436  0.00  0.00    +0.013 A 
ENDROOT
BRANCH   1  13
ATOM     11  C   LIG    1       23.999 -24.333   6.263  0.00  0.00    +0.119 A 
ATOM     12  O   LIG    1       23.718 -25.636   6.561  0.00  0.00    -0.458 OA
ATOM     13  C   LIG    1       24.740 -26.388   6.099  0.00  0.00    +0.135 A 
ATOM     14  C   LIG    1       25.687 -25.543   5.568  0.00  0.00    +0.050 A 
ATOM     15  C   LIG    1       25.138 -24.246   5.507  0.00  0.00    +0.046 A 
BRANCH  11  16
ATOM     16  C   LIG    1       23.074 -23.325   6.812  0.00  0.00    +0.155 C 
BRANCH  16  17
ATOM     17  N   LIG    1       23.788 -22.356   7.631  0.00  0.00    -0.308 NA
ATOM     18  H   LIG    1       24.720 -22.721   7.839  0.00  0.00    +0.122 HD
BRANCH  17  19
ATOM     19  C   LIG    1       23.859 -21.038   6.997  0.00  0.00    +0.104 C 
BRANCH  19  20
ATOM     20  C   LIG    1       25.295 -20.628   6.728  0.00  0.00    +0.180 C 
BRANCH  20  22
ATOM     21  C   LIG    1       27.855 -20.204   7.721  0.00  0.00    +0.194 C 
ATOM     22  S   LIG    1       26.358 -21.077   8.085  0.00  0.00    -0.033 S 
ATOM     23  O   LIG    1       25.833 -20.577   9.302  0.00  0.00    -0.175 OA
ATOM     24  O   LIG    1       26.660 -22.523   7.936  0.00  0.00    -0.175 OA
ENDBRANCH  20  22
ENDBRANCH  19  20
ENDBRANCH  17  19
ENDBRANCH  16  17
ENDBRANCH  11  16
ENDBRANCH   1  13
BRANCH   9  25
ATOM     25  N   LIG    1       26.948 -29.621   9.513  0.00  0.00    -0.299 N 
ATOM     26  H   LIG    1       27.856 -29.577   9.056  0.00  0.00    +0.154 HD
BRANCH  25  27
ATOM     27  C   LIG    1       26.897 -29.092  10.822  0.00  0.00    +0.034 A 
ATOM     28  C   LIG    1       26.834 -27.731  11.167  0.00  0.00    +0.047 A 
ATOM     29  C   LIG    1       26.518 -27.298  12.461  0.00  0.00    +0.084 A 
ATOM     30 CL   LIG    1       26.605 -25.614  12.888  0.00  0.00    -0.080 Cl
ATOM     31  C   LIG    1       26.277 -28.220  13.456  0.00  0.00    +0.139 A 
ATOM     32  C   LIG    1       26.631 -29.538  13.204  0.00  0.00    +0.049 A 
ATOM     33  C   LIG    1       26.931 -29.970  11.903  0.00  0.00    +0.027 A 
BRANCH  31  34
ATOM     34  O   LIG    1       25.795 -27.712  14.619  0.00  0.00    -0.486 OA
BRANCH  34  35
ATOM     35  C   LIG    1       24.648 -28.332  15.157  0.00  0.00    +0.264 C 
BRANCH  35  36
ATOM     36  C   LIG    1       23.458 -28.031  14.281  0.00  0.00    -0.008 A 
ATOM     37  C   LIG    1       22.648 -29.040  13.734  0.00  0.00    +0.045 A 
ATOM     38  C   LIG    1       21.511 -28.706  13.009  0.00  0.00    +0.124 A 
ATOM     39  F   LIG    1       20.740 -29.679  12.508  0.00  0.00    -0.205 F 
ATOM     40  C   LIG    1       21.156 -27.379  12.813  0.00  0.00    +0.038 A 
ATOM     41  C   LIG    1       21.968 -26.368  13.326  0.00  0.00    +0.003 A 
ATOM     42  C   LIG    1       23.120 -26.692  14.044  0.00  0.00    +0.007 A 
ENDBRANCH  35  36
ENDBRANCH  34  35
ENDBRANCH  31  34
ENDBRANCH  25  27
ENDBRANCH   9  25
TORSDOF 11
ENDMDL
MODEL 5
REMARK VINA RESULT:      -9.5      5.987     10.563
REMARK  Name = *****
REMARK                            x       y       z     vdW  Elec       q    Type
REMARK                         _______ _______ _______ _____ _____    ______ ____
ROOT
ATOM      1  C   LIG    1       25.606 -29.388  10.019  0.00  0.00    +0.018 A 
ATOM      2  C   LIG    1       25.826 -28.845   8.765  0.00  0.00    +0.025 A 
ATOM      3  C   LIG    1       25.054 -29.144   7.627  0.00  0.00    +0.041 A 
ATOM      4  C   LIG    1       24.304 -30.316   7.658  0.00  0.00    +0.076 A 
ATOM      5  N   LIG    1       23.729 -30.807   6.555  0.00  0.00    -0.235 NA
ATOM      6  C   LIG    1       23.876 -30.092   5.429  0.00  0.00    +0.224 A 
ATOM      7  N   LIG    1       24.506 -28.908   5.310  0.00  0.00    -0.220 NA
ATOM      8  C   LIG    1       24.230 -30.996   8.872  0.00  0.00    +0.029 A 
ATOM      9  C   LIG    1       25.076 -28.413   6.430  0.00  0.00    +0.134 A 
ATOM     10  C   LIG    1       24.799 -30.507  10.058  0.00  0.00    +0.013 A 
ENDROOT
BRANCH   1  13
ATOM     11  C   LIG    1       26.296 -27.699  13.062  0.00  0.00    +0.119 A 
ATOM     12  O   LIG    1       25.490 -28.145  12.053  0.00  0.00    -0.458 OA
ATOM     13  C   LIG    1       26.266 -28.828  11.185  0.00  0.00    +0.135 A 
ATOM     14  C   LIG    1       27.546 -28.861  11.688  0.00  0.00    +0.050 A 
ATOM     15  C   LIG    1       27.608 -27.988  12.794  0.00  0.00    +0.046 A 
BRANCH  11  16
ATOM     16  C   LIG    1       25.619 -27.049  14.198  0.00  0.00    +0.155 C 
BRANCH  16  17
ATOM     17  N   LIG    1       24.195 -27.355  14.200  0.00  0.00    -0.308 NA
ATOM     18  H   LIG    1       24.048 -28.244  14.685  0.00  0.00    +0.122 HD
BRANCH  17  19
ATOM     19  C   LIG    1       23.398 -26.282  14.797  0.00  0.00    +0.104 C 
BRANCH  19  20
ATOM     20  C   LIG    1       21.911 -26.558  14.668  0.00  0.00    +0.180 C 
BRANCH  20  22
ATOM     21  C   LIG    1       19.849 -28.301  14.017  0.00  0.00    +0.194 C 
ATOM     22  S   LIG    1       21.612 -28.162  13.954  0.00  0.00    -0.033 S 
ATOM     23  O   LIG    1       22.014 -28.174  12.596  0.00  0.00    -0.175 OA
ATOM     24  O   LIG    1       22.154 -29.165  14.907  0.00  0.00    -0.175 OA
ENDBRANCH  20  22
ENDBRANCH  19  20
ENDBRANCH  17  19
ENDBRANCH  16  17
ENDBRANCH  11  16
ENDBRANCH   1  13
BRANCH   9  25
ATOM     25  N   LIG    1       25.690 -27.142   6.305  0.00  0.00    -0.299 N 
ATOM     26  H   LIG    1       26.689 -27.292   6.184  0.00  0.00    +0.154 HD
BRANCH  25  27
ATOM     27  C   LIG    1       25.285 -25.797   6.447  0.00  0.00    +0.034 A 
ATOM     28  C   LIG    1       23.971 -25.307   6.344  0.00  0.00    +0.047 A 
ATOM     29  C   LIG    1       23.615 -24.018   6.759  0.00  0.00    +0.084 A 
ATOM     30 CL   LIG    1       22.017 -23.394   6.468  0.00  0.00    -0.080 Cl
ATOM     31  C   LIG    1       24.573 -23.170   7.271  0.00  0.00    +0.139 A 
ATOM     32  C   LIG    1       25.902 -23.528   7.095  0.00  0.00    +0.049 A 
ATOM     33  C   LIG    1       26.253 -24.827   6.694  0.00  0.00    +0.027 A 
BRANCH  31  34
ATOM     34  O   LIG    1       24.103 -22.021   7.818  0.00  0.00    -0.486 OA
BRANCH  34  35
ATOM     35  C   LIG    1       24.789 -20.833   7.488  0.00  0.00    +0.264 C 
BRANCH  35  36
ATOM     36  C   LIG    1       24.374 -20.379   6.112  0.00  0.00    -0.008 A 
ATOM     37  C   LIG    1       23.074 -19.928   5.825  0.00  0.00    +0.045 A 
ATOM     38  C   LIG    1       22.770 -19.435   4.562  0.00  0.00    +0.124 A 
ATOM     39  F   LIG    1       21.531 -18.994   4.308  0.00  0.00    -0.205 F 
ATOM     40  C   LIG    1       23.736 -19.379   3.568  0.00  0.00    +0.038 A 
ATOM     41  C   LIG    1       25.022 -19.851   3.832  0.00  0.00    +0.003 A 
ATOM     42  C   LIG    1       25.335 -20.360   5.093  0.00  0.00    +0.007 A 
ENDBRANCH  35  36
ENDBRANCH  34  35
ENDBRANCH  31  34
ENDBRANCH  25  27
ENDBRANCH   9  25
TORSDOF 11
ENDMDL
MODEL 6
REMARK VINA RESULT:      -9.2      6.313     10.714
REMARK  Name = *****
REMARK                            x       y       z     vdW  Elec       q    Type
REMARK                         _______ _______ _______ _____ _____    ______ ____
ROOT
ATOM      1  C   LIG    1       25.272 -29.431  10.524  0.00  0.00    +0.018 A 
ATOM      2  C   LIG    1       25.614 -29.220   9.199  0.00  0.00    +0.025 A 
ATOM      3  C   LIG    1       24.969 -29.833   8.110  0.00  0.00    +0.041 A 
ATOM      4  C   LIG    1       24.236 -30.986   8.371  0.00  0.00    +0.076 A 
ATOM      5  N   LIG    1       23.785 -31.767   7.384  0.00  0.00    -0.235 NA
ATOM      6  C   LIG    1       24.039 -31.362   6.131  0.00  0.00    +0.224 A 
ATOM      7  N   LIG    1       24.661 -30.223   5.769  0.00  0.00    -0.220 NA
ATOM      8  C   LIG    1       24.045 -31.334   9.708  0.00  0.00    +0.029 A 
ATOM      9  C   LIG    1       25.105 -29.434   6.772  0.00  0.00    +0.134 A 
ATOM     10  C   LIG    1       24.482 -30.533  10.775  0.00  0.00    +0.013 A 
ENDROOT
BRANCH   1  13
ATOM     11  C   LIG    1       25.607 -27.304  13.345  0.00  0.00    +0.119 A 
ATOM     12  O   LIG    1       24.918 -28.098  12.472  0.00  0.00    -0.458 OA
ATOM     13  C   LIG    1       25.800 -28.563  11.562  0.00  0.00    +0.135 A 
ATOM     14  C   LIG    1       27.052 -28.108  11.907  0.00  0.00    +0.050 A 
ATOM     15  C   LIG    1       26.907 -27.157  12.938  0.00  0.00    +0.046 A 
BRANCH  11  16
ATOM     16  C   LIG    1       24.854 -26.809  14.511  0.00  0.00    +0.155 C 
BRANCH  16  17
ATOM     17  N   LIG    1       23.539 -26.325  14.113  0.00  0.00    -0.308 NA
ATOM     18  H   LIG    1       23.307 -26.713  13.195  0.00  0.00    +0.122 HD
BRANCH  17  19
ATOM     19  C   LIG    1       22.508 -26.641  15.104  0.00  0.00    +0.104 C 
BRANCH  19  20
ATOM     20  C   LIG    1       21.901 -28.009  14.855  0.00  0.00    +0.180 C 
BRANCH  20  22
ATOM     21  C   LIG    1       21.441 -29.082  12.335  0.00  0.00    +0.194 C 
ATOM     22  S   LIG    1       20.735 -27.963  13.511  0.00  0.00    -0.033 S 
ATOM     23  O   LIG    1       19.485 -28.484  13.930  0.00  0.00    -0.175 OA
ATOM     24  O   LIG    1       20.819 -26.606  12.913  0.00  0.00    -0.175 OA
ENDBRANCH  20  22
ENDBRANCH  19  20
ENDBRANCH  17  19
ENDBRANCH  16  17
ENDBRANCH  11  16
ENDBRANCH   1  13
BRANCH   9  25
ATOM     25  N   LIG    1       25.710 -28.215   6.379  0.00  0.00    -0.299 N 
ATOM     26  H   LIG    1       26.686 -28.409   6.165  0.00  0.00    +0.154 HD
BRANCH  25  27
ATOM     27  C   LIG    1       25.339 -26.852   6.361  0.00  0.00    +0.034 A 
ATOM     28  C   LIG    1       25.941 -25.816   7.096  0.00  0.00    +0.047 A 
ATOM     29  C   LIG    1       25.698 -24.464   6.825  0.00  0.00    +0.084 A 
ATOM     30 CL   LIG    1       26.335 -23.215   7.856  0.00  0.00    -0.080 Cl
ATOM     31  C   LIG    1       24.823 -24.109   5.820  0.00  0.00    +0.139 A 
ATOM     32  C   LIG    1       24.007 -25.105   5.303  0.00  0.00    +0.049 A 
ATOM     33  C   LIG    1       24.266 -26.460   5.565  0.00  0.00    +0.027 A 
BRANCH  31  34
ATOM     34  O   LIG    1       24.797 -22.788   5.508  0.00  0.00    -0.486 OA
BRANCH  34  35
ATOM     35  C   LIG    1       23.663 -22.060   5.922  0.00  0.00    +0.264 C 
BRANCH  35  36
ATOM     36  C   LIG    1       23.632 -20.731   5.211  0.00  0.00    -0.008 A 
ATOM     37  C   LIG    1       24.707 -20.264   4.435  0.00  0.00    +0.045 A 
ATOM     38  C   LIG    1       24.591 -19.075   3.727  0.00  0.00    +0.124 A 
ATOM     39  F   LIG    1       25.618 -18.651   2.980  0.00  0.00    -0.205 F 
ATOM     40  C   LIG    1       23.421 -18.331   3.771  0.00  0.00    +0.038 A 
ATOM     41  C   LIG    1       22.358 -18.769   4.560  0.00  0.00    +0.003 A 
ATOM     42  C   LIG    1       22.468 -19.955   5.286  0.00  0.00    +0.007 A 
ENDBRANCH  35  36
ENDBRANCH  34  35
ENDBRANCH  31  34
ENDBRANCH  25  27
ENDBRANCH   9  25
TORSDOF 11
ENDMDL
MODEL 7
REMARK VINA RESULT:      -9.1      5.625     10.635
REMARK  Name = *****
REMARK                            x       y       z     vdW  Elec       q    Type
REMARK                         _______ _______ _______ _____ _____    ______ ____
ROOT
ATOM      1  C   LIG    1       25.989 -29.318   9.783  0.00  0.00    +0.018 A 
ATOM      2  C   LIG    1       25.625 -28.689   8.604  0.00  0.00    +0.025 A 
ATOM      3  C   LIG    1       25.369 -29.363   7.396  0.00  0.00    +0.041 A 
ATOM      4  C   LIG    1       25.881 -30.649   7.265  0.00  0.00    +0.076 A 
ATOM      5  N   LIG    1       25.896 -31.279   6.085  0.00  0.00    -0.235 NA
ATOM      6  C   LIG    1       25.357 -30.625   5.045  0.00  0.00    +0.224 A 
ATOM      7  N   LIG    1       24.760 -29.418   5.082  0.00  0.00    -0.220 NA
ATOM      8  C   LIG    1       26.439 -31.235   8.400  0.00  0.00    +0.029 A 
ATOM      9  C   LIG    1       24.739 -28.792   6.280  0.00  0.00    +0.134 A 
ATOM     10  C   LIG    1       26.425 -30.620   9.662  0.00  0.00    +0.013 A 
ENDROOT
BRANCH   1  13
ATOM     11  C   LIG    1       25.023 -27.914  12.895  0.00  0.00    +0.119 A 
ATOM     12  O   LIG    1       24.840 -28.671  11.773  0.00  0.00    -0.458 OA
ATOM     13  C   LIG    1       25.969 -28.586  11.038  0.00  0.00    +0.135 A 
ATOM     14  C   LIG    1       26.879 -27.826  11.736  0.00  0.00    +0.050 A 
ATOM     15  C   LIG    1       26.218 -27.245  12.837  0.00  0.00    +0.046 A 
BRANCH  11  16
ATOM     16  C   LIG    1       23.957 -27.986  13.911  0.00  0.00    +0.155 C 
BRANCH  16  17
ATOM     17  N   LIG    1       22.912 -27.009  13.638  0.00  0.00    -0.308 NA
ATOM     18  H   LIG    1       22.137 -27.477  13.162  0.00  0.00    +0.122 HD
BRANCH  17  19
ATOM     19  C   LIG    1       22.459 -26.327  14.852  0.00  0.00    +0.104 C 
BRANCH  19  20
ATOM     20  C   LIG    1       21.101 -26.834  15.300  0.00  0.00    +0.180 C 
BRANCH  20  22
ATOM     21  C   LIG    1       18.458 -27.235  14.543  0.00  0.00    +0.194 C 
ATOM     22  S   LIG    1       20.107 -27.331  13.908  0.00  0.00    -0.033 S 
ATOM     23  O   LIG    1       20.237 -26.391  12.855  0.00  0.00    -0.175 OA
ATOM     24  O   LIG    1       20.389 -28.769  13.668  0.00  0.00    -0.175 OA
ENDBRANCH  20  22
ENDBRANCH  19  20
ENDBRANCH  17  19
ENDBRANCH  16  17
ENDBRANCH  11  16
ENDBRANCH   1  13
BRANCH   9  25
ATOM     25  N   LIG    1       24.063 -27.548   6.318  0.00  0.00    -0.299 N 
ATOM     26  H   LIG    1       23.068 -27.733   6.216  0.00  0.00    +0.154 HD
BRANCH  25  27
ATOM     27  C   LIG    1       24.435 -26.185   6.314  0.00  0.00    +0.034 A 
ATOM     28  C   LIG    1       23.568 -25.085   6.433  0.00  0.00    +0.047 A 
ATOM     29  C   LIG    1       24.030 -23.789   6.689  0.00  0.00    +0.084 A 
ATOM     30 CL   LIG    1       22.942 -22.431   6.672  0.00  0.00    -0.080 Cl
ATOM     31  C   LIG    1       25.382 -23.551   6.811  0.00  0.00    +0.139 A 
ATOM     32  C   LIG    1       26.246 -24.555   6.399  0.00  0.00    +0.049 A 
ATOM     33  C   LIG    1       25.780 -25.857   6.159  0.00  0.00    +0.027 A 
BRANCH  31  34
ATOM     34  O   LIG    1       25.719 -22.309   7.244  0.00  0.00    -0.486 OA
BRANCH  34  35
ATOM     35  C   LIG    1       26.070 -21.365   6.257  0.00  0.00    +0.264 C 
BRANCH  35  36
ATOM     36  C   LIG    1       27.454 -20.836   6.537  0.00  0.00    -0.008 A 
ATOM     37  C   LIG    1       27.976 -19.705   5.888  0.00  0.00    +0.045 A 
ATOM     38  C   LIG    1       29.221 -19.206   6.249  0.00  0.00    +0.124 A 
ATOM     39  F   LIG    1       29.698 -18.117   5.632  0.00  0.00    -0.205 F 
ATOM     40  C   LIG    1       29.966 -19.810   7.251  0.00  0.00    +0.038 A 
ATOM     41  C   LIG    1       29.472 -20.951   7.883  0.00  0.00    +0.003 A 
ATOM     42  C   LIG    1       28.229 -21.468   7.518  0.00  0.00    +0.007 A 
ENDBRANCH  35  36
ENDBRANCH  34  35
ENDBRANCH  31  34
ENDBRANCH  25  27
ENDBRANCH   9  25
TORSDOF 11
ENDMDL
MODEL 8
REMARK VINA RESULT:      -9.1      6.425      9.893
REMARK  Name = *****
REMARK                            x       y       z     vdW  Elec       q    Type
REMARK                         _______ _______ _______ _____ _____    ______ ____
ROOT
ATOM      1  C   LIG    1       22.681 -28.652  12.534  0.00  0.00    +0.018 A 
ATOM      2  C   LIG    1       23.290 -29.545  11.668  0.00  0.00    +0.025 A 
ATOM      3  C   LIG    1       22.601 -30.516  10.920  0.00  0.00    +0.041 A 
ATOM      4  C   LIG    1       21.327 -30.867  11.354  0.00  0.00    +0.076 A 
ATOM      5  N   LIG    1       20.689 -31.933  10.861  0.00  0.00    -0.235 NA
ATOM      6  C   LIG    1       21.321 -32.623   9.899  0.00  0.00    +0.224 A 
ATOM      7  N   LIG    1       22.513 -32.320   9.350  0.00  0.00    -0.220 NA
ATOM      8  C   LIG    1       20.765 -30.100  12.373  0.00  0.00    +0.029 A 
ATOM      9  C   LIG    1       23.147 -31.235   9.846  0.00  0.00    +0.134 A 
ATOM     10  C   LIG    1       21.389 -28.960  12.905  0.00  0.00    +0.013 A 
ENDROOT
BRANCH   1  13
ATOM     11  C   LIG    1       25.265 -26.405  13.463  0.00  0.00    +0.119 A 
ATOM     12  O   LIG    1       24.764 -27.548  12.906  0.00  0.00    -0.458 OA
ATOM     13  C   LIG    1       23.422 -27.516  13.054  0.00  0.00    +0.135 A 
ATOM     14  C   LIG    1       23.084 -26.322  13.647  0.00  0.00    +0.050 A 
ATOM     15  C   LIG    1       24.269 -25.690  14.074  0.00  0.00    +0.046 A 
BRANCH  11  16
ATOM     16  C   LIG    1       26.708 -26.169  13.280  0.00  0.00    +0.155 C 
BRANCH  16  17
ATOM     17  N   LIG    1       27.439 -27.428  13.228  0.00  0.00    -0.308 NA
ATOM     18  H   LIG    1       28.234 -27.323  12.593  0.00  0.00    +0.122 HD
BRANCH  17  19
ATOM     19  C   LIG    1       27.868 -27.875  14.555  0.00  0.00    +0.104 C 
BRANCH  19  20
ATOM     20  C   LIG    1       28.461 -29.271  14.505  0.00  0.00    +0.180 C 
BRANCH  20  22
ATOM     21  C   LIG    1       25.860 -29.987  15.164  0.00  0.00    +0.194 C 
ATOM     22  S   LIG    1       27.214 -30.489  14.142  0.00  0.00    -0.033 S 
ATOM     23  O   LIG    1       26.814 -30.388  12.786  0.00  0.00    -0.175 OA
ATOM     24  O   LIG    1       27.703 -31.782  14.685  0.00  0.00    -0.175 OA
ENDBRANCH  20  22
ENDBRANCH  19  20
ENDBRANCH  17  19
ENDBRANCH  16  17
ENDBRANCH  11  16
ENDBRANCH   1  13
BRANCH   9  25
ATOM     25  N   LIG    1       24.374 -30.895   9.224  0.00  0.00    -0.299 N 
ATOM     26  H   LIG    1       25.104 -31.459   9.653  0.00  0.00    +0.154 HD
BRANCH  25  27
ATOM     27  C   LIG    1       24.816 -29.914   8.310  0.00  0.00    +0.034 A 
ATOM     28  C   LIG    1       24.404 -29.776   6.973  0.00  0.00    +0.047 A 
ATOM     29  C   LIG    1       24.679 -28.630   6.217  0.00  0.00    +0.084 A 
ATOM     30 CL   LIG    1       24.293 -28.562   4.522  0.00  0.00    -0.080 Cl
ATOM     31  C   LIG    1       25.397 -27.594   6.773  0.00  0.00    +0.139 A 
ATOM     32  C   LIG    1       26.059 -27.844   7.967  0.00  0.00    +0.049 A 
ATOM     33  C   LIG    1       25.767 -28.987   8.729  0.00  0.00    +0.027 A 
BRANCH  31  34
ATOM     34  O   LIG    1       25.450 -26.457   6.034  0.00  0.00    -0.486 OA
BRANCH  34  35
ATOM     35  C   LIG    1       26.134 -25.361   6.601  0.00  0.00    +0.264 C 
BRANCH  35  36
ATOM     36  C   LIG    1       25.154 -24.252   6.888  0.00  0.00    -0.008 A 
ATOM     37  C   LIG    1       25.552 -23.005   7.400  0.00  0.00    +0.045 A 
ATOM     38  C   LIG    1       24.620 -21.987   7.560  0.00  0.00    +0.124 A 
ATOM     39  F   LIG    1       25.018 -20.800   8.034  0.00  0.00    -0.205 F 
ATOM     40  C   LIG    1       23.289 -22.180   7.220  0.00  0.00    +0.038 A 
ATOM     41  C   LIG    1       22.876 -23.422   6.739  0.00  0.00    +0.003 A 
ATOM     42  C   LIG    1       23.801 -24.456   6.586  0.00  0.00    +0.007 A 
ENDBRANCH  35  36
ENDBRANCH  34  35
ENDBRANCH  31  34
ENDBRANCH  25  27
ENDBRANCH   9  25
TORSDOF 11
ENDMDL
MODEL 9
REMARK VINA RESULT:      -9.0      2.475      3.251
REMARK  Name = *****
REMARK                            x       y       z     vdW  Elec       q    Type
REMARK                         _______ _______ _______ _____ _____    ______ ____
ROOT
ATOM      1  C   LIG    1       27.879 -20.035   6.149  0.00  0.00    +0.018 A 
ATOM      2  C   LIG    1       26.753 -20.821   6.326  0.00  0.00    +0.025 A 
ATOM      3  C   LIG    1       25.706 -20.925   5.393  0.00  0.00    +0.041 A 
ATOM      4  C   LIG    1       25.594 -19.910   4.448  0.00  0.00    +0.076 A 
ATOM      5  N   LIG    1       24.510 -19.792   3.674  0.00  0.00    -0.235 NA
ATOM      6  C   LIG    1       23.556 -20.723   3.826  0.00  0.00    +0.224 A 
ATOM      7  N   LIG    1       23.603 -21.789   4.647  0.00  0.00    -0.220 NA
ATOM      8  C   LIG    1       26.630 -18.980   4.382  0.00  0.00    +0.029 A 
ATOM      9  C   LIG    1       24.706 -21.908   5.418  0.00  0.00    +0.134 A 
ATOM     10  C   LIG    1       27.795 -19.078   5.159  0.00  0.00    +0.013 A 
ENDROOT
BRANCH   1  13
ATOM     11  C   LIG    1       30.943 -19.552   7.872  0.00  0.00    +0.119 A 
ATOM     12  O   LIG    1       29.955 -19.212   6.991  0.00  0.00    -0.458 OA
ATOM     13  C   LIG    1       29.026 -20.191   7.025  0.00  0.00    +0.135 A 
ATOM     14  C   LIG    1       29.407 -21.110   7.976  0.00  0.00    +0.050 A 
ATOM     15  C   LIG    1       30.718 -20.801   8.389  0.00  0.00    +0.046 A 
BRANCH  11  16
ATOM     16  C   LIG    1       31.991 -18.540   8.098  0.00  0.00    +0.155 C 
BRANCH  16  17
ATOM     17  N   LIG    1       32.100 -18.211   9.512  0.00  0.00    -0.308 NA
ATOM     18  H   LIG    1       32.850 -18.769   9.925  0.00  0.00    +0.122 HD
BRANCH  17  19
ATOM     19  C   LIG    1       32.315 -16.779   9.733  0.00  0.00    +0.104 C 
BRANCH  19  20
ATOM     20  C   LIG    1       32.962 -16.517  11.080  0.00  0.00    +0.180 C 
BRANCH  20  22
ATOM     21  C   LIG    1       32.795 -17.492  13.676  0.00  0.00    +0.194 C 
ATOM     22  S   LIG    1       31.802 -16.754  12.410  0.00  0.00    -0.033 S 
ATOM     23  O   LIG    1       31.335 -15.501  12.880  0.00  0.00    -0.175 OA
ATOM     24  O   LIG    1       30.839 -17.793  11.963  0.00  0.00    -0.175 OA
ENDBRANCH  20  22
ENDBRANCH  19  20
ENDBRANCH  17  19
ENDBRANCH  16  17
ENDBRANCH  11  16
ENDBRANCH   1  13
BRANCH   9  25
ATOM     25  N   LIG    1       24.768 -23.062   6.238  0.00  0.00    -0.299 N 
ATOM     26  H   LIG    1       24.554 -22.776   7.191  0.00  0.00    +0.154 HD
BRANCH  25  27
ATOM     27  C   LIG    1       25.177 -24.404   6.080  0.00  0.00    +0.034 A 
ATOM     28  C   LIG    1       25.658 -25.252   7.093  0.00  0.00    +0.047 A 
ATOM     29  C   LIG    1       25.789 -26.635   6.916  0.00  0.00    +0.084 A 
ATOM     30 CL   LIG    1       26.536 -27.627   8.134  0.00  0.00    -0.080 Cl
ATOM     31  C   LIG    1       25.461 -27.209   5.706  0.00  0.00    +0.139 A 
ATOM     32  C   LIG    1       25.281 -26.358   4.625  0.00  0.00    +0.049 A 
ATOM     33  C   LIG    1       25.134 -24.974   4.810  0.00  0.00    +0.027 A 
BRANCH  31  34
ATOM     34  O   LIG    1       25.439 -28.565   5.690  0.00  0.00    -0.486 OA
BRANCH  34  35
ATOM     35  C   LIG    1       24.174 -29.182   5.791  0.00  0.00    +0.264 C 
BRANCH  35  36
ATOM     36  C   LIG    1       24.204 -30.213   6.891  0.00  0.00    -0.008 A 
ATOM     37  C   LIG    1       23.983 -29.885   8.239  0.00  0.00    +0.045 A 
ATOM     38  C   LIG    1       23.931 -30.887   9.200  0.00  0.00    +0.124 A 
ATOM     39  F   LIG    1       23.703 -30.561  10.479  0.00  0.00    -0.205 F 
ATOM     40  C   LIG    1       24.095 -32.219   8.850  0.00  0.00    +0.038 A 
ATOM     41  C   LIG    1       24.345 -32.554   7.520  0.00  0.00    +0.003 A 
ATOM     42  C   LIG    1       24.412 -31.555   6.548  0.00  0.00    +0.007 A 
ENDBRANCH  35  36
ENDBRANCH  34  35
ENDBRANCH  31  34
ENDBRANCH  25  27
ENDBRANCH   9  25
TORSDOF 11
ENDMDL
