MODEL 1
REMARK VINA RESULT:       0.4      0.000      0.000
REMARK  Name = *****
REMARK                            x       y       z     vdW  Elec       q    Type
REMARK                         _______ _______ _______ _____ _____    ______ ____
ROOT
ATOM      1  C   LIG    1       22.930 -19.220   4.871  0.00  0.00    +0.095 C 
ATOM      2  C   LIG    1       22.765 -19.398   6.412  0.00  0.00    +0.038 C 
ATOM      3  C   LIG    1       22.826 -20.850   6.887  0.00  0.00    +0.086 C 
ATOM      4  N   LIG    1       24.029 -21.553   6.445  0.00  0.00    -0.302 NA
ATOM      5  C   LIG    1       24.045 -21.571   4.976  0.00  0.00    +0.086 C 
ATOM      6  C   LIG    1       24.039 -20.177   4.345  0.00  0.00    +0.038 C 
ENDROOT
BRANCH   1   7
ATOM      7  C   LIG    1       23.302 -17.746   4.505  0.00  0.00    -0.030 A 
ATOM      8  C   LIG    1       24.464 -17.424   3.778  0.00  0.00    +0.005 A 
ATOM      9  C   LIG    1       24.793 -16.096   3.479  0.00  0.00    +0.000 A 
ATOM     10  C   LIG    1       23.983 -15.055   3.916  0.00  0.00    +0.000 A 
ATOM     11  C   LIG    1       22.823 -15.343   4.624  0.00  0.00    +0.000 A 
ATOM     12  C   LIG    1       22.486 -16.669   4.910  0.00  0.00    +0.005 A 
ENDBRANCH   1   7
BRANCH   1  13
ATOM     13  C   LIG    1       21.575 -19.598   4.189  0.00  0.00    +0.318 C 
ATOM     14  O   LIG    1       21.016 -20.695   4.287  0.00  0.00    -0.250 OA
BRANCH  13  15
ATOM     15  O   LIG    1       21.058 -18.525   3.515  0.00  0.00    -0.464 OA
BRANCH  15  17
ATOM     16  C   LIG    1       19.390 -17.566   2.046  0.00  0.00    +0.048 C 
ATOM     17  C   LIG    1       19.687 -18.613   3.106  0.00  0.00    +0.229 C 
ENDBRANCH  15  17
ENDBRANCH  13  15
ENDBRANCH   1  13
BRANCH   4  18
ATOM     18  C   LIG    1       25.292 -21.024   7.002  0.00  0.00    +0.089 C 
BRANCH  18  19
ATOM     19  C   LIG    1       26.584 -21.571   6.353  0.00  0.00    +0.050 C 
BRANCH  19  20
ATOM     20  C   LIG    1       27.454 -20.423   5.895  0.00  0.00    -0.046 A 
ATOM     21  C   LIG    1       27.099 -19.667   4.774  0.00  0.00    +0.005 A 
ATOM     22  C   LIG    1       27.779 -18.482   4.481  0.00  0.00    +0.023 A 
ATOM     23  C   LIG    1       28.795 -18.019   5.319  0.00  0.00    +0.025 A 
ATOM     24  C   LIG    1       29.250 -18.853   6.341  0.00  0.00    +0.023 A 
ATOM     25  C   LIG    1       28.570 -20.034   6.647  0.00  0.00    +0.005 A 
BRANCH  23  26
ATOM     26  N   LIG    1       29.475 -16.832   5.018  0.00  0.00    -0.358 N 
ATOM     27  H   LIG    1       29.445 -16.162   5.782  0.00  0.00    +0.142 HD
ATOM     28  H   LIG    1       30.429 -16.995   4.707  0.00  0.00    +0.142 HD
ENDBRANCH  23  26
ENDBRANCH  19  20
ENDBRANCH  18  19
ENDBRANCH   4  18
TORSDOF 8
ENDMDL
MODEL 2
REMARK VINA RESULT:       0.4      3.255      5.690
REMARK  Name = *****
REMARK                            x       y       z     vdW  Elec       q    Type
REMARK                         _______ _______ _______ _____ _____    ______ ____
ROOT
ATOM      1  C   LIG    1       24.207 -14.008   4.368  0.00  0.00    +0.095 C 
ATOM      2  C   LIG    1       23.617 -14.299   5.783  0.00  0.00    +0.038 C 
ATOM      3  C   LIG    1       22.175 -14.808   5.771  0.00  0.00    +0.086 C 
ATOM      4  N   LIG    1       21.983 -15.978   4.916  0.00  0.00    -0.302 NA
ATOM      5  C   LIG    1       22.329 -15.611   3.537  0.00  0.00    +0.086 C 
ATOM      6  C   LIG    1       23.772 -15.125   3.375  0.00  0.00    +0.038 C 
ENDROOT
BRANCH   1   7
ATOM      7  C   LIG    1       25.767 -13.929   4.408  0.00  0.00    -0.030 A 
ATOM      8  C   LIG    1       26.458 -13.241   5.423  0.00  0.00    +0.005 A 
ATOM      9  C   LIG    1       27.857 -13.162   5.430  0.00  0.00    +0.000 A 
ATOM     10  C   LIG    1       28.600 -13.748   4.411  0.00  0.00    +0.000 A 
ATOM     11  C   LIG    1       27.946 -14.444   3.403  0.00  0.00    +0.000 A 
ATOM     12  C   LIG    1       26.551 -14.537   3.404  0.00  0.00    +0.005 A 
ENDBRANCH   1   7
BRANCH   1  13
ATOM     13  C   LIG    1       23.630 -12.643   3.872  0.00  0.00    +0.318 C 
ATOM     14  O   LIG    1       23.367 -11.680   4.599  0.00  0.00    -0.250 OA
BRANCH  13  15
ATOM     15  O   LIG    1       23.511 -12.636   2.508  0.00  0.00    -0.464 OA
BRANCH  15  17
ATOM     16  C   LIG    1       25.579 -11.568   1.845  0.00  0.00    +0.048 C 
ATOM     17  C   LIG    1       24.061 -11.510   1.813  0.00  0.00    +0.229 C 
ENDBRANCH  15  17
ENDBRANCH  13  15
ENDBRANCH   1  13
BRANCH   4  18
ATOM     18  C   LIG    1       22.703 -17.190   5.359  0.00  0.00    +0.089 C 
BRANCH  18  19
ATOM     19  C   LIG    1       22.801 -18.324   4.313  0.00  0.00    +0.050 C 
BRANCH  19  20
ATOM     20  C   LIG    1       23.869 -19.311   4.725  0.00  0.00    -0.046 A 
ATOM     21  C   LIG    1       25.125 -19.297   4.109  0.00  0.00    +0.005 A 
ATOM     22  C   LIG    1       26.174 -20.055   4.633  0.00  0.00    +0.023 A 
ATOM     23  C   LIG    1       25.996 -20.809   5.795  0.00  0.00    +0.025 A 
ATOM     24  C   LIG    1       24.707 -20.945   6.311  0.00  0.00    +0.023 A 
ATOM     25  C   LIG    1       23.654 -20.182   5.800  0.00  0.00    +0.005 A 
BRANCH  23  26
ATOM     26  N   LIG    1       27.051 -21.571   6.314  0.00  0.00    -0.358 N 
ATOM     27  H   LIG    1       27.952 -21.118   6.194  0.00  0.00    +0.142 HD
ATOM     28  H   LIG    1       26.899 -21.842   7.282  0.00  0.00    +0.142 HD
ENDBRANCH  23  26
ENDBRANCH  19  20
ENDBRANCH  18  19
ENDBRANCH   4  18
TORSDOF 8
ENDMDL
MODEL 3
REMARK VINA RESULT:       1.4      3.129      5.831
REMARK  Name = *****
REMARK                            x       y       z     vdW  Elec       q    Type
REMARK                         _______ _______ _______ _____ _____    ______ ____
ROOT
ATOM      1  C   LIG    1       26.205 -14.987   3.679  0.00  0.00    +0.095 C 
ATOM      2  C   LIG    1       25.485 -16.320   3.308  0.00  0.00    +0.038 C 
ATOM      3  C   LIG    1       26.430 -17.463   2.937  0.00  0.00    +0.086 C 
ATOM      4  N   LIG    1       27.445 -17.728   3.955  0.00  0.00    -0.302 NA
ATOM      5  C   LIG    1       28.263 -16.520   4.124  0.00  0.00    +0.086 C 
ATOM      6  C   LIG    1       27.459 -15.289   4.550  0.00  0.00    +0.038 C 
ENDROOT
BRANCH   1   7
ATOM      7  C   LIG    1       25.253 -14.024   4.460  0.00  0.00    -0.030 A 
ATOM      8  C   LIG    1       23.868 -14.256   4.560  0.00  0.00    +0.005 A 
ATOM      9  C   LIG    1       23.026 -13.370   5.244  0.00  0.00    +0.000 A 
ATOM     10  C   LIG    1       23.543 -12.218   5.828  0.00  0.00    +0.000 A 
ATOM     11  C   LIG    1       24.907 -11.970   5.757  0.00  0.00    +0.000 A 
ATOM     12  C   LIG    1       25.750 -12.862   5.087  0.00  0.00    +0.005 A 
ENDBRANCH   1   7
BRANCH   1  13
ATOM     13  C   LIG    1       26.667 -14.299   2.354  0.00  0.00    +0.318 C 
ATOM     14  O   LIG    1       27.778 -14.440   1.834  0.00  0.00    -0.250 OA
BRANCH  13  15
ATOM     15  O   LIG    1       25.649 -13.562   1.812  0.00  0.00    -0.464 OA
BRANCH  15  17
ATOM     16  C   LIG    1       24.247 -11.589   1.812  0.00  0.00    +0.048 C 
ATOM     17  C   LIG    1       25.616 -12.164   2.130  0.00  0.00    +0.229 C 
ENDBRANCH  15  17
ENDBRANCH  13  15
ENDBRANCH   1  13
BRANCH   4  18
ATOM     18  C   LIG    1       26.912 -18.215   5.245  0.00  0.00    +0.089 C 
BRANCH  18  19
ATOM     19  C   LIG    1       27.018 -19.740   5.473  0.00  0.00    +0.050 C 
BRANCH  19  20
ATOM     20  C   LIG    1       25.652 -20.375   5.345  0.00  0.00    -0.046 A 
ATOM     21  C   LIG    1       24.878 -20.630   6.481  0.00  0.00    +0.005 A 
ATOM     22  C   LIG    1       23.541 -21.011   6.350  0.00  0.00    +0.023 A 
ATOM     23  C   LIG    1       22.949 -21.108   5.089  0.00  0.00    +0.025 A 
ATOM     24  C   LIG    1       23.762 -21.008   3.960  0.00  0.00    +0.023 A 
ATOM     25  C   LIG    1       25.098 -20.617   4.081  0.00  0.00    +0.005 A 
BRANCH  23  26
ATOM     26  N   LIG    1       21.608 -21.494   4.965  0.00  0.00    -0.358 N 
ATOM     27  H   LIG    1       21.508 -22.467   4.690  0.00  0.00    +0.142 HD
ATOM     28  H   LIG    1       21.061 -21.287   5.796  0.00  0.00    +0.142 HD
ENDBRANCH  23  26
ENDBRANCH  19  20
ENDBRANCH  18  19
ENDBRANCH   4  18
TORSDOF 8
ENDMDL
MODEL 4
REMARK VINA RESULT:       1.8      3.594      6.138
REMARK  Name = *****
REMARK                            x       y       z     vdW  Elec       q    Type
REMARK                         _______ _______ _______ _____ _____    ______ ____
ROOT
ATOM      1  C   LIG    1       24.620 -13.494   4.181  0.00  0.00    +0.095 C 
ATOM      2  C   LIG    1       24.154 -14.377   5.380  0.00  0.00    +0.038 C 
ATOM      3  C   LIG    1       22.726 -14.909   5.252  0.00  0.00    +0.086 C 
ATOM      4  N   LIG    1       22.487 -15.626   4.001  0.00  0.00    -0.302 NA
ATOM      5  C   LIG    1       22.712 -14.702   2.882  0.00  0.00    +0.086 C 
ATOM      6  C   LIG    1       24.127 -14.119   2.843  0.00  0.00    +0.038 C 
ENDROOT
BRANCH   1   7
ATOM      7  C   LIG    1       26.177 -13.358   4.145  0.00  0.00    -0.030 A 
ATOM      8  C   LIG    1       26.910 -13.443   2.947  0.00  0.00    +0.005 A 
ATOM      9  C   LIG    1       28.308 -13.341   2.937  0.00  0.00    +0.000 A 
ATOM     10  C   LIG    1       29.008 -13.174   4.126  0.00  0.00    +0.000 A 
ATOM     11  C   LIG    1       28.311 -13.074   5.323  0.00  0.00    +0.000 A 
ATOM     12  C   LIG    1       26.915 -13.159   5.331  0.00  0.00    +0.005 A 
ENDBRANCH   1   7
BRANCH   1  13
ATOM     13  C   LIG    1       23.978 -12.078   4.340  0.00  0.00    +0.318 C 
ATOM     14  O   LIG    1       23.107 -11.609   3.601  0.00  0.00    -0.250 OA
BRANCH  13  15
ATOM     15  O   LIG    1       24.469 -11.447   5.451  0.00  0.00    -0.464 OA
BRANCH  15  17
ATOM     16  C   LIG    1       22.188 -11.447   6.260  0.00  0.00    +0.048 C 
ATOM     17  C   LIG    1       23.660 -11.488   6.634  0.00  0.00    +0.229 C 
ENDBRANCH  15  17
ENDBRANCH  13  15
ENDBRANCH   1  13
BRANCH   4  18
ATOM     18  C   LIG    1       23.264 -16.874   3.848  0.00  0.00    +0.089 C 
BRANCH  18  19
ATOM     19  C   LIG    1       22.476 -18.181   4.091  0.00  0.00    +0.050 C 
BRANCH  19  20
ATOM     20  C   LIG    1       23.381 -19.218   4.715  0.00  0.00    -0.046 A 
ATOM     21  C   LIG    1       24.575 -19.587   4.089  0.00  0.00    +0.005 A 
ATOM     22  C   LIG    1       25.510 -20.376   4.764  0.00  0.00    +0.023 A 
ATOM     23  C   LIG    1       25.282 -20.777   6.082  0.00  0.00    +0.025 A 
ATOM     24  C   LIG    1       24.027 -20.542   6.644  0.00  0.00    +0.023 A 
ATOM     25  C   LIG    1       23.091 -19.745   5.980  0.00  0.00    +0.005 A 
BRANCH  23  26
ATOM     26  N   LIG    1       26.221 -21.571   6.753  0.00  0.00    -0.358 N 
ATOM     27  H   LIG    1       27.010 -21.821   6.164  0.00  0.00    +0.142 HD
ATOM     28  H   LIG    1       26.530 -21.157   7.629  0.00  0.00    +0.142 HD
ENDBRANCH  23  26
ENDBRANCH  19  20
ENDBRANCH  18  19
ENDBRANCH   4  18
TORSDOF 8
ENDMDL
MODEL 5
REMARK VINA RESULT:       2.2      2.735      5.570
REMARK  Name = *****
REMARK                            x       y       z     vdW  Elec       q    Type
REMARK                         _______ _______ _______ _____ _____    ______ ____
ROOT
ATOM      1  C   LIG    1       24.988 -14.733   4.019  0.00  0.00    +0.095 C 
ATOM      2  C   LIG    1       25.733 -15.800   3.158  0.00  0.00    +0.038 C 
ATOM      3  C   LIG    1       27.198 -15.466   2.873  0.00  0.00    +0.086 C 
ATOM      4  N   LIG    1       27.973 -15.191   4.082  0.00  0.00    -0.302 NA
ATOM      5  C   LIG    1       27.383 -14.030   4.761  0.00  0.00    +0.086 C 
ATOM      6  C   LIG    1       25.920 -14.231   5.160  0.00  0.00    +0.038 C 
ENDROOT
BRANCH   1   7
ATOM      7  C   LIG    1       23.678 -15.318   4.640  0.00  0.00    -0.030 A 
ATOM      8  C   LIG    1       22.931 -14.620   5.609  0.00  0.00    +0.005 A 
ATOM      9  C   LIG    1       21.771 -15.170   6.172  0.00  0.00    +0.000 A 
ATOM     10  C   LIG    1       21.341 -16.438   5.797  0.00  0.00    +0.000 A 
ATOM     11  C   LIG    1       22.051 -17.144   4.835  0.00  0.00    +0.000 A 
ATOM     12  C   LIG    1       23.199 -16.590   4.261  0.00  0.00    +0.005 A 
ENDBRANCH   1   7
BRANCH   1  13
ATOM     13  C   LIG    1       24.630 -13.525   3.094  0.00  0.00    +0.318 C 
ATOM     14  O   LIG    1       25.126 -13.313   1.984  0.00  0.00    -0.250 OA
BRANCH  13  15
ATOM     15  O   LIG    1       23.643 -12.762   3.657  0.00  0.00    -0.464 OA
BRANCH  15  17
ATOM     16  C   LIG    1       23.065 -11.454   5.610  0.00  0.00    +0.048 C 
ATOM     17  C   LIG    1       24.058 -11.664   4.480  0.00  0.00    +0.229 C 
ENDBRANCH  15  17
ENDBRANCH  13  15
ENDBRANCH   1  13
BRANCH   4  18
ATOM     18  C   LIG    1       28.122 -16.344   4.994  0.00  0.00    +0.089 C 
BRANCH  18  19
ATOM     19  C   LIG    1       28.486 -17.684   4.315  0.00  0.00    +0.050 C 
BRANCH  19  20
ATOM     20  C   LIG    1       27.541 -18.768   4.783  0.00  0.00    -0.046 A 
ATOM     21  C   LIG    1       27.813 -19.493   5.947  0.00  0.00    +0.005 A 
ATOM     22  C   LIG    1       26.842 -20.336   6.494  0.00  0.00    +0.023 A 
ATOM     23  C   LIG    1       25.579 -20.441   5.907  0.00  0.00    +0.025 A 
ATOM     24  C   LIG    1       25.369 -19.843   4.664  0.00  0.00    +0.023 A 
ATOM     25  C   LIG    1       26.330 -18.990   4.115  0.00  0.00    +0.005 A 
BRANCH  23  26
ATOM     26  N   LIG    1       24.611 -21.291   6.457  0.00  0.00    -0.358 N 
ATOM     27  H   LIG    1       24.077 -21.783   5.747  0.00  0.00    +0.142 HD
ATOM     28  H   LIG    1       24.999 -21.935   7.141  0.00  0.00    +0.142 HD
ENDBRANCH  23  26
ENDBRANCH  19  20
ENDBRANCH  18  19
ENDBRANCH   4  18
TORSDOF 8
ENDMDL
MODEL 6
REMARK VINA RESULT:       2.4      3.694      7.418
REMARK  Name = *****
REMARK                            x       y       z     vdW  Elec       q    Type
REMARK                         _______ _______ _______ _____ _____    ______ ____
ROOT
ATOM      1  C   LIG    1       26.750 -14.714   3.731  0.00  0.00    +0.095 C 
ATOM      2  C   LIG    1       25.742 -14.225   4.816  0.00  0.00    +0.038 C 
ATOM      3  C   LIG    1       24.832 -13.083   4.360  0.00  0.00    +0.086 C 
ATOM      4  N   LIG    1       24.109 -13.379   3.125  0.00  0.00    -0.302 NA
ATOM      5  C   LIG    1       25.087 -13.613   2.055  0.00  0.00    +0.086 C 
ATOM      6  C   LIG    1       26.047 -14.771   2.344  0.00  0.00    +0.038 C 
ENDROOT
BRANCH   1   7
ATOM      7  C   LIG    1       27.321 -16.126   4.080  0.00  0.00    -0.030 A 
ATOM      8  C   LIG    1       26.686 -17.314   3.669  0.00  0.00    +0.005 A 
ATOM      9  C   LIG    1       27.201 -18.572   4.011  0.00  0.00    +0.000 A 
ATOM     10  C   LIG    1       28.349 -18.675   4.789  0.00  0.00    +0.000 A 
ATOM     11  C   LIG    1       29.003 -17.521   5.197  0.00  0.00    +0.000 A 
ATOM     12  C   LIG    1       28.499 -16.265   4.843  0.00  0.00    +0.005 A 
ENDBRANCH   1   7
BRANCH   1  13
ATOM     13  C   LIG    1       27.923 -13.683   3.657  0.00  0.00    +0.318 C 
ATOM     14  O   LIG    1       28.672 -13.533   2.687  0.00  0.00    -0.250 OA
BRANCH  13  15
ATOM     15  O   LIG    1       27.971 -12.923   4.794  0.00  0.00    -0.464 OA
BRANCH  15  17
ATOM     16  C   LIG    1       29.472 -11.691   6.238  0.00  0.00    +0.048 C 
ATOM     17  C   LIG    1       28.934 -11.862   4.828  0.00  0.00    +0.229 C 
ENDBRANCH  15  17
ENDBRANCH  13  15
ENDBRANCH   1  13
BRANCH   4  18
ATOM     18  C   LIG    1       23.135 -14.486   3.231  0.00  0.00    +0.089 C 
BRANCH  18  19
ATOM     19  C   LIG    1       23.099 -15.209   4.597  0.00  0.00    +0.050 C 
BRANCH  19  20
ATOM     20  C   LIG    1       22.947 -16.699   4.385  0.00  0.00    -0.046 A 
ATOM     21  C   LIG    1       23.852 -17.398   3.581  0.00  0.00    +0.005 A 
ATOM     22  C   LIG    1       23.841 -18.794   3.560  0.00  0.00    +0.023 A 
ATOM     23  C   LIG    1       22.953 -19.511   4.365  0.00  0.00    +0.025 A 
ATOM     24  C   LIG    1       21.951 -18.813   5.040  0.00  0.00    +0.023 A 
ATOM     25  C   LIG    1       21.961 -17.416   5.075  0.00  0.00    +0.005 A 
BRANCH  23  26
ATOM     26  N   LIG    1       22.944 -20.911   4.337  0.00  0.00    -0.358 N 
ATOM     27  H   LIG    1       23.747 -21.295   3.846  0.00  0.00    +0.142 HD
ATOM     28  H   LIG    1       22.846 -21.321   5.262  0.00  0.00    +0.142 HD
ENDBRANCH  23  26
ENDBRANCH  19  20
ENDBRANCH  18  19
ENDBRANCH   4  18
TORSDOF 8
ENDMDL
MODEL 7
REMARK VINA RESULT:       3.1      3.383      5.930
REMARK  Name = *****
REMARK                            x       y       z     vdW  Elec       q    Type
REMARK                         _______ _______ _______ _____ _____    ______ ____
ROOT
ATOM      1  C   LIG    1       25.837 -14.825   3.622  0.00  0.00    +0.095 C 
ATOM      2  C   LIG    1       25.106 -15.521   4.811  0.00  0.00    +0.038 C 
ATOM      3  C   LIG    1       24.361 -16.802   4.429  0.00  0.00    +0.086 C 
ATOM      4  N   LIG    1       25.206 -17.777   3.742  0.00  0.00    -0.302 NA
ATOM      5  C   LIG    1       25.702 -17.172   2.500  0.00  0.00    +0.086 C 
ATOM      6  C   LIG    1       26.519 -15.896   2.722  0.00  0.00    +0.038 C 
ENDROOT
BRANCH   1   7
ATOM      7  C   LIG    1       26.915 -13.814   4.130  0.00  0.00    -0.030 A 
ATOM      8  C   LIG    1       27.983 -13.385   3.319  0.00  0.00    +0.005 A 
ATOM      9  C   LIG    1       28.953 -12.496   3.799  0.00  0.00    +0.000 A 
ATOM     10  C   LIG    1       28.893 -12.029   5.107  0.00  0.00    +0.000 A 
ATOM     11  C   LIG    1       27.844 -12.424   5.926  0.00  0.00    +0.000 A 
ATOM     12  C   LIG    1       26.867 -13.299   5.443  0.00  0.00    +0.005 A 
ENDBRANCH   1   7
BRANCH   1  13
ATOM     13  C   LIG    1       24.768 -14.063   2.773  0.00  0.00    +0.318 C 
ATOM     14  O   LIG    1       23.548 -14.226   2.860  0.00  0.00    -0.250 OA
BRANCH  13  15
ATOM     15  O   LIG    1       25.368 -13.141   1.957  0.00  0.00    -0.464 OA
BRANCH  15  17
ATOM     16  C   LIG    1       24.001 -11.505   3.103  0.00  0.00    +0.048 C 
ATOM     17  C   LIG    1       24.710 -11.876   1.812  0.00  0.00    +0.229 C 
ENDBRANCH  15  17
ENDBRANCH  13  15
ENDBRANCH   1  13
BRANCH   4  18
ATOM     18  C   LIG    1       26.305 -18.327   4.563  0.00  0.00    +0.089 C 
BRANCH  18  19
ATOM     19  C   LIG    1       26.410 -19.869   4.583  0.00  0.00    +0.050 C 
BRANCH  19  20
ATOM     20  C   LIG    1       25.029 -20.476   4.683  0.00  0.00    -0.046 A 
ATOM     21  C   LIG    1       24.388 -20.585   5.921  0.00  0.00    +0.005 A 
ATOM     22  C   LIG    1       23.039 -20.941   5.986  0.00  0.00    +0.023 A 
ATOM     23  C   LIG    1       22.304 -21.159   4.819  0.00  0.00    +0.025 A 
ATOM     24  C   LIG    1       22.983 -21.206   3.601  0.00  0.00    +0.023 A 
ATOM     25  C   LIG    1       24.329 -20.841   3.525  0.00  0.00    +0.005 A 
BRANCH  23  26
ATOM     26  N   LIG    1       20.952 -21.520   4.891  0.00  0.00    -0.358 N 
ATOM     27  H   LIG    1       20.375 -20.786   5.293  0.00  0.00    +0.142 HD
ATOM     28  H   LIG    1       20.582 -21.833   3.997  0.00  0.00    +0.142 HD
ENDBRANCH  23  26
ENDBRANCH  19  20
ENDBRANCH  18  19
ENDBRANCH   4  18
TORSDOF 8
ENDMDL
