MODEL 1
REMARK VINA RESULT:      -2.1      0.000      0.000
REMARK  Name = *****
REMARK                            x       y       z     vdW  Elec       q    Type
REMARK                         _______ _______ _______ _____ _____    ______ ____
ROOT
ATOM      1  C   LIG    1       25.021 -17.155   4.077  0.00  0.00    +0.173 C 
ENDROOT
BRANCH   1   7
ATOM      2  O   LIG    1       27.128 -12.845   3.477  0.00  0.00    -0.158 OA
ATOM      3  S   LIG    1       26.843 -13.722   4.588  0.00  0.00    +0.032 S 
ATOM      4  N   LIG    1       25.224 -14.114   4.556  0.00  0.00    -0.180 NA
ATOM      5  H   LIG    1       24.849 -14.446   5.440  0.00  0.00    +0.149 HD
ATOM      6  C   LIG    1       24.773 -14.799   3.368  0.00  0.00    +0.192 C 
ATOM      7  N   LIG    1       25.412 -16.092   3.159  0.00  0.00    -0.274 NA
ATOM      8  C   LIG    1       26.877 -15.945   3.057  0.00  0.00    +0.111 C 
ATOM      9  C   LIG    1       27.560 -15.312   4.260  0.00  0.00    +0.200 C 
ATOM     10  O   LIG    1       27.148 -13.353   5.953  0.00  0.00    -0.158 OA
ENDBRANCH   1   7
BRANCH   1  11
ATOM     11  N   LIG    1       24.530 -18.351   3.400  0.00  0.00    -0.274 NA
ATOM     12  C   LIG    1       25.266 -19.582   3.659  0.00  0.00    +0.192 C 
ATOM     13  N   LIG    1       25.084 -20.091   4.998  0.00  0.00    -0.180 NA
ATOM     14  H   LIG    1       25.595 -19.613   5.736  0.00  0.00    +0.149 HD
ATOM     15  S   LIG    1       23.526 -20.523   5.397  0.00  0.00    +0.032 S 
ATOM     16  O   LIG    1       23.095 -21.570   4.498  0.00  0.00    -0.158 OA
ATOM     17  O   LIG    1       23.500 -20.686   6.832  0.00  0.00    -0.158 OA
ATOM     18  C   LIG    1       22.665 -19.027   4.984  0.00  0.00    +0.200 C 
ATOM     19  C   LIG    1       23.082 -18.556   3.597  0.00  0.00    +0.111 C 
ENDBRANCH   1  11
TORSDOF 2
ENDMDL
MODEL 2
REMARK VINA RESULT:      -2.1      0.017      6.363
REMARK  Name = *****
REMARK                            x       y       z     vdW  Elec       q    Type
REMARK                         _______ _______ _______ _____ _____    ______ ____
ROOT
ATOM      1  C   LIG    1       25.030 -17.155   4.076  0.00  0.00    +0.173 C 
ENDROOT
BRANCH   1   7
ATOM      2  O   LIG    1       23.103 -21.571   4.482  0.00  0.00    -0.158 OA
ATOM      3  S   LIG    1       23.524 -20.528   5.389  0.00  0.00    +0.032 S 
ATOM      4  N   LIG    1       25.088 -20.094   5.012  0.00  0.00    -0.180 NA
ATOM      5  H   LIG    1       25.590 -19.622   5.759  0.00  0.00    +0.149 HD
ATOM      6  C   LIG    1       25.288 -19.582   3.677  0.00  0.00    +0.192 C 
ATOM      7  N   LIG    1       24.549 -18.356   3.404  0.00  0.00    -0.274 NA
ATOM      8  C   LIG    1       23.099 -18.563   3.587  0.00  0.00    +0.111 C 
ATOM      9  C   LIG    1       22.671 -19.029   4.971  0.00  0.00    +0.200 C 
ATOM     10  O   LIG    1       23.480 -20.696   6.824  0.00  0.00    -0.158 OA
ENDBRANCH   1   7
BRANCH   1  11
ATOM     11  N   LIG    1       25.410 -16.090   3.154  0.00  0.00    -0.274 NA
ATOM     12  C   LIG    1       24.768 -14.799   3.365  0.00  0.00    +0.192 C 
ATOM     13  N   LIG    1       25.216 -14.121   4.558  0.00  0.00    -0.180 NA
ATOM     14  H   LIG    1       24.844 -14.466   5.440  0.00  0.00    +0.149 HD
ATOM     15  S   LIG    1       26.831 -13.718   4.594  0.00  0.00    +0.032 S 
ATOM     16  O   LIG    1       27.107 -12.828   3.488  0.00  0.00    -0.158 OA
ATOM     17  O   LIG    1       27.135 -13.361   5.959  0.00  0.00    -0.158 OA
ATOM     18  C   LIG    1       27.560 -15.299   4.249  0.00  0.00    +0.200 C 
ATOM     19  C   LIG    1       26.874 -15.934   3.046  0.00  0.00    +0.111 C 
ENDBRANCH   1  11
TORSDOF 2
ENDMDL
MODEL 3
REMARK VINA RESULT:      -0.1      1.663      2.013
REMARK  Name = *****
REMARK                            x       y       z     vdW  Elec       q    Type
REMARK                         _______ _______ _______ _____ _____    ______ ____
ROOT
ATOM      1  C   LIG    1       25.090 -16.489   3.982  0.00  0.00    +0.173 C 
ENDROOT
BRANCH   1   7
ATOM      2  O   LIG    1       26.690 -12.135   2.619  0.00  0.00    -0.158 OA
ATOM      3  S   LIG    1       25.403 -12.752   2.838  0.00  0.00    +0.032 S 
ATOM      4  N   LIG    1       25.337 -14.169   1.964  0.00  0.00    -0.180 NA
ATOM      5  H   LIG    1       24.398 -14.513   1.781  0.00  0.00    +0.149 HD
ATOM      6  C   LIG    1       26.330 -15.159   2.306  0.00  0.00    +0.192 C 
ATOM      7  N   LIG    1       26.232 -15.635   3.680  0.00  0.00    -0.274 NA
ATOM      8  C   LIG    1       26.372 -14.518   4.635  0.00  0.00    +0.111 C 
ATOM      9  C   LIG    1       25.352 -13.398   4.490  0.00  0.00    +0.200 C 
ATOM     10  O   LIG    1       24.164 -12.054   2.580  0.00  0.00    -0.158 OA
ENDBRANCH   1   7
BRANCH   1  11
ATOM     11  N   LIG    1       25.064 -17.719   3.197  0.00  0.00    -0.274 NA
ATOM     12  C   LIG    1       26.192 -18.622   3.382  0.00  0.00    +0.192 C 
ATOM     13  N   LIG    1       26.202 -19.276   4.669  0.00  0.00    -0.180 NA
ATOM     14  H   LIG    1       26.506 -18.711   5.459  0.00  0.00    +0.149 HD
ATOM     15  S   LIG    1       24.902 -20.269   4.981  0.00  0.00    +0.032 S 
ATOM     16  O   LIG    1       24.878 -21.320   3.988  0.00  0.00    -0.158 OA
ATOM     17  O   LIG    1       24.934 -20.553   6.397  0.00  0.00    -0.158 OA
ATOM     18  C   LIG    1       23.562 -19.150   4.661  0.00  0.00    +0.200 C 
ATOM     19  C   LIG    1       23.785 -18.444   3.329  0.00  0.00    +0.111 C 
ENDBRANCH   1  11
TORSDOF 2
ENDMDL
MODEL 4
REMARK VINA RESULT:       0.6      3.973      5.384
REMARK  Name = *****
REMARK                            x       y       z     vdW  Elec       q    Type
REMARK                         _______ _______ _______ _____ _____    ______ ____
ROOT
ATOM      1  C   LIG    1       24.669 -20.427   5.867  0.00  0.00    +0.173 C 
ENDROOT
BRANCH   1   7
ATOM      2  O   LIG    1       21.184 -18.331   3.252  0.00  0.00    -0.158 OA
ATOM      3  S   LIG    1       22.138 -17.907   4.250  0.00  0.00    +0.032 S 
ATOM      4  N   LIG    1       22.000 -18.906   5.576  0.00  0.00    -0.180 NA
ATOM      5  H   LIG    1       22.374 -18.521   6.439  0.00  0.00    +0.149 HD
ATOM      6  C   LIG    1       22.258 -20.305   5.332  0.00  0.00    +0.192 C 
ATOM      7  N   LIG    1       23.614 -20.579   4.873  0.00  0.00    -0.274 NA
ATOM      8  C   LIG    1       23.905 -19.850   3.623  0.00  0.00    +0.111 C 
ATOM      9  C   LIG    1       23.769 -18.336   3.699  0.00  0.00    +0.200 C 
ATOM     10  O   LIG    1       22.166 -16.554   4.758  0.00  0.00    -0.158 OA
ENDBRANCH   1   7
BRANCH   1  11
ATOM     11  N   LIG    1       25.866 -21.205   5.564  0.00  0.00    -0.274 NA
ATOM     12  C   LIG    1       26.592 -20.821   4.360  0.00  0.00    +0.192 C 
ATOM     13  N   LIG    1       27.272 -19.554   4.477  0.00  0.00    -0.180 NA
ATOM     14  H   LIG    1       26.691 -18.722   4.409  0.00  0.00    +0.149 HD
ATOM     15  S   LIG    1       28.460 -19.479   5.642  0.00  0.00    +0.032 S 
ATOM     16  O   LIG    1       29.474 -20.461   5.327  0.00  0.00    -0.158 OA
ATOM     17  O   LIG    1       28.775 -18.081   5.818  0.00  0.00    -0.158 OA
ATOM     18  C   LIG    1       27.549 -20.034   7.061  0.00  0.00    +0.200 C 
ATOM     19  C   LIG    1       26.781 -21.304   6.717  0.00  0.00    +0.111 C 
ENDBRANCH   1  11
TORSDOF 2
ENDMDL
MODEL 5
REMARK VINA RESULT:       0.8      2.406      6.210
REMARK  Name = *****
REMARK                            x       y       z     vdW  Elec       q    Type
REMARK                         _______ _______ _______ _____ _____    ______ ____
ROOT
ATOM      1  C   LIG    1       23.525 -14.503   3.360  0.00  0.00    +0.173 C 
ENDROOT
BRANCH   1   7
ATOM      2  O   LIG    1       22.572 -18.676   5.609  0.00  0.00    -0.158 OA
ATOM      3  S   LIG    1       22.132 -18.017   4.402  0.00  0.00    +0.032 S 
ATOM      4  N   LIG    1       21.632 -16.476   4.790  0.00  0.00    -0.180 NA
ATOM      5  H   LIG    1       21.015 -16.043   4.107  0.00  0.00    +0.149 HD
ATOM      6  C   LIG    1       22.638 -15.624   5.378  0.00  0.00    +0.192 C 
ATOM      7  N   LIG    1       23.776 -15.372   4.504  0.00  0.00    -0.274 NA
ATOM      8  C   LIG    1       24.434 -16.636   4.119  0.00  0.00    +0.111 C 
ATOM      9  C   LIG    1       23.550 -17.647   3.403  0.00  0.00    +0.200 C 
ATOM     10  O   LIG    1       21.105 -18.578   3.553  0.00  0.00    -0.158 OA
ENDBRANCH   1   7
BRANCH   1  11
ATOM     11  N   LIG    1       24.352 -13.301   3.356  0.00  0.00    -0.274 NA
ATOM     12  C   LIG    1       25.013 -12.973   4.612  0.00  0.00    +0.192 C 
ATOM     13  N   LIG    1       26.083 -13.880   4.954  0.00  0.00    -0.180 NA
ATOM     14  H   LIG    1       25.805 -14.787   5.320  0.00  0.00    +0.149 HD
ATOM     15  S   LIG    1       27.360 -13.921   3.885  0.00  0.00    +0.032 S 
ATOM     16  O   LIG    1       27.947 -12.601   3.820  0.00  0.00    -0.158 OA
ATOM     17  O   LIG    1       28.138 -15.090   4.222  0.00  0.00    -0.158 OA
ATOM     18  C   LIG    1       26.495 -14.237   2.368  0.00  0.00    +0.200 C 
ATOM     19  C   LIG    1       25.315 -13.283   2.237  0.00  0.00    +0.111 C 
ENDBRANCH   1  11
TORSDOF 2
ENDMDL
MODEL 6
REMARK VINA RESULT:       0.8      2.409      3.083
REMARK  Name = *****
REMARK                            x       y       z     vdW  Elec       q    Type
REMARK                         _______ _______ _______ _____ _____    ______ ____
ROOT
ATOM      1  C   LIG    1       23.513 -14.504   3.363  0.00  0.00    +0.173 C 
ENDROOT
BRANCH   1   7
ATOM      2  O   LIG    1       27.926 -12.574   3.795  0.00  0.00    -0.158 OA
ATOM      3  S   LIG    1       27.352 -13.897   3.880  0.00  0.00    +0.032 S 
ATOM      4  N   LIG    1       26.078 -13.857   4.952  0.00  0.00    -0.180 NA
ATOM      5  H   LIG    1       25.813 -14.761   5.332  0.00  0.00    +0.149 HD
ATOM      6  C   LIG    1       24.998 -12.964   4.604  0.00  0.00    +0.192 C 
ATOM      7  N   LIG    1       24.340 -13.303   3.349  0.00  0.00    -0.274 NA
ATOM      8  C   LIG    1       25.303 -13.293   2.230  0.00  0.00    +0.111 C 
ATOM      9  C   LIG    1       26.485 -14.241   2.370  0.00  0.00    +0.200 C 
ATOM     10  O   LIG    1       28.144 -15.054   4.228  0.00  0.00    -0.158 OA
ENDBRANCH   1   7
BRANCH   1  11
ATOM     11  N   LIG    1       23.770 -15.369   4.510  0.00  0.00    -0.274 NA
ATOM     12  C   LIG    1       22.635 -15.629   5.385  0.00  0.00    +0.192 C 
ATOM     13  N   LIG    1       21.630 -16.477   4.789  0.00  0.00    -0.180 NA
ATOM     14  H   LIG    1       21.020 -16.040   4.102  0.00  0.00    +0.149 HD
ATOM     15  S   LIG    1       22.130 -18.017   4.396  0.00  0.00    +0.032 S 
ATOM     16  O   LIG    1       22.563 -18.681   5.605  0.00  0.00    -0.158 OA
ATOM     17  O   LIG    1       21.110 -18.573   3.539  0.00  0.00    -0.158 OA
ATOM     18  C   LIG    1       23.557 -17.645   3.407  0.00  0.00    +0.200 C 
ATOM     19  C   LIG    1       24.435 -16.630   4.127  0.00  0.00    +0.111 C 
ENDBRANCH   1  11
TORSDOF 2
ENDMDL
