MODEL 1
REMARK VINA RESULT:      19.6      0.000      0.000
REMARK  Name = *****
REMARK                            x       y       z     vdW  Elec       q    Type
REMARK                         _______ _______ _______ _____ _____    ______ ____
ROOT
ATOM      1  C   LIG    1       26.948 -20.153   5.887  0.00  0.00    +0.005 C 
ENDROOT
BRANCH   1   2
ATOM      2  C   LIG    1       25.683 -20.438   6.692  0.00  0.00    +0.051 C 
BRANCH   2   3
ATOM      3  C   LIG    1       24.492 -19.559   6.249  0.00  0.00    +0.133 C 
BRANCH   3   5
ATOM      4  C   LIG    1       23.256 -21.569   7.061  0.00  0.00    +0.193 C 
ATOM      5  N   LIG    1       23.151 -20.322   6.189  0.00  0.00    +0.248 N 
ATOM      6  C   LIG    1       21.997 -19.458   6.713  0.00  0.00    +0.193 C 
BRANCH   5   7
ATOM      7  C   LIG    1       22.827 -20.786   4.673  0.00  0.00    +0.129 C 
ATOM      8  C   LIG    1       21.737 -19.931   4.014  0.00  0.00    +0.013 A 
ATOM      9  C   LIG    1       22.323 -19.080   3.047  0.00  0.00    -0.009 A 
ATOM     10  C   LIG    1       21.551 -18.142   2.371  0.00  0.00    +0.009 A 
ATOM     11  C   LIG    1       20.187 -18.085   2.645  0.00  0.00    +0.001 A 
ATOM     12  C   LIG    1       19.595 -18.975   3.553  0.00  0.00    +0.001 A 
ATOM     13  C   LIG    1       23.698 -19.465   2.855  0.00  0.00    -0.009 A 
ATOM     14  C   LIG    1       24.638 -18.996   1.945  0.00  0.00    +0.009 A 
ATOM     15  C   LIG    1       25.835 -19.695   1.814  0.00  0.00    +0.001 A 
ATOM     16  C   LIG    1       26.066 -20.871   2.544  0.00  0.00    +0.001 A 
ATOM     17  C   LIG    1       25.132 -21.322   3.487  0.00  0.00    +0.010 A 
ATOM     18  C   LIG    1       20.370 -19.918   4.236  0.00  0.00    +0.010 A 
ATOM     19  C   LIG    1       23.985 -20.575   3.688  0.00  0.00    +0.013 A 
ENDBRANCH   5   7
ENDBRANCH   3   5
ENDBRANCH   2   3
ENDBRANCH   1   2
BRANCH   1  20
ATOM     20  C   LIG    1       26.691 -19.129   4.763  0.00  0.00    +0.005 C 
BRANCH  20  21
ATOM     21  C   LIG    1       27.201 -17.760   5.208  0.00  0.00    +0.051 C 
BRANCH  21  22
ATOM     22  C   LIG    1       27.627 -16.832   4.056  0.00  0.00    +0.133 C 
BRANCH  22  23
ATOM     23  N   LIG    1       26.964 -15.433   4.147  0.00  0.00    +0.248 N 
ATOM     24  C   LIG    1       27.910 -14.370   3.594  0.00  0.00    +0.193 C 
ATOM     25  C   LIG    1       26.657 -15.091   5.609  0.00  0.00    +0.193 C 
BRANCH  23  26
ATOM     26  C   LIG    1       25.592 -15.407   3.302  0.00  0.00    +0.129 C 
ATOM     27  C   LIG    1       24.374 -15.866   4.110  0.00  0.00    +0.013 A 
ATOM     28  C   LIG    1       23.532 -14.762   4.380  0.00  0.00    -0.009 A 
ATOM     29  C   LIG    1       22.397 -14.899   5.160  0.00  0.00    +0.009 A 
ATOM     30  C   LIG    1       22.086 -16.166   5.659  0.00  0.00    +0.001 A 
ATOM     31  C   LIG    1       22.886 -17.275   5.346  0.00  0.00    +0.001 A 
ATOM     32  C   LIG    1       24.013 -13.610   3.643  0.00  0.00    -0.009 A 
ATOM     33  C   LIG    1       23.481 -12.337   3.536  0.00  0.00    +0.009 A 
ATOM     34  C   LIG    1       24.061 -11.449   2.627  0.00  0.00    +0.001 A 
ATOM     35  C   LIG    1       25.127 -11.857   1.812  0.00  0.00    +0.001 A 
ATOM     36  C   LIG    1       25.671 -13.138   1.930  0.00  0.00    +0.010 A 
ATOM     37  C   LIG    1       24.031 -17.136   4.557  0.00  0.00    +0.010 A 
ATOM     38  C   LIG    1       25.147 -13.994   2.894  0.00  0.00    +0.013 A 
ENDBRANCH  23  26
ENDBRANCH  22  23
ENDBRANCH  21  22
ENDBRANCH  20  21
ENDBRANCH   1  20
TORSDOF 9
ENDMDL
