MODEL 1
REMARK VINA RESULT:       2.1      0.000      0.000
REMARK  Name = *****
REMARK                            x       y       z     vdW  Elec       q    Type
REMARK                         _______ _______ _______ _____ _____    ______ ____
ROOT
ATOM      1  N   LIG    1       22.670 -17.701   4.479  0.00  0.00    -0.296 NA
ATOM      2  C   LIG    1       22.705 -18.889   3.602  0.00  0.00    +0.100 C 
ATOM      3  C   LIG    1       23.910 -18.954   2.635  0.00  0.00    +0.100 C 
ATOM      4  N   LIG    1       25.244 -18.835   3.288  0.00  0.00    -0.289 NA
ATOM      5  C   LIG    1       25.198 -17.594   4.095  0.00  0.00    +0.100 C 
ATOM      6  C   LIG    1       24.006 -17.503   5.085  0.00  0.00    +0.100 C 
ENDROOT
BRANCH   1   7
ATOM      7  C   LIG    1       22.247 -16.474   3.787  0.00  0.00    +0.112 C 
BRANCH   7   8
ATOM      8  C   LIG    1       23.400 -15.599   3.411  0.00  0.00    -0.011 C 
ATOM      9  C   LIG    1       23.977 -14.705   4.245  0.00  0.00    +0.005 C 
BRANCH   9  10
ATOM     10  C   LIG    1       25.130 -13.883   3.865  0.00  0.00    -0.025 A 
ATOM     11  C   LIG    1       26.337 -14.018   4.575  0.00  0.00    +0.008 A 
ATOM     12  C   LIG    1       27.452 -13.255   4.216  0.00  0.00    +0.001 A 
ATOM     13  C   LIG    1       27.381 -12.363   3.145  0.00  0.00    +0.000 A 
ATOM     14  C   LIG    1       26.192 -12.238   2.428  0.00  0.00    +0.001 A 
ATOM     15  C   LIG    1       25.083 -12.999   2.779  0.00  0.00    +0.008 A 
ENDBRANCH   9  10
ENDBRANCH   7   8
ENDBRANCH   1   7
BRANCH   4  16
ATOM     16  C   LIG    1       25.598 -20.061   4.079  0.00  0.00    +0.117 C 
BRANCH  16  17
ATOM     17  C   LIG    1       24.431 -20.619   4.928  0.00  0.00    -0.026 A 
ATOM     18  C   LIG    1       24.441 -20.630   6.332  0.00  0.00    +0.005 A 
ATOM     19  C   LIG    1       23.343 -21.115   7.057  0.00  0.00    +0.000 A 
ATOM     20  C   LIG    1       22.203 -21.569   6.398  0.00  0.00    +0.000 A 
ATOM     21  C   LIG    1       22.167 -21.564   5.009  0.00  0.00    +0.000 A 
ATOM     22  C   LIG    1       23.276 -21.117   4.286  0.00  0.00    +0.005 A 
ENDBRANCH  16  17
BRANCH  16  23
ATOM     23  C   LIG    1       26.882 -19.869   4.917  0.00  0.00    -0.026 A 
ATOM     24  C   LIG    1       27.222 -20.810   5.905  0.00  0.00    +0.005 A 
ATOM     25  C   LIG    1       28.394 -20.671   6.655  0.00  0.00    +0.000 A 
ATOM     26  C   LIG    1       29.244 -19.589   6.437  0.00  0.00    +0.000 A 
ATOM     27  C   LIG    1       28.926 -18.645   5.464  0.00  0.00    +0.000 A 
ATOM     28  C   LIG    1       27.753 -18.780   4.717  0.00  0.00    +0.005 A 
ENDBRANCH  16  23
ENDBRANCH   4  16
TORSDOF 6
ENDMDL
MODEL 2
REMARK VINA RESULT:       4.2      1.855      5.979
REMARK  Name = *****
REMARK                            x       y       z     vdW  Elec       q    Type
REMARK                         _______ _______ _______ _____ _____    ______ ____
ROOT
ATOM      1  N   LIG    1       24.393 -14.297   4.481  0.00  0.00    -0.296 NA
ATOM      2  C   LIG    1       24.824 -15.658   4.863  0.00  0.00    +0.100 C 
ATOM      3  C   LIG    1       25.202 -16.581   3.682  0.00  0.00    +0.100 C 
ATOM      4  N   LIG    1       26.228 -16.026   2.756  0.00  0.00    -0.289 NA
ATOM      5  C   LIG    1       25.725 -14.699   2.333  0.00  0.00    +0.100 C 
ATOM      6  C   LIG    1       25.348 -13.743   3.496  0.00  0.00    +0.100 C 
ENDROOT
BRANCH   1   7
ATOM      7  C   LIG    1       23.027 -14.247   3.938  0.00  0.00    +0.112 C 
BRANCH   7   8
ATOM      8  C   LIG    1       22.442 -15.607   3.725  0.00  0.00    -0.011 C 
ATOM      9  C   LIG    1       22.482 -16.601   4.640  0.00  0.00    +0.005 C 
BRANCH   9  10
ATOM     10  C   LIG    1       21.871 -17.915   4.423  0.00  0.00    -0.025 A 
ATOM     11  C   LIG    1       22.467 -19.056   4.988  0.00  0.00    +0.008 A 
ATOM     12  C   LIG    1       21.888 -20.315   4.805  0.00  0.00    +0.001 A 
ATOM     13  C   LIG    1       20.709 -20.450   4.071  0.00  0.00    +0.000 A 
ATOM     14  C   LIG    1       20.104 -19.319   3.523  0.00  0.00    +0.001 A 
ATOM     15  C   LIG    1       20.675 -18.065   3.708  0.00  0.00    +0.008 A 
ENDBRANCH   9  10
ENDBRANCH   7   8
ENDBRANCH   1   7
BRANCH   4  16
ATOM     16  C   LIG    1       27.592 -15.988   3.380  0.00  0.00    +0.117 C 
BRANCH  16  17
ATOM     17  C   LIG    1       27.909 -17.215   4.269  0.00  0.00    -0.026 A 
ATOM     18  C   LIG    1       27.096 -18.358   4.316  0.00  0.00    +0.005 A 
ATOM     19  C   LIG    1       27.445 -19.459   5.111  0.00  0.00    +0.000 A 
ATOM     20  C   LIG    1       28.626 -19.453   5.850  0.00  0.00    +0.000 A 
ATOM     21  C   LIG    1       29.449 -18.335   5.817  0.00  0.00    +0.000 A 
ATOM     22  C   LIG    1       29.083 -17.224   5.054  0.00  0.00    +0.005 A 
ENDBRANCH  16  17
BRANCH  16  23
ATOM     23  C   LIG    1       27.866 -14.656   4.115  0.00  0.00    -0.026 A 
ATOM     24  C   LIG    1       28.584 -13.634   3.470  0.00  0.00    +0.005 A 
ATOM     25  C   LIG    1       28.817 -12.410   4.105  0.00  0.00    +0.000 A 
ATOM     26  C   LIG    1       28.344 -12.188   5.397  0.00  0.00    +0.000 A 
ATOM     27  C   LIG    1       27.631 -13.187   6.055  0.00  0.00    +0.000 A 
ATOM     28  C   LIG    1       27.401 -14.412   5.423  0.00  0.00    +0.005 A 
ENDBRANCH  16  23
ENDBRANCH   4  16
TORSDOF 6
ENDMDL
