MODEL 1
REMARK VINA RESULT:      -2.7      0.000      0.000
REMARK  Name = *****
REMARK                            x       y       z     vdW  Elec       q    Type
REMARK                         _______ _______ _______ _____ _____    ______ ____
ROOT
ATOM      1  N   LIG    1       25.199 -13.153   5.177  0.00  0.00    -0.287 NA
ATOM      2  C   LIG    1       25.034 -12.202   4.061  0.00  0.00    +0.108 C 
ATOM      3  C   LIG    1       24.552 -12.829   2.710  0.00  0.00    +0.039 C 
ATOM      4  C   LIG    1       23.949 -11.744   1.812  0.00  0.00    +0.030 C 
ATOM      5  C   LIG    1       23.467 -13.916   2.972  0.00  0.00    +0.108 C 
ATOM      6  N   LIG    1       23.820 -14.813   4.092  0.00  0.00    -0.287 NA
ATOM      7  C   LIG    1       23.993 -13.970   5.285  0.00  0.00    +0.171 C 
ENDROOT
BRANCH   3   8
ATOM      8  N   LIG    1       25.675 -13.407   1.935  0.00  0.00    -0.323 NA
ATOM      9  H   LIG    1       26.543 -13.042   2.264  0.00  0.00    +0.119 HD
ATOM     10  H   LIG    1       25.705 -14.413   2.161  0.00  0.00    +0.119 HD
ENDBRANCH   3   8
BRANCH   1  11
ATOM     11  C   LIG    1       26.493 -13.864   5.168  0.00  0.00    +0.089 C 
BRANCH  11  12
ATOM     12  C   LIG    1       27.146 -14.297   3.810  0.00  0.00    +0.003 C 
BRANCH  12  13
ATOM     13  C   LIG    1       28.567 -13.657   3.637  0.00  0.00    +0.001 C 
ATOM     14  C   LIG    1       28.826 -12.338   4.355  0.00  0.00    +0.004 C 
ENDBRANCH  12  13
BRANCH  12  15
ATOM     15  C   LIG    1       27.349 -15.839   3.665  0.00  0.00    +0.005 C 
BRANCH  15  16
ATOM     16  C   LIG    1       28.307 -16.469   4.676  0.00  0.00    +0.000 C 
BRANCH  16  18
ATOM     17  C   LIG    1       29.325 -18.615   5.649  0.00  0.00    +0.004 C 
ATOM     18  C   LIG    1       28.253 -17.996   4.772  0.00  0.00    -0.003 C 
ENDBRANCH  16  18
ENDBRANCH  15  16
ENDBRANCH  12  15
ENDBRANCH  11  12
ENDBRANCH   1  11
BRANCH   6  19
ATOM     19  C   LIG    1       22.770 -15.832   4.331  0.00  0.00    +0.089 C 
BRANCH  19  20
ATOM     20  C   LIG    1       23.094 -17.319   3.962  0.00  0.00    +0.003 C 
BRANCH  20  21
ATOM     21  C   LIG    1       24.608 -17.597   3.794  0.00  0.00    +0.001 C 
ATOM     22  C   LIG    1       24.939 -19.029   3.359  0.00  0.00    +0.004 C 
ENDBRANCH  20  21
BRANCH  20  23
ATOM     23  C   LIG    1       22.421 -18.296   4.961  0.00  0.00    +0.005 C 
BRANCH  23  24
ATOM     24  C   LIG    1       21.805 -19.555   4.340  0.00  0.00    +0.000 C 
BRANCH  24  25
ATOM     25  C   LIG    1       22.275 -20.818   5.067  0.00  0.00    -0.003 C 
ATOM     26  C   LIG    1       23.152 -20.483   6.264  0.00  0.00    +0.004 C 
ENDBRANCH  24  25
ENDBRANCH  23  24
ENDBRANCH  20  23
ENDBRANCH  19  20
ENDBRANCH   6  19
TORSDOF 13
ENDMDL
MODEL 2
REMARK VINA RESULT:      -2.5      1.731      5.196
REMARK  Name = *****
REMARK                            x       y       z     vdW  Elec       q    Type
REMARK                         _______ _______ _______ _____ _____    ______ ____
ROOT
ATOM      1  N   LIG    1       25.981 -16.154   3.107  0.00  0.00    -0.287 NA
ATOM      2  C   LIG    1       26.594 -14.814   3.025  0.00  0.00    +0.108 C 
ATOM      3  C   LIG    1       27.631 -14.480   4.149  0.00  0.00    +0.039 C 
ATOM      4  C   LIG    1       28.540 -13.331   3.701  0.00  0.00    +0.030 C 
ATOM      5  C   LIG    1       28.518 -15.724   4.457  0.00  0.00    +0.108 C 
ATOM      6  N   LIG    1       27.733 -16.972   4.556  0.00  0.00    -0.287 NA
ATOM      7  C   LIG    1       27.038 -17.150   3.271  0.00  0.00    +0.171 C 
ENDROOT
BRANCH   3   8
ATOM      8  N   LIG    1       26.971 -14.005   5.388  0.00  0.00    -0.323 NA
ATOM      9  H   LIG    1       27.259 -13.073   5.595  0.00  0.00    +0.119 HD
ATOM     10  H   LIG    1       25.964 -13.934   5.179  0.00  0.00    +0.119 HD
ENDBRANCH   3   8
BRANCH   1  11
ATOM     11  C   LIG    1       24.837 -16.231   4.038  0.00  0.00    +0.089 C 
BRANCH  11  12
ATOM     12  C   LIG    1       23.665 -15.195   3.934  0.00  0.00    +0.003 C 
BRANCH  12  13
ATOM     13  C   LIG    1       22.301 -15.839   4.366  0.00  0.00    +0.001 C 
ATOM     14  C   LIG    1       22.327 -17.305   4.778  0.00  0.00    +0.004 C 
ENDBRANCH  12  13
BRANCH  12  15
ATOM     15  C   LIG    1       23.849 -13.933   4.835  0.00  0.00    +0.005 C 
BRANCH  15  16
ATOM     16  C   LIG    1       24.002 -12.610   4.084  0.00  0.00    +0.000 C 
BRANCH  16  18
ATOM     17  C   LIG    1       24.454 -11.447   1.841  0.00  0.00    +0.004 C 
ATOM     18  C   LIG    1       24.046 -12.721   2.558  0.00  0.00    -0.003 C 
ENDBRANCH  16  18
ENDBRANCH  15  16
ENDBRANCH  12  15
ENDBRANCH  11  12
ENDBRANCH   1  11
BRANCH   6  19
ATOM     19  C   LIG    1       28.597 -18.142   4.838  0.00  0.00    +0.089 C 
BRANCH  19  20
ATOM     20  C   LIG    1       27.902 -19.483   5.254  0.00  0.00    +0.003 C 
BRANCH  20  21
ATOM     21  C   LIG    1       28.058 -19.818   6.757  0.00  0.00    +0.001 C 
ATOM     22  C   LIG    1       29.148 -20.851   7.061  0.00  0.00    +0.004 C 
ENDBRANCH  20  21
BRANCH  20  23
ATOM     23  C   LIG    1       26.420 -19.503   4.795  0.00  0.00    +0.005 C 
BRANCH  23  24
ATOM     24  C   LIG    1       25.508 -20.474   5.552  0.00  0.00    +0.000 C 
BRANCH  24  25
ATOM     25  C   LIG    1       24.359 -20.962   4.664  0.00  0.00    -0.003 C 
ATOM     26  C   LIG    1       23.008 -20.752   5.330  0.00  0.00    +0.004 C 
ENDBRANCH  24  25
ENDBRANCH  23  24
ENDBRANCH  20  23
ENDBRANCH  19  20
ENDBRANCH   6  19
TORSDOF 13
ENDMDL
MODEL 3
REMARK VINA RESULT:      -2.4      2.110      6.329
REMARK  Name = *****
REMARK                            x       y       z     vdW  Elec       q    Type
REMARK                         _______ _______ _______ _____ _____    ______ ____
ROOT
ATOM      1  N   LIG    1       24.666 -18.441   3.452  0.00  0.00    -0.287 NA
ATOM      2  C   LIG    1       23.355 -19.100   3.294  0.00  0.00    +0.108 C 
ATOM      3  C   LIG    1       22.230 -18.598   4.259  0.00  0.00    +0.039 C 
ATOM      4  C   LIG    1       20.853 -18.960   3.695  0.00  0.00    +0.030 C 
ATOM      5  C   LIG    1       22.307 -17.050   4.425  0.00  0.00    +0.108 C 
ATOM      6  N   LIG    1       23.690 -16.569   4.626  0.00  0.00    -0.287 NA
ATOM      7  C   LIG    1       24.472 -16.993   3.454  0.00  0.00    +0.171 C 
ENDROOT
BRANCH   3   8
ATOM      8  N   LIG    1       22.302 -19.257   5.584  0.00  0.00    -0.323 NA
ATOM      9  H   LIG    1       23.250 -19.314   5.889  0.00  0.00    +0.119 HD
ATOM     10  H   LIG    1       21.843 -18.623   6.257  0.00  0.00    +0.119 HD
ENDBRANCH   3   8
BRANCH   1  11
ATOM     11  C   LIG    1       25.492 -19.009   4.537  0.00  0.00    +0.089 C 
BRANCH  11  12
ATOM     12  C   LIG    1       24.923 -20.153   5.445  0.00  0.00    +0.003 C 
BRANCH  12  13
ATOM     13  C   LIG    1       24.930 -21.529   4.691  0.00  0.00    +0.001 C 
ATOM     14  C   LIG    1       24.274 -21.570   3.316  0.00  0.00    +0.004 C 
ENDBRANCH  12  13
BRANCH  12  15
ATOM     15  C   LIG    1       25.730 -20.381   6.762  0.00  0.00    +0.005 C 
BRANCH  15  16
ATOM     16  C   LIG    1       26.833 -21.437   6.677  0.00  0.00    +0.000 C 
BRANCH  16  18
ATOM     17  C   LIG    1       28.810 -19.888   6.152  0.00  0.00    +0.004 C 
ATOM     18  C   LIG    1       28.235 -20.958   7.061  0.00  0.00    -0.003 C 
ENDBRANCH  16  18
ENDBRANCH  15  16
ENDBRANCH  12  15
ENDBRANCH  11  12
ENDBRANCH   1  11
BRANCH   6  19
ATOM     19  C   LIG    1       23.742 -15.095   4.771  0.00  0.00    +0.089 C 
BRANCH  19  20
ATOM     20  C   LIG    1       24.667 -14.295   3.793  0.00  0.00    +0.003 C 
BRANCH  20  21
ATOM     21  C   LIG    1       23.897 -13.314   2.877  0.00  0.00    +0.001 C 
ATOM     22  C   LIG    1       24.795 -12.428   2.007  0.00  0.00    +0.004 C 
ENDBRANCH  20  21
BRANCH  20  23
ATOM     23  C   LIG    1       25.819 -13.599   4.567  0.00  0.00    +0.005 C 
BRANCH  23  24
ATOM     24  C   LIG    1       27.141 -14.373   4.618  0.00  0.00    +0.000 C 
BRANCH  24  25
ATOM     25  C   LIG    1       28.117 -13.874   3.549  0.00  0.00    -0.003 C 
ATOM     26  C   LIG    1       28.839 -12.612   3.995  0.00  0.00    +0.004 C 
ENDBRANCH  24  25
ENDBRANCH  23  24
ENDBRANCH  20  23
ENDBRANCH  19  20
ENDBRANCH   6  19
TORSDOF 13
ENDMDL
MODEL 4
REMARK VINA RESULT:      -1.8      2.624      7.167
REMARK  Name = *****
REMARK                            x       y       z     vdW  Elec       q    Type
REMARK                         _______ _______ _______ _____ _____    ______ ____
ROOT
ATOM      1  N   LIG    1       25.902 -19.711   5.685  0.00  0.00    -0.287 NA
ATOM      2  C   LIG    1       27.059 -19.832   6.593  0.00  0.00    +0.108 C 
ATOM      3  C   LIG    1       28.451 -19.503   5.955  0.00  0.00    +0.039 C 
ATOM      4  C   LIG    1       29.468 -19.175   7.053  0.00  0.00    +0.030 C 
ATOM      5  C   LIG    1       28.335 -18.276   5.002  0.00  0.00    +0.108 C 
ATOM      6  N   LIG    1       27.146 -18.345   4.128  0.00  0.00    -0.287 NA
ATOM      7  C   LIG    1       25.967 -18.419   5.005  0.00  0.00    +0.171 C 
ENDROOT
BRANCH   3   8
ATOM      8  N   LIG    1       29.014 -20.664   5.226  0.00  0.00    -0.323 NA
ATOM      9  H   LIG    1       29.983 -20.766   5.439  0.00  0.00    +0.119 HD
ATOM     10  H   LIG    1       28.564 -21.506   5.616  0.00  0.00    +0.119 HD
ENDBRANCH   3   8
BRANCH   1  11
ATOM     11  C   LIG    1       25.678 -20.902   4.842  0.00  0.00    +0.089 C 
BRANCH  11  12
ATOM     12  C   LIG    1       24.223 -21.310   4.424  0.00  0.00    +0.003 C 
BRANCH  12  13
ATOM     13  C   LIG    1       23.325 -21.572   5.683  0.00  0.00    +0.001 C 
ATOM     14  C   LIG    1       23.874 -21.122   7.032  0.00  0.00    +0.004 C 
ENDBRANCH  12  13
BRANCH  12  15
ATOM     15  C   LIG    1       23.476 -20.228   3.581  0.00  0.00    +0.005 C 
BRANCH  15  16
ATOM     16  C   LIG    1       22.532 -19.321   4.373  0.00  0.00    +0.000 C 
BRANCH  16  18
ATOM     17  C   LIG    1       22.005 -16.895   5.020  0.00  0.00    +0.004 C 
ATOM     18  C   LIG    1       22.541 -17.846   3.966  0.00  0.00    -0.003 C 
ENDBRANCH  16  18
ENDBRANCH  15  16
ENDBRANCH  12  15
ENDBRANCH  11  12
ENDBRANCH   1  11
BRANCH   6  19
ATOM     19  C   LIG    1       27.050 -17.163   3.238  0.00  0.00    +0.089 C 
BRANCH  19  20
ATOM     20  C   LIG    1       26.692 -15.784   3.888  0.00  0.00    +0.003 C 
BRANCH  20  21
ATOM     21  C   LIG    1       27.911 -14.844   4.051  0.00  0.00    +0.001 C 
ATOM     22  C   LIG    1       27.566 -13.457   4.604  0.00  0.00    +0.004 C 
ENDBRANCH  20  21
BRANCH  20  23
ATOM     23  C   LIG    1       25.519 -15.105   3.133  0.00  0.00    +0.005 C 
BRANCH  23  24
ATOM     24  C   LIG    1       24.396 -14.553   4.018  0.00  0.00    +0.000 C 
BRANCH  24  25
ATOM     25  C   LIG    1       23.912 -13.191   3.514  0.00  0.00    -0.003 C 
ATOM     26  C   LIG    1       24.580 -12.809   2.202  0.00  0.00    +0.004 C 
ENDBRANCH  24  25
ENDBRANCH  23  24
ENDBRANCH  20  23
ENDBRANCH  19  20
ENDBRANCH   6  19
TORSDOF 13
ENDMDL
MODEL 5
REMARK VINA RESULT:      -1.7      2.396      6.384
REMARK  Name = *****
REMARK                            x       y       z     vdW  Elec       q    Type
REMARK                         _______ _______ _______ _____ _____    ______ ____
ROOT
ATOM      1  N   LIG    1       25.415 -20.193   4.883  0.00  0.00    -0.287 NA
ATOM      2  C   LIG    1       24.313 -21.171   4.973  0.00  0.00    +0.108 C 
ATOM      3  C   LIG    1       22.888 -20.559   5.185  0.00  0.00    +0.039 C 
ATOM      4  C   LIG    1       21.814 -21.570   4.770  0.00  0.00    +0.030 C 
ATOM      5  C   LIG    1       22.715 -19.271   4.327  0.00  0.00    +0.108 C 
ATOM      6  N   LIG    1       23.893 -18.381   4.395  0.00  0.00    -0.287 NA
ATOM      7  C   LIG    1       25.050 -19.156   3.920  0.00  0.00    +0.171 C 
ENDROOT
BRANCH   3   8
ATOM      8  N   LIG    1       22.621 -20.261   6.612  0.00  0.00    -0.323 NA
ATOM      9  H   LIG    1       22.107 -19.410   6.695  0.00  0.00    +0.119 HD
ATOM     10  H   LIG    1       21.981 -20.994   6.954  0.00  0.00    +0.119 HD
ENDBRANCH   3   8
BRANCH   1  11
ATOM     11  C   LIG    1       25.921 -19.743   6.195  0.00  0.00    +0.089 C 
BRANCH  11  12
ATOM     12  C   LIG    1       27.461 -19.729   6.483  0.00  0.00    +0.003 C 
BRANCH  12  13
ATOM     13  C   LIG    1       27.954 -21.128   6.993  0.00  0.00    +0.001 C 
ATOM     14  C   LIG    1       29.460 -21.350   7.062  0.00  0.00    +0.004 C 
ENDBRANCH  12  13
BRANCH  12  15
ATOM     15  C   LIG    1       28.339 -19.392   5.236  0.00  0.00    +0.005 C 
BRANCH  15  16
ATOM     16  C   LIG    1       28.665 -17.910   5.048  0.00  0.00    +0.000 C 
BRANCH  16  18
ATOM     17  C   LIG    1       27.623 -15.704   4.252  0.00  0.00    +0.004 C 
ATOM     18  C   LIG    1       27.836 -17.183   3.987  0.00  0.00    -0.003 C 
ENDBRANCH  16  18
ENDBRANCH  15  16
ENDBRANCH  12  15
ENDBRANCH  11  12
ENDBRANCH   1  11
BRANCH   6  19
ATOM     19  C   LIG    1       23.713 -17.168   3.563  0.00  0.00    +0.089 C 
BRANCH  19  20
ATOM     20  C   LIG    1       23.009 -15.930   4.215  0.00  0.00    +0.003 C 
BRANCH  20  21
ATOM     21  C   LIG    1       22.282 -16.261   5.541  0.00  0.00    +0.001 C 
ATOM     22  C   LIG    1       21.837 -15.031   6.338  0.00  0.00    +0.004 C 
ENDBRANCH  20  21
BRANCH  20  23
ATOM     23  C   LIG    1       24.001 -14.746   4.366  0.00  0.00    +0.005 C 
BRANCH  23  24
ATOM     24  C   LIG    1       24.096 -13.807   3.158  0.00  0.00    +0.000 C 
BRANCH  24  25
ATOM     25  C   LIG    1       24.113 -12.340   3.596  0.00  0.00    -0.003 C 
ATOM     26  C   LIG    1       24.375 -12.204   5.088  0.00  0.00    +0.004 C 
ENDBRANCH  24  25
ENDBRANCH  23  24
ENDBRANCH  20  23
ENDBRANCH  19  20
ENDBRANCH   6  19
TORSDOF 13
ENDMDL
MODEL 6
REMARK VINA RESULT:      -1.7      2.371      5.390
REMARK  Name = *****
REMARK                            x       y       z     vdW  Elec       q    Type
REMARK                         _______ _______ _______ _____ _____    ______ ____
ROOT
ATOM      1  N   LIG    1       26.486 -18.208   3.519  0.00  0.00    -0.287 NA
ATOM      2  C   LIG    1       27.697 -18.728   4.183  0.00  0.00    +0.108 C 
ATOM      3  C   LIG    1       27.440 -19.721   5.367  0.00  0.00    +0.039 C 
ATOM      4  C   LIG    1       28.696 -20.555   5.635  0.00  0.00    +0.030 C 
ATOM      5  C   LIG    1       26.267 -20.686   5.022  0.00  0.00    +0.108 C 
ATOM      6  N   LIG    1       25.116 -19.987   4.412  0.00  0.00    -0.287 NA
ATOM      7  C   LIG    1       25.607 -19.328   3.191  0.00  0.00    +0.171 C 
ENDROOT
BRANCH   3   8
ATOM      8  N   LIG    1       27.158 -19.008   6.635  0.00  0.00    -0.323 NA
ATOM      9  H   LIG    1       27.702 -19.397   7.376  0.00  0.00    +0.119 HD
ATOM     10  H   LIG    1       27.512 -18.046   6.520  0.00  0.00    +0.119 HD
ENDBRANCH   3   8
BRANCH   1  11
ATOM     11  C   LIG    1       25.874 -17.056   4.212  0.00  0.00    +0.089 C 
BRANCH  11  12
ATOM     12  C   LIG    1       25.483 -15.769   3.407  0.00  0.00    +0.003 C 
BRANCH  12  13
ATOM     13  C   LIG    1       24.546 -14.837   4.252  0.00  0.00    +0.001 C 
ATOM     14  C   LIG    1       23.993 -13.598   3.560  0.00  0.00    +0.004 C 
ENDBRANCH  12  13
BRANCH  12  15
ATOM     15  C   LIG    1       26.701 -14.886   2.987  0.00  0.00    +0.005 C 
BRANCH  15  16
ATOM     16  C   LIG    1       27.691 -14.564   4.107  0.00  0.00    +0.000 C 
BRANCH  16  18
ATOM     17  C   LIG    1       28.683 -12.276   4.715  0.00  0.00    +0.004 C 
ATOM     18  C   LIG    1       27.490 -13.211   4.795  0.00  0.00    -0.003 C 
ENDBRANCH  16  18
ENDBRANCH  15  16
ENDBRANCH  12  15
ENDBRANCH  11  12
ENDBRANCH   1  11
BRANCH   6  19
ATOM     19  C   LIG    1       24.017 -20.925   4.082  0.00  0.00    +0.089 C 
BRANCH  19  20
ATOM     20  C   LIG    1       22.627 -20.695   4.767  0.00  0.00    +0.003 C 
BRANCH  20  21
ATOM     21  C   LIG    1       22.407 -21.569   6.025  0.00  0.00    +0.001 C 
ATOM     22  C   LIG    1       23.532 -21.474   7.061  0.00  0.00    +0.004 C 
ENDBRANCH  20  21
BRANCH  20  23
ATOM     23  C   LIG    1       22.392 -19.187   5.046  0.00  0.00    +0.005 C 
BRANCH  23  24
ATOM     24  C   LIG    1       21.722 -18.403   3.913  0.00  0.00    +0.000 C 
BRANCH  24  25
ATOM     25  C   LIG    1       20.301 -18.911   3.652  0.00  0.00    -0.003 C 
ATOM     26  C   LIG    1       19.554 -18.013   2.679  0.00  0.00    +0.004 C 
ENDBRANCH  24  25
ENDBRANCH  23  24
ENDBRANCH  20  23
ENDBRANCH  19  20
ENDBRANCH   6  19
TORSDOF 13
ENDMDL
MODEL 7
REMARK VINA RESULT:      -1.6      1.681      4.076
REMARK  Name = *****
REMARK                            x       y       z     vdW  Elec       q    Type
REMARK                         _______ _______ _______ _____ _____    ______ ____
ROOT
ATOM      1  N   LIG    1       25.729 -15.013   3.629  0.00  0.00    -0.287 NA
ATOM      2  C   LIG    1       24.596 -14.639   4.498  0.00  0.00    +0.108 C 
ATOM      3  C   LIG    1       23.323 -15.540   4.366  0.00  0.00    +0.039 C 
ATOM      4  C   LIG    1       22.444 -15.393   5.612  0.00  0.00    +0.030 C 
ATOM      5  C   LIG    1       23.729 -17.037   4.219  0.00  0.00    +0.108 C 
ATOM      6  N   LIG    1       24.845 -17.233   3.271  0.00  0.00    -0.287 NA
ATOM      7  C   LIG    1       25.983 -16.445   3.771  0.00  0.00    +0.171 C 
ENDROOT
BRANCH   3   8
ATOM      8  N   LIG    1       22.469 -15.129   3.226  0.00  0.00    -0.323 NA
ATOM      9  H   LIG    1       22.054 -15.930   2.802  0.00  0.00    +0.119 HD
ATOM     10  H   LIG    1       21.680 -14.598   3.624  0.00  0.00    +0.119 HD
ENDBRANCH   3   8
BRANCH   1  11
ATOM     11  C   LIG    1       25.627 -14.483   2.255  0.00  0.00    +0.089 C 
BRANCH  11  12
ATOM     12  C   LIG    1       25.913 -12.968   1.970  0.00  0.00    +0.003 C 
BRANCH  12  13
ATOM     13  C   LIG    1       24.578 -12.159   1.819  0.00  0.00    +0.001 C 
ATOM     14  C   LIG    1       23.907 -11.682   3.101  0.00  0.00    +0.004 C 
ENDBRANCH  12  13
BRANCH  12  15
ATOM     15  C   LIG    1       26.724 -12.251   3.097  0.00  0.00    +0.005 C 
BRANCH  15  16
ATOM     16  C   LIG    1       28.086 -12.869   3.415  0.00  0.00    +0.000 C 
BRANCH  16  18
ATOM     17  C   LIG    1       27.541 -13.275   5.889  0.00  0.00    +0.004 C 
ATOM     18  C   LIG    1       28.538 -12.753   4.872  0.00  0.00    -0.003 C 
ENDBRANCH  16  18
ENDBRANCH  15  16
ENDBRANCH  12  15
ENDBRANCH  11  12
ENDBRANCH   1  11
BRANCH   6  19
ATOM     19  C   LIG    1       25.222 -18.662   3.155  0.00  0.00    +0.089 C 
BRANCH  19  20
ATOM     20  C   LIG    1       24.869 -19.612   4.349  0.00  0.00    +0.003 C 
BRANCH  20  21
ATOM     21  C   LIG    1       23.802 -20.676   3.997  0.00  0.00    +0.001 C 
ATOM     22  C   LIG    1       22.582 -20.674   4.924  0.00  0.00    +0.004 C 
ENDBRANCH  20  21
BRANCH  20  23
ATOM     23  C   LIG    1       26.153 -20.240   4.954  0.00  0.00    +0.005 C 
BRANCH  23  24
ATOM     24  C   LIG    1       26.100 -20.529   6.459  0.00  0.00    +0.000 C 
BRANCH  24  25
ATOM     25  C   LIG    1       27.507 -20.604   7.058  0.00  0.00    -0.003 C 
ATOM     26  C   LIG    1       28.519 -19.849   6.209  0.00  0.00    +0.004 C 
ENDBRANCH  24  25
ENDBRANCH  23  24
ENDBRANCH  20  23
ENDBRANCH  19  20
ENDBRANCH   6  19
TORSDOF 13
ENDMDL
MODEL 8
REMARK VINA RESULT:      -1.4      2.160      5.351
REMARK  Name = *****
REMARK                            x       y       z     vdW  Elec       q    Type
REMARK                         _______ _______ _______ _____ _____    ______ ____
ROOT
ATOM      1  N   LIG    1       27.019 -17.664   3.743  0.00  0.00    -0.287 NA
ATOM      2  C   LIG    1       28.179 -18.305   4.392  0.00  0.00    +0.108 C 
ATOM      3  C   LIG    1       27.834 -19.417   5.438  0.00  0.00    +0.039 C 
ATOM      4  C   LIG    1       29.048 -20.326   5.659  0.00  0.00    +0.030 C 
ATOM      5  C   LIG    1       26.647 -20.290   4.933  0.00  0.00    +0.108 C 
ATOM      6  N   LIG    1       25.550 -19.481   4.362  0.00  0.00    -0.287 NA
ATOM      7  C   LIG    1       26.119 -18.704   3.249  0.00  0.00    +0.171 C 
ENDROOT
BRANCH   3   8
ATOM      8  N   LIG    1       27.518 -18.846   6.769  0.00  0.00    -0.323 NA
ATOM      9  H   LIG    1       27.099 -19.540   7.350  0.00  0.00    +0.119 HD
ATOM     10  H   LIG    1       28.420 -18.629   7.221  0.00  0.00    +0.119 HD
ENDBRANCH   3   8
BRANCH   1  11
ATOM     11  C   LIG    1       26.415 -16.578   4.540  0.00  0.00    +0.089 C 
BRANCH  11  12
ATOM     12  C   LIG    1       26.463 -15.099   4.022  0.00  0.00    +0.003 C 
BRANCH  12  13
ATOM     13  C   LIG    1       27.942 -14.611   3.843  0.00  0.00    +0.001 C 
ATOM     14  C   LIG    1       28.244 -13.162   4.208  0.00  0.00    +0.004 C 
ENDBRANCH  12  13
BRANCH  12  15
ATOM     15  C   LIG    1       25.770 -14.887   2.638  0.00  0.00    +0.005 C 
BRANCH  15  16
ATOM     16  C   LIG    1       25.424 -13.437   2.297  0.00  0.00    +0.000 C 
BRANCH  16  18
ATOM     17  C   LIG    1       24.144 -12.295   4.205  0.00  0.00    +0.004 C 
ATOM     18  C   LIG    1       24.080 -12.937   2.832  0.00  0.00    -0.003 C 
ENDBRANCH  16  18
ENDBRANCH  15  16
ENDBRANCH  12  15
ENDBRANCH  11  12
ENDBRANCH   1  11
BRANCH   6  19
ATOM     19  C   LIG    1       24.436 -20.330   3.878  0.00  0.00    +0.089 C 
BRANCH  19  20
ATOM     20  C   LIG    1       23.096 -20.313   4.688  0.00  0.00    +0.003 C 
BRANCH  20  21
ATOM     21  C   LIG    1       23.300 -20.175   6.216  0.00  0.00    +0.001 C 
ATOM     22  C   LIG    1       23.485 -21.509   6.948  0.00  0.00    +0.004 C 
ENDBRANCH  20  21
BRANCH  20  23
ATOM     23  C   LIG    1       22.122 -19.245   4.124  0.00  0.00    +0.005 C 
BRANCH  23  24
ATOM     24  C   LIG    1       22.065 -17.927   4.904  0.00  0.00    +0.000 C 
BRANCH  24  25
ATOM     25  C   LIG    1       22.836 -16.820   4.179  0.00  0.00    -0.003 C 
ATOM     26  C   LIG    1       22.755 -15.498   4.927  0.00  0.00    +0.004 C 
ENDBRANCH  24  25
ENDBRANCH  23  24
ENDBRANCH  20  23
ENDBRANCH  19  20
ENDBRANCH   6  19
TORSDOF 13
ENDMDL
MODEL 9
REMARK VINA RESULT:      -0.6      2.371      6.058
REMARK  Name = *****
REMARK                            x       y       z     vdW  Elec       q    Type
REMARK                         _______ _______ _______ _____ _____    ______ ____
ROOT
ATOM      1  N   LIG    1       25.141 -20.107   4.033  0.00  0.00    -0.287 NA
ATOM      2  C   LIG    1       24.100 -21.076   4.426  0.00  0.00    +0.108 C 
ATOM      3  C   LIG    1       22.833 -20.460   5.109  0.00  0.00    +0.039 C 
ATOM      4  C   LIG    1       21.656 -21.436   5.013  0.00  0.00    +0.030 C 
ATOM      5  C   LIG    1       22.431 -19.127   4.409  0.00  0.00    +0.108 C 
ATOM      6  N   LIG    1       23.593 -18.255   4.137  0.00  0.00    -0.287 NA
ATOM      7  C   LIG    1       24.518 -19.018   3.284  0.00  0.00    +0.171 C 
ENDROOT
BRANCH   3   8
ATOM      8  N   LIG    1       23.042 -20.231   6.559  0.00  0.00    -0.323 NA
ATOM      9  H   LIG    1       22.918 -21.083   7.063  0.00  0.00    +0.119 HD
ATOM     10  H   LIG    1       24.038 -19.991   6.681  0.00  0.00    +0.119 HD
ENDBRANCH   3   8
BRANCH   1  11
ATOM     11  C   LIG    1       26.050 -19.730   5.134  0.00  0.00    +0.089 C 
BRANCH  11  12
ATOM     12  C   LIG    1       27.460 -19.120   4.819  0.00  0.00    +0.003 C 
BRANCH  12  13
ATOM     13  C   LIG    1       27.338 -17.631   4.341  0.00  0.00    +0.001 C 
ATOM     14  C   LIG    1       28.563 -16.743   4.521  0.00  0.00    +0.004 C 
ENDBRANCH  12  13
BRANCH  12  15
ATOM     15  C   LIG    1       28.432 -19.101   6.041  0.00  0.00    +0.005 C 
BRANCH  15  16
ATOM     16  C   LIG    1       29.298 -20.351   6.206  0.00  0.00    +0.000 C 
BRANCH  16  18
ATOM     17  C   LIG    1       27.178 -21.571   6.983  0.00  0.00    +0.004 C 
ATOM     18  C   LIG    1       28.690 -21.465   7.062  0.00  0.00    -0.003 C 
ENDBRANCH  16  18
ENDBRANCH  15  16
ENDBRANCH  12  15
ENDBRANCH  11  12
ENDBRANCH   1  11
BRANCH   6  19
ATOM     19  C   LIG    1       23.189 -17.000   3.461  0.00  0.00    +0.089 C 
BRANCH  19  20
ATOM     20  C   LIG    1       22.930 -15.738   4.353  0.00  0.00    +0.003 C 
BRANCH  20  21
ATOM     21  C   LIG    1       22.605 -16.081   5.827  0.00  0.00    +0.001 C 
ATOM     22  C   LIG    1       21.680 -15.074   6.517  0.00  0.00    +0.004 C 
ENDBRANCH  20  21
BRANCH  20  23
ATOM     23  C   LIG    1       24.095 -14.722   4.225  0.00  0.00    +0.005 C 
BRANCH  23  24
ATOM     24  C   LIG    1       23.784 -13.461   3.411  0.00  0.00    +0.000 C 
BRANCH  24  25
ATOM     25  C   LIG    1       25.034 -12.944   2.692  0.00  0.00    -0.003 C 
ATOM     26  C   LIG    1       26.123 -12.548   3.676  0.00  0.00    +0.004 C 
ENDBRANCH  24  25
ENDBRANCH  23  24
ENDBRANCH  20  23
ENDBRANCH  19  20
ENDBRANCH   6  19
TORSDOF 13
ENDMDL
