MODEL 1
REMARK VINA RESULT:      -2.5      0.000      0.000
REMARK  Name = *****
REMARK                            x       y       z     vdW  Elec       q    Type
REMARK                         _______ _______ _______ _____ _____    ______ ____
ROOT
ATOM      1  C   LIG    1       25.363 -16.270   3.148  0.00  0.00    +0.079 C 
ATOM      2  C   LIG    1       26.817 -15.831   3.500  0.00  0.00    +0.137 C 
ATOM      3  C   LIG    1       26.706 -14.910   4.734  0.00  0.00    +0.130 C 
ATOM      4  C   LIG    1       25.217 -14.547   4.834  0.00  0.00    +0.062 C 
ATOM      5  C   LIG    1       24.633 -14.932   3.470  0.00  0.00    +0.196 C 
ENDROOT
BRANCH   2   6
ATOM      6  O   LIG    1       27.721 -16.899   3.696  0.00  0.00    -0.391 OA
ATOM      7  H   LIG    1       27.206 -17.726   3.627  0.00  0.00    +0.210 HD
ENDBRANCH   2   6
BRANCH   3   8
ATOM      8  C   LIG    1       27.643 -13.720   4.628  0.00  0.00    +0.310 C 
ATOM      9  O   LIG    1       28.449 -13.592   3.695  0.00  0.00    -0.251 OA
BRANCH   8  10
ATOM     10  O   LIG    1       27.526 -12.768   5.577  0.00  0.00    -0.480 OA
ATOM     11  H   LIG    1       27.779 -11.863   5.266  0.00  0.00    +0.295 HD
ENDBRANCH   8  10
ENDBRANCH   3   8
BRANCH   5  12
ATOM     12  N   LIG    1       25.053 -13.853   2.534  0.00  0.00    -0.110 NA
ATOM     13  C   LIG    1       24.603 -12.664   2.687  0.00  0.00    +0.377 C 
BRANCH  13  14
ATOM     14  N   LIG    1       24.936 -11.681   1.817  0.00  0.00    -0.289 N 
ATOM     15  H   LIG    1       24.834 -10.743   2.184  0.00  0.00    +0.255 HD
ATOM     16  H   LIG    1       24.460 -11.768   0.926  0.00  0.00    +0.255 HD
ENDBRANCH  13  14
BRANCH  13  17
ATOM     17  N   LIG    1       23.809 -12.158   3.655  0.00  0.00    -0.289 N 
ATOM     18  H   LIG    1       24.290 -12.052   4.541  0.00  0.00    +0.255 HD
ATOM     19  H   LIG    1       22.960 -12.694   3.789  0.00  0.00    +0.255 HD
ENDBRANCH  13  17
ENDBRANCH   5  12
BRANCH   1  20
ATOM     20  C   LIG    1       24.755 -17.564   3.885  0.00  0.00    +0.085 C 
BRANCH  20  21
ATOM     21  N   LIG    1       23.302 -17.736   3.589  0.00  0.00    -0.312 N 
ATOM     22  H   LIG    1       23.024 -17.679   2.615  0.00  0.00    +0.149 HD
ATOM     23  C   LIG    1       22.435 -18.414   4.418  0.00  0.00    +0.210 C 
ATOM     24  O   LIG    1       22.772 -18.861   5.527  0.00  0.00    -0.276 OA
ATOM     25  C   LIG    1       21.019 -18.575   3.927  0.00  0.00    +0.109 C 
ENDBRANCH  20  21
BRANCH  20  26
ATOM     26  C   LIG    1       25.485 -18.964   3.685  0.00  0.00    +0.009 C 
BRANCH  26  28
ATOM     27  C   LIG    1       27.387 -19.757   5.360  0.00  0.00    +0.004 C 
ATOM     28  C   LIG    1       25.892 -19.622   5.062  0.00  0.00    +0.002 C 
ENDBRANCH  26  28
BRANCH  26  29
ATOM     29  C   LIG    1       24.760 -20.051   2.841  0.00  0.00    +0.002 C 
ATOM     30  C   LIG    1       24.263 -21.299   3.541  0.00  0.00    +0.004 C 
ENDBRANCH  26  29
ENDBRANCH  20  26
ENDBRANCH   1  20
TORSDOF 11
ENDMDL
MODEL 2
REMARK VINA RESULT:      -0.9      2.446      4.039
REMARK  Name = *****
REMARK                            x       y       z     vdW  Elec       q    Type
REMARK                         _______ _______ _______ _____ _____    ______ ____
ROOT
ATOM      1  C   LIG    1       26.107 -15.821   4.253  0.00  0.00    +0.079 C 
ATOM      2  C   LIG    1       24.887 -14.876   4.030  0.00  0.00    +0.137 C 
ATOM      3  C   LIG    1       25.138 -14.152   2.690  0.00  0.00    +0.130 C 
ATOM      4  C   LIG    1       26.619 -14.401   2.368  0.00  0.00    +0.062 C 
ATOM      5  C   LIG    1       27.224 -14.894   3.687  0.00  0.00    +0.196 C 
ENDROOT
BRANCH   2   6
ATOM      6  O   LIG    1       23.631 -15.521   4.074  0.00  0.00    -0.391 OA
ATOM      7  H   LIG    1       22.967 -14.878   3.756  0.00  0.00    +0.210 HD
ENDBRANCH   2   6
BRANCH   3   8
ATOM      8  C   LIG    1       24.744 -12.687   2.766  0.00  0.00    +0.310 C 
ATOM      9  O   LIG    1       25.089 -11.862   1.908  0.00  0.00    -0.251 OA
BRANCH   8  10
ATOM     10  O   LIG    1       23.948 -12.324   3.794  0.00  0.00    -0.480 OA
ATOM     11  H   LIG    1       23.465 -11.474   3.642  0.00  0.00    +0.295 HD
ENDBRANCH   8  10
ENDBRANCH   3   8
BRANCH   5  12
ATOM     12  N   LIG    1       27.392 -13.680   4.531  0.00  0.00    -0.110 NA
ATOM     13  C   LIG    1       28.444 -12.959   4.412  0.00  0.00    +0.377 C 
BRANCH  13  14
ATOM     14  N   LIG    1       28.636 -11.878   5.204  0.00  0.00    -0.289 N 
ATOM     15  H   LIG    1       28.026 -11.835   6.011  0.00  0.00    +0.255 HD
ATOM     16  H   LIG    1       28.607 -11.004   4.689  0.00  0.00    +0.255 HD
ENDBRANCH  13  14
BRANCH  13  17
ATOM     17  N   LIG    1       29.475 -13.072   3.547  0.00  0.00    -0.289 N 
ATOM     18  H   LIG    1       30.117 -12.290   3.596  0.00  0.00    +0.255 HD
ATOM     19  H   LIG    1       29.173 -13.206   2.589  0.00  0.00    +0.255 HD
ENDBRANCH  13  17
ENDBRANCH   5  12
BRANCH   1  20
ATOM     20  C   LIG    1       26.062 -17.293   3.608  0.00  0.00    +0.085 C 
BRANCH  20  21
ATOM     21  N   LIG    1       26.849 -18.274   4.413  0.00  0.00    -0.312 N 
ATOM     22  H   LIG    1       26.543 -19.241   4.382  0.00  0.00    +0.149 HD
ATOM     23  C   LIG    1       28.164 -18.076   4.775  0.00  0.00    +0.210 C 
ATOM     24  O   LIG    1       28.778 -17.022   4.538  0.00  0.00    -0.276 OA
ATOM     25  C   LIG    1       28.839 -19.206   5.510  0.00  0.00    +0.109 C 
ENDBRANCH  20  21
BRANCH  20  26
ATOM     26  C   LIG    1       24.643 -17.932   3.273  0.00  0.00    +0.009 C 
BRANCH  26  28
ATOM     27  C   LIG    1       24.582 -20.584   3.393  0.00  0.00    +0.004 C 
ATOM     28  C   LIG    1       24.778 -19.327   2.544  0.00  0.00    +0.002 C 
ENDBRANCH  26  28
BRANCH  26  29
ATOM     29  C   LIG    1       23.629 -18.108   4.439  0.00  0.00    +0.002 C 
ATOM     30  C   LIG    1       22.186 -18.423   4.102  0.00  0.00    +0.004 C 
ENDBRANCH  26  29
ENDBRANCH  20  26
ENDBRANCH   1  20
TORSDOF 11
ENDMDL
MODEL 3
REMARK VINA RESULT:      -0.7      1.299      2.729
REMARK  Name = *****
REMARK                            x       y       z     vdW  Elec       q    Type
REMARK                         _______ _______ _______ _____ _____    ______ ____
ROOT
ATOM      1  C   LIG    1       25.540 -16.063   2.933  0.00  0.00    +0.079 C 
ATOM      2  C   LIG    1       26.983 -15.632   3.338  0.00  0.00    +0.137 C 
ATOM      3  C   LIG    1       26.843 -14.814   4.639  0.00  0.00    +0.130 C 
ATOM      4  C   LIG    1       25.348 -14.481   4.749  0.00  0.00    +0.062 C 
ATOM      5  C   LIG    1       24.785 -14.766   3.351  0.00  0.00    +0.196 C 
ENDROOT
BRANCH   2   6
ATOM      6  O   LIG    1       27.901 -16.699   3.460  0.00  0.00    -0.391 OA
ATOM      7  H   LIG    1       28.133 -16.982   2.555  0.00  0.00    +0.210 HD
ENDBRANCH   2   6
BRANCH   3   8
ATOM      8  C   LIG    1       27.762 -13.606   4.640  0.00  0.00    +0.310 C 
ATOM      9  O   LIG    1       28.633 -13.434   3.774  0.00  0.00    -0.251 OA
BRANCH   8  10
ATOM     10  O   LIG    1       27.558 -12.686   5.606  0.00  0.00    -0.480 OA
ATOM     11  H   LIG    1       27.193 -11.830   5.270  0.00  0.00    +0.295 HD
ENDBRANCH   8  10
ENDBRANCH   3   8
BRANCH   5  12
ATOM     12  N   LIG    1       25.199 -13.610   2.509  0.00  0.00    -0.110 NA
ATOM     13  C   LIG    1       24.576 -12.495   2.605  0.00  0.00    +0.377 C 
BRANCH  13  14
ATOM     14  N   LIG    1       24.907 -11.448   1.814  0.00  0.00    -0.289 N 
ATOM     15  H   LIG    1       25.846 -11.094   1.955  0.00  0.00    +0.255 HD
ATOM     16  H   LIG    1       24.231 -10.692   1.860  0.00  0.00    +0.255 HD
ENDBRANCH  13  14
BRANCH  13  17
ATOM     17  N   LIG    1       23.582 -12.129   3.443  0.00  0.00    -0.289 N 
ATOM     18  H   LIG    1       23.871 -11.428   4.114  0.00  0.00    +0.255 HD
ATOM     19  H   LIG    1       23.167 -12.916   3.928  0.00  0.00    +0.255 HD
ENDBRANCH  13  17
ENDBRANCH   5  12
BRANCH   1  20
ATOM     20  C   LIG    1       24.944 -17.420   3.558  0.00  0.00    +0.085 C 
BRANCH  20  21
ATOM     21  N   LIG    1       25.978 -18.175   4.327  0.00  0.00    -0.312 N 
ATOM     22  H   LIG    1       26.428 -17.684   5.091  0.00  0.00    +0.149 HD
ATOM     23  C   LIG    1       26.015 -19.551   4.396  0.00  0.00    +0.210 C 
ATOM     24  O   LIG    1       25.244 -20.281   3.751  0.00  0.00    -0.276 OA
ATOM     25  C   LIG    1       27.070 -20.153   5.289  0.00  0.00    +0.109 C 
ENDBRANCH  20  21
BRANCH  20  26
ATOM     26  C   LIG    1       23.619 -17.333   4.437  0.00  0.00    +0.009 C 
BRANCH  26  28
ATOM     27  C   LIG    1       22.031 -15.504   5.525  0.00  0.00    +0.004 C 
ATOM     28  C   LIG    1       22.961 -15.898   4.376  0.00  0.00    +0.002 C 
ENDBRANCH  26  28
BRANCH  26  29
ATOM     29  C   LIG    1       22.497 -18.376   4.170  0.00  0.00    +0.002 C 
ATOM     30  C   LIG    1       22.286 -19.485   5.181  0.00  0.00    +0.004 C 
ENDBRANCH  26  29
ENDBRANCH  20  26
ENDBRANCH   1  20
TORSDOF 11
ENDMDL
MODEL 4
REMARK VINA RESULT:      -0.1      2.360      3.158
REMARK  Name = *****
REMARK                            x       y       z     vdW  Elec       q    Type
REMARK                         _______ _______ _______ _____ _____    ______ ____
ROOT
ATOM      1  C   LIG    1       25.051 -15.414   4.700  0.00  0.00    +0.079 C 
ATOM      2  C   LIG    1       23.954 -14.311   4.591  0.00  0.00    +0.137 C 
ATOM      3  C   LIG    1       24.037 -13.757   3.152  0.00  0.00    +0.130 C 
ATOM      4  C   LIG    1       25.378 -14.265   2.601  0.00  0.00    +0.062 C 
ATOM      5  C   LIG    1       26.154 -14.729   3.838  0.00  0.00    +0.196 C 
ENDROOT
BRANCH   2   6
ATOM      6  O   LIG    1       22.654 -14.742   4.935  0.00  0.00    -0.391 OA
ATOM      7  H   LIG    1       22.715 -15.168   5.811  0.00  0.00    +0.210 HD
ENDBRANCH   2   6
BRANCH   3   8
ATOM      8  C   LIG    1       23.873 -12.248   3.126  0.00  0.00    +0.310 C 
ATOM      9  O   LIG    1       23.692 -11.582   4.156  0.00  0.00    -0.251 OA
BRANCH   8  10
ATOM     10  O   LIG    1       23.983 -11.644   1.923  0.00  0.00    -0.480 OA
ATOM     11  H   LIG    1       24.773 -11.936   1.404  0.00  0.00    +0.295 HD
ENDBRANCH   8  10
ENDBRANCH   3   8
BRANCH   5  12
ATOM     12  N   LIG    1       26.650 -13.486   4.491  0.00  0.00    -0.110 NA
ATOM     13  C   LIG    1       27.864 -13.117   4.320  0.00  0.00    +0.377 C 
BRANCH  13  14
ATOM     14  N   LIG    1       28.346 -12.016   4.944  0.00  0.00    -0.289 N 
ATOM     15  H   LIG    1       28.207 -11.150   4.436  0.00  0.00    +0.255 HD
ATOM     16  H   LIG    1       29.318 -12.115   5.219  0.00  0.00    +0.255 HD
ENDBRANCH  13  14
BRANCH  13  17
ATOM     17  N   LIG    1       28.830 -13.653   3.544  0.00  0.00    -0.289 N 
ATOM     18  H   LIG    1       28.845 -14.665   3.577  0.00  0.00    +0.255 HD
ATOM     19  H   LIG    1       29.752 -13.290   3.755  0.00  0.00    +0.255 HD
ENDBRANCH  13  17
ENDBRANCH   5  12
BRANCH   1  20
ATOM     20  C   LIG    1       24.678 -16.912   4.250  0.00  0.00    +0.085 C 
BRANCH  20  21
ATOM     21  N   LIG    1       23.280 -17.001   3.731  0.00  0.00    -0.312 N 
ATOM     22  H   LIG    1       23.115 -16.637   2.799  0.00  0.00    +0.149 HD
ATOM     23  C   LIG    1       22.361 -17.921   4.185  0.00  0.00    +0.210 C 
ATOM     24  O   LIG    1       22.591 -18.696   5.129  0.00  0.00    -0.276 OA
ATOM     25  C   LIG    1       21.023 -17.936   3.492  0.00  0.00    +0.109 C 
ENDBRANCH  20  21
BRANCH  20  26
ATOM     26  C   LIG    1       25.646 -17.662   3.233  0.00  0.00    +0.009 C 
BRANCH  26  28
ATOM     27  C   LIG    1       27.873 -18.050   4.627  0.00  0.00    +0.004 C 
ATOM     28  C   LIG    1       27.164 -17.309   3.491  0.00  0.00    +0.002 C 
ENDBRANCH  26  28
BRANCH  26  29
ATOM     29  C   LIG    1       25.535 -19.209   3.127  0.00  0.00    +0.002 C 
ATOM     30  C   LIG    1       25.422 -20.016   4.404  0.00  0.00    +0.004 C 
ENDBRANCH  26  29
ENDBRANCH  20  26
ENDBRANCH   1  20
TORSDOF 11
ENDMDL
MODEL 5
REMARK VINA RESULT:       0.3      1.519      2.742
REMARK  Name = *****
REMARK                            x       y       z     vdW  Elec       q    Type
REMARK                         _______ _______ _______ _____ _____    ______ ____
ROOT
ATOM      1  C   LIG    1       26.359 -16.262   2.945  0.00  0.00    +0.079 C 
ATOM      2  C   LIG    1       27.321 -15.460   3.875  0.00  0.00    +0.137 C 
ATOM      3  C   LIG    1       26.437 -14.823   4.968  0.00  0.00    +0.130 C 
ATOM      4  C   LIG    1       24.997 -14.952   4.450  0.00  0.00    +0.062 C 
ATOM      5  C   LIG    1       25.150 -15.279   2.960  0.00  0.00    +0.196 C 
ENDROOT
BRANCH   2   6
ATOM      6  O   LIG    1       28.387 -16.218   4.408  0.00  0.00    -0.391 OA
ATOM      7  H   LIG    1       28.021 -16.752   5.140  0.00  0.00    +0.210 HD
ENDBRANCH   2   6
BRANCH   3   8
ATOM      8  C   LIG    1       26.873 -13.402   5.280  0.00  0.00    +0.310 C 
ATOM      9  O   LIG    1       28.026 -13.000   5.066  0.00  0.00    -0.251 OA
BRANCH   8  10
ATOM     10  O   LIG    1       25.927 -12.567   5.758  0.00  0.00    -0.480 OA
ATOM     11  H   LIG    1       25.017 -12.954   5.758  0.00  0.00    +0.295 HD
ENDBRANCH   8  10
ENDBRANCH   3   8
BRANCH   5  12
ATOM     12  N   LIG    1       25.499 -13.991   2.300  0.00  0.00    -0.110 NA
ATOM     13  C   LIG    1       24.742 -12.969   2.454  0.00  0.00    +0.377 C 
BRANCH  13  14
ATOM     14  N   LIG    1       25.017 -11.803   1.823  0.00  0.00    -0.289 N 
ATOM     15  H   LIG    1       25.866 -11.347   2.135  0.00  0.00    +0.255 HD
ATOM     16  H   LIG    1       24.237 -11.154   1.841  0.00  0.00    +0.255 HD
ENDBRANCH  13  14
BRANCH  13  17
ATOM     17  N   LIG    1       23.638 -12.818   3.217  0.00  0.00    -0.289 N 
ATOM     18  H   LIG    1       23.349 -11.851   3.304  0.00  0.00    +0.255 HD
ATOM     19  H   LIG    1       23.737 -13.229   4.138  0.00  0.00    +0.255 HD
ENDBRANCH  13  17
ENDBRANCH   5  12
BRANCH   1  20
ATOM     20  C   LIG    1       25.998 -17.778   3.343  0.00  0.00    +0.085 C 
BRANCH  20  21
ATOM     21  N   LIG    1       26.584 -18.158   4.663  0.00  0.00    -0.312 N 
ATOM     22  H   LIG    1       26.306 -17.600   5.463  0.00  0.00    +0.149 HD
ATOM     23  C   LIG    1       27.052 -19.421   4.949  0.00  0.00    +0.210 C 
ATOM     24  O   LIG    1       27.109 -20.328   4.101  0.00  0.00    -0.276 OA
ATOM     25  C   LIG    1       27.529 -19.661   6.358  0.00  0.00    +0.109 C 
ENDBRANCH  20  21
BRANCH  20  26
ATOM     26  C   LIG    1       24.471 -18.227   3.316  0.00  0.00    +0.009 C 
BRANCH  26  28
ATOM     27  C   LIG    1       23.850 -20.767   3.778  0.00  0.00    +0.004 C 
ATOM     28  C   LIG    1       24.296 -19.700   2.775  0.00  0.00    +0.002 C 
ENDBRANCH  26  28
BRANCH  26  29
ATOM     29  C   LIG    1       23.653 -18.109   4.633  0.00  0.00    +0.002 C 
ATOM     30  C   LIG    1       22.223 -17.617   4.555  0.00  0.00    +0.004 C 
ENDBRANCH  26  29
ENDBRANCH  20  26
ENDBRANCH   1  20
TORSDOF 11
ENDMDL
