MODEL 1
REMARK VINA RESULT:      -3.1      0.000      0.000
REMARK  Name = *****
REMARK                            x       y       z     vdW  Elec       q    Type
REMARK                         _______ _______ _______ _____ _____    ______ ____
ROOT
ATOM      1  N   LIG    1       25.792 -16.809   3.310  0.00  0.00    -0.291 N 
ATOM      2  C   LIG    1       26.926 -17.391   3.908  0.00  0.00    +0.249 C 
ATOM      3  O   LIG    1       28.034 -16.866   3.877  0.00  0.00    -0.270 OA
ATOM      4  C   LIG    1       26.685 -18.662   4.587  0.00  0.00    +0.065 C 
ATOM      5  C   LIG    1       27.542 -19.438   5.417  0.00  0.00    +0.012 C 
ATOM      6  C   LIG    1       26.833 -20.589   5.792  0.00  0.00    +0.050 C 
ATOM      7  N   LIG    1       25.583 -20.509   5.199  0.00  0.00    -0.346 NA
ATOM      8  C   LIG    1       24.553 -21.521   5.299  0.00  0.00    +0.149 C 
ATOM      9  C   LIG    1       27.410 -21.571   6.615  0.00  0.00    +0.026 C 
ATOM     10  C   LIG    1       28.722 -21.379   7.060  0.00  0.00    +0.002 C 
ATOM     11  C   LIG    1       29.438 -20.242   6.705  0.00  0.00    +0.001 C 
ATOM     12  C   LIG    1       28.859 -19.267   5.889  0.00  0.00    +0.011 C 
ATOM     13  C   LIG    1       25.484 -19.337   4.496  0.00  0.00    +0.033 C 
ATOM     14  C   LIG    1       24.327 -18.833   3.713  0.00  0.00    +0.073 C 
ATOM     15  C   LIG    1       24.435 -17.296   3.621  0.00  0.00    +0.114 C 
ENDROOT
BRANCH   1  16
ATOM     16  C   LIG    1       25.930 -15.488   2.709  0.00  0.00    +0.163 C 
BRANCH  16  19
ATOM     17  C   LIG    1       27.243 -13.696   5.223  0.00  0.00    +0.067 C 
ATOM     18  C   LIG    1       25.882 -13.690   4.640  0.00  0.00    +0.060 A 
ATOM     19  C   LIG    1       25.365 -14.437   3.597  0.00  0.00    +0.056 A 
ATOM     20  N   LIG    1       24.045 -14.053   3.521  0.00  0.00    -0.347 N 
ATOM     21  H   LIG    1       23.365 -14.420   2.862  0.00  0.00    +0.167 HD
ATOM     22  C   LIG    1       23.843 -13.062   4.433  0.00  0.00    +0.197 A 
ATOM     23  N   LIG    1       24.925 -12.836   5.141  0.00  0.00    -0.241 NA
ENDBRANCH  16  19
ENDBRANCH   1  16
TORSDOF 2
ENDMDL
MODEL 2
REMARK VINA RESULT:      -2.8      1.966      6.442
REMARK  Name = *****
REMARK                            x       y       z     vdW  Elec       q    Type
REMARK                         _______ _______ _______ _____ _____    ______ ____
ROOT
ATOM      1  N   LIG    1       23.539 -18.239   4.044  0.00  0.00    -0.291 N 
ATOM      2  C   LIG    1       24.734 -17.567   3.726  0.00  0.00    +0.249 C 
ATOM      3  O   LIG    1       25.744 -18.153   3.350  0.00  0.00    -0.270 OA
ATOM      4  C   LIG    1       24.681 -16.113   3.858  0.00  0.00    +0.065 C 
ATOM      5  C   LIG    1       25.627 -15.120   3.480  0.00  0.00    +0.012 C 
ATOM      6  C   LIG    1       25.102 -13.875   3.856  0.00  0.00    +0.050 C 
ATOM      7  N   LIG    1       23.872 -14.113   4.449  0.00  0.00    -0.346 NA
ATOM      8  C   LIG    1       23.016 -13.095   5.018  0.00  0.00    +0.149 C 
ATOM      9  C   LIG    1       25.805 -12.680   3.624  0.00  0.00    +0.026 C 
ATOM     10  C   LIG    1       27.057 -12.756   3.003  0.00  0.00    +0.002 C 
ATOM     11  C   LIG    1       27.591 -13.980   2.616  0.00  0.00    +0.001 C 
ATOM     12  C   LIG    1       26.886 -15.164   2.847  0.00  0.00    +0.011 C 
ATOM     13  C   LIG    1       23.607 -15.458   4.427  0.00  0.00    +0.033 C 
ATOM     14  C   LIG    1       22.406 -16.163   4.944  0.00  0.00    +0.073 C 
ATOM     15  C   LIG    1       22.269 -17.504   4.192  0.00  0.00    +0.114 C 
ENDROOT
BRANCH   1  16
ATOM     16  C   LIG    1       23.480 -19.681   3.830  0.00  0.00    +0.163 C 
BRANCH  16  19
ATOM     17  C   LIG    1       26.199 -20.423   5.648  0.00  0.00    +0.067 C 
ATOM     18  C   LIG    1       24.771 -20.740   5.873  0.00  0.00    +0.060 A 
ATOM     19  C   LIG    1       23.665 -20.417   5.109  0.00  0.00    +0.056 A 
ATOM     20  N   LIG    1       22.609 -21.006   5.768  0.00  0.00    -0.347 N 
ATOM     21  H   LIG    1       21.640 -20.976   5.466  0.00  0.00    +0.167 HD
ATOM     22  C   LIG    1       23.090 -21.572   6.909  0.00  0.00    +0.197 A 
ATOM     23  N   LIG    1       24.394 -21.449   6.991  0.00  0.00    -0.241 NA
ENDBRANCH  16  19
ENDBRANCH   1  16
TORSDOF 2
ENDMDL
MODEL 3
REMARK VINA RESULT:      -2.3      1.810      6.433
REMARK  Name = *****
REMARK                            x       y       z     vdW  Elec       q    Type
REMARK                         _______ _______ _______ _____ _____    ______ ____
ROOT
ATOM      1  N   LIG    1       24.400 -18.469   3.737  0.00  0.00    -0.291 N 
ATOM      2  C   LIG    1       25.524 -17.628   3.641  0.00  0.00    +0.249 C 
ATOM      3  O   LIG    1       26.663 -18.059   3.487  0.00  0.00    -0.270 OA
ATOM      4  C   LIG    1       25.238 -16.198   3.720  0.00  0.00    +0.065 C 
ATOM      5  C   LIG    1       26.086 -15.076   3.507  0.00  0.00    +0.012 C 
ATOM      6  C   LIG    1       25.323 -13.922   3.738  0.00  0.00    +0.050 C 
ATOM      7  N   LIG    1       24.048 -14.339   4.085  0.00  0.00    -0.346 NA
ATOM      8  C   LIG    1       22.958 -13.458   4.446  0.00  0.00    +0.149 C 
ATOM      9  C   LIG    1       25.879 -12.637   3.615  0.00  0.00    +0.026 C 
ATOM     10  C   LIG    1       27.226 -12.526   3.254  0.00  0.00    +0.002 C 
ATOM     11  C   LIG    1       27.997 -13.658   3.014  0.00  0.00    +0.001 C 
ATOM     12  C   LIG    1       27.439 -14.933   3.135  0.00  0.00    +0.011 C 
ATOM     13  C   LIG    1       23.989 -15.708   4.048  0.00  0.00    +0.033 C 
ATOM     14  C   LIG    1       22.824 -16.582   4.340  0.00  0.00    +0.073 C 
ATOM     15  C   LIG    1       23.034 -17.928   3.612  0.00  0.00    +0.114 C 
ENDROOT
BRANCH   1  16
ATOM     16  C   LIG    1       24.593 -19.903   3.556  0.00  0.00    +0.163 C 
BRANCH  16  19
ATOM     17  C   LIG    1       22.723 -21.036   6.099  0.00  0.00    +0.067 C 
ATOM     18  C   LIG    1       24.190 -21.031   5.907  0.00  0.00    +0.060 A 
ATOM     19  C   LIG    1       24.939 -20.561   4.844  0.00  0.00    +0.056 A 
ATOM     20  N   LIG    1       26.246 -20.770   5.225  0.00  0.00    -0.347 N 
ATOM     21  H   LIG    1       27.063 -20.525   4.675  0.00  0.00    +0.167 HD
ATOM     22  C   LIG    1       26.234 -21.413   6.426  0.00  0.00    +0.197 A 
ATOM     23  N   LIG    1       25.010 -21.564   6.875  0.00  0.00    -0.241 NA
ENDBRANCH  16  19
ENDBRANCH   1  16
TORSDOF 2
ENDMDL
MODEL 4
REMARK VINA RESULT:      -2.2      2.085      6.754
REMARK  Name = *****
REMARK                            x       y       z     vdW  Elec       q    Type
REMARK                         _______ _______ _______ _____ _____    ______ ____
ROOT
ATOM      1  N   LIG    1       25.861 -18.590   3.687  0.00  0.00    -0.291 N 
ATOM      2  C   LIG    1       24.927 -17.540   3.590  0.00  0.00    +0.249 C 
ATOM      3  O   LIG    1       23.730 -17.734   3.407  0.00  0.00    -0.270 OA
ATOM      4  C   LIG    1       25.485 -16.199   3.742  0.00  0.00    +0.065 C 
ATOM      5  C   LIG    1       24.833 -14.939   3.858  0.00  0.00    +0.012 C 
ATOM      6  C   LIG    1       25.830 -13.958   3.952  0.00  0.00    +0.050 C 
ATOM      7  N   LIG    1       27.052 -14.610   3.891  0.00  0.00    -0.346 NA
ATOM      8  C   LIG    1       28.342 -13.955   3.912  0.00  0.00    +0.149 C 
ATOM      9  C   LIG    1       25.511 -12.594   4.072  0.00  0.00    +0.026 C 
ATOM     10  C   LIG    1       24.160 -12.228   4.095  0.00  0.00    +0.002 C 
ATOM     11  C   LIG    1       23.157 -13.187   4.009  0.00  0.00    +0.001 C 
ATOM     12  C   LIG    1       23.481 -14.541   3.893  0.00  0.00    +0.011 C 
ATOM     13  C   LIG    1       26.844 -15.961   3.792  0.00  0.00    +0.033 C 
ATOM     14  C   LIG    1       27.861 -17.040   3.707  0.00  0.00    +0.073 C 
ATOM     15  C   LIG    1       27.219 -18.352   4.207  0.00  0.00    +0.114 C 
ENDROOT
BRANCH   1  16
ATOM     16  C   LIG    1       25.364 -19.960   3.656  0.00  0.00    +0.163 C 
BRANCH  16  19
ATOM     17  C   LIG    1       22.642 -20.085   5.613  0.00  0.00    +0.067 C 
ATOM     18  C   LIG    1       24.031 -20.534   5.860  0.00  0.00    +0.060 A 
ATOM     19  C   LIG    1       25.138 -20.476   5.033  0.00  0.00    +0.056 A 
ATOM     20  N   LIG    1       26.163 -20.990   5.794  0.00  0.00    -0.347 N 
ATOM     21  H   LIG    1       27.128 -21.081   5.492  0.00  0.00    +0.167 HD
ATOM     22  C   LIG    1       25.638 -21.401   6.981  0.00  0.00    +0.197 A 
ATOM     23  N   LIG    1       24.359 -21.119   7.062  0.00  0.00    -0.241 NA
ENDBRANCH  16  19
ENDBRANCH   1  16
TORSDOF 2
ENDMDL
MODEL 5
REMARK VINA RESULT:      -1.5      2.254      4.078
REMARK  Name = *****
REMARK                            x       y       z     vdW  Elec       q    Type
REMARK                         _______ _______ _______ _____ _____    ______ ____
ROOT
ATOM      1  N   LIG    1       25.647 -15.670   3.481  0.00  0.00    -0.291 N 
ATOM      2  C   LIG    1       24.386 -16.221   3.777  0.00  0.00    +0.249 C 
ATOM      3  O   LIG    1       23.363 -15.546   3.822  0.00  0.00    -0.270 OA
ATOM      4  C   LIG    1       24.378 -17.664   4.007  0.00  0.00    +0.065 C 
ATOM      5  C   LIG    1       23.288 -18.563   4.170  0.00  0.00    +0.012 C 
ATOM      6  C   LIG    1       23.826 -19.839   4.395  0.00  0.00    +0.050 C 
ATOM      7  N   LIG    1       25.206 -19.709   4.372  0.00  0.00    -0.346 NA
ATOM      8  C   LIG    1       26.143 -20.787   4.606  0.00  0.00    +0.149 C 
ATOM      9  C   LIG    1       23.002 -20.958   4.603  0.00  0.00    +0.026 C 
ATOM     10  C   LIG    1       21.615 -20.775   4.582  0.00  0.00    +0.002 C 
ATOM     11  C   LIG    1       21.062 -19.520   4.353  0.00  0.00    +0.001 C 
ATOM     12  C   LIG    1       21.886 -18.412   4.145  0.00  0.00    +0.011 C 
ATOM     13  C   LIG    1       25.538 -18.405   4.112  0.00  0.00    +0.033 C 
ATOM     14  C   LIG    1       26.895 -17.812   3.990  0.00  0.00    +0.073 C 
ATOM     15  C   LIG    1       26.790 -16.534   3.132  0.00  0.00    +0.114 C 
ENDROOT
BRANCH   1  16
ATOM     16  C   LIG    1       25.718 -14.257   3.130  0.00  0.00    +0.163 C 
BRANCH  16  19
ATOM     17  C   LIG    1       26.591 -13.519   6.283  0.00  0.00    +0.067 C 
ATOM     18  C   LIG    1       27.309 -13.303   5.006  0.00  0.00    +0.060 A 
ATOM     19  C   LIG    1       26.928 -13.622   3.716  0.00  0.00    +0.056 A 
ATOM     20  N   LIG    1       27.956 -13.151   2.929  0.00  0.00    -0.347 N 
ATOM     21  H   LIG    1       27.992 -13.210   1.916  0.00  0.00    +0.167 HD
ATOM     22  C   LIG    1       28.922 -12.658   3.752  0.00  0.00    +0.197 A 
ATOM     23  N   LIG    1       28.553 -12.714   5.010  0.00  0.00    -0.241 NA
ENDBRANCH  16  19
ENDBRANCH   1  16
TORSDOF 2
ENDMDL
MODEL 6
REMARK VINA RESULT:      -0.4      1.701      3.740
REMARK  Name = *****
REMARK                            x       y       z     vdW  Elec       q    Type
REMARK                         _______ _______ _______ _____ _____    ______ ____
ROOT
ATOM      1  N   LIG    1       26.263 -16.859   3.576  0.00  0.00    -0.291 N 
ATOM      2  C   LIG    1       24.922 -17.255   3.734  0.00  0.00    +0.249 C 
ATOM      3  O   LIG    1       23.978 -16.537   3.422  0.00  0.00    -0.270 OA
ATOM      4  C   LIG    1       24.732 -18.596   4.282  0.00  0.00    +0.065 C 
ATOM      5  C   LIG    1       23.548 -19.372   4.427  0.00  0.00    +0.012 C 
ATOM      6  C   LIG    1       23.911 -20.580   5.039  0.00  0.00    +0.050 C 
ATOM      7  N   LIG    1       25.278 -20.532   5.260  0.00  0.00    -0.346 NA
ATOM      8  C   LIG    1       26.049 -21.568   5.914  0.00  0.00    +0.149 C 
ATOM      9  C   LIG    1       22.957 -21.572   5.330  0.00  0.00    +0.026 C 
ATOM     10  C   LIG    1       21.621 -21.328   4.994  0.00  0.00    +0.002 C 
ATOM     11  C   LIG    1       21.243 -20.139   4.380  0.00  0.00    +0.001 C 
ATOM     12  C   LIG    1       22.196 -19.158   4.091  0.00  0.00    +0.011 C 
ATOM     13  C   LIG    1       25.777 -19.349   4.780  0.00  0.00    +0.033 C 
ATOM     14  C   LIG    1       27.184 -18.875   4.797  0.00  0.00    +0.073 C 
ATOM     15  C   LIG    1       27.361 -17.839   3.666  0.00  0.00    +0.114 C 
ENDROOT
BRANCH   1  16
ATOM     16  C   LIG    1       26.533 -15.578   2.932  0.00  0.00    +0.163 C 
BRANCH  16  19
ATOM     17  C   LIG    1       24.229 -13.158   3.223  0.00  0.00    +0.067 C 
ATOM     18  C   LIG    1       25.436 -13.444   4.030  0.00  0.00    +0.060 A 
ATOM     19  C   LIG    1       26.370 -14.454   3.893  0.00  0.00    +0.056 A 
ATOM     20  N   LIG    1       27.294 -14.205   4.884  0.00  0.00    -0.347 N 
ATOM     21  H   LIG    1       28.128 -14.757   5.058  0.00  0.00    +0.167 HD
ATOM     22  C   LIG    1       26.853 -13.140   5.609  0.00  0.00    +0.197 A 
ATOM     23  N   LIG    1       25.747 -12.644   5.106  0.00  0.00    -0.241 NA
ENDBRANCH  16  19
ENDBRANCH   1  16
TORSDOF 2
ENDMDL
MODEL 7
REMARK VINA RESULT:      -0.3      2.394      3.471
REMARK  Name = *****
REMARK                            x       y       z     vdW  Elec       q    Type
REMARK                         _______ _______ _______ _____ _____    ______ ____
ROOT
ATOM      1  N   LIG    1       25.549 -15.502   3.281  0.00  0.00    -0.291 N 
ATOM      2  C   LIG    1       25.741 -16.893   3.376  0.00  0.00    +0.249 C 
ATOM      3  O   LIG    1       26.812 -17.433   3.116  0.00  0.00    -0.270 OA
ATOM      4  C   LIG    1       24.576 -17.651   3.824  0.00  0.00    +0.065 C 
ATOM      5  C   LIG    1       24.451 -19.023   4.180  0.00  0.00    +0.012 C 
ATOM      6  C   LIG    1       23.108 -19.251   4.511  0.00  0.00    +0.050 C 
ATOM      7  N   LIG    1       22.439 -18.047   4.355  0.00  0.00    -0.346 NA
ATOM      8  C   LIG    1       21.019 -17.856   4.556  0.00  0.00    +0.149 C 
ATOM      9  C   LIG    1       22.653 -20.522   4.903  0.00  0.00    +0.026 C 
ATOM     10  C   LIG    1       23.577 -21.571   4.958  0.00  0.00    +0.002 C 
ATOM     11  C   LIG    1       24.914 -21.363   4.640  0.00  0.00    +0.001 C 
ATOM     12  C   LIG    1       25.361 -20.098   4.253  0.00  0.00    +0.011 C 
ATOM     13  C   LIG    1       23.327 -17.078   3.968  0.00  0.00    +0.033 C 
ATOM     14  C   LIG    1       23.056 -15.644   3.692  0.00  0.00    +0.073 C 
ATOM     15  C   LIG    1       24.370 -14.855   3.885  0.00  0.00    +0.114 C 
ENDROOT
BRANCH   1  16
ATOM     16  C   LIG    1       26.698 -14.668   2.947  0.00  0.00    +0.163 C 
BRANCH  16  19
ATOM     17  C   LIG    1       29.372 -12.715   3.482  0.00  0.00    +0.067 C 
ATOM     18  C   LIG    1       28.259 -13.096   4.380  0.00  0.00    +0.060 A 
ATOM     19  C   LIG    1       27.162 -13.901   4.134  0.00  0.00    +0.056 A 
ATOM     20  N   LIG    1       26.489 -13.941   5.335  0.00  0.00    -0.347 N 
ATOM     21  H   LIG    1       25.634 -14.460   5.510  0.00  0.00    +0.167 HD
ATOM     22  C   LIG    1       27.138 -13.120   6.206  0.00  0.00    +0.197 A 
ATOM     23  N   LIG    1       28.223 -12.613   5.669  0.00  0.00    -0.241 NA
ENDBRANCH  16  19
ENDBRANCH   1  16
TORSDOF 2
ENDMDL
