MODEL 1
REMARK VINA RESULT:      -5.7      0.000      0.000
REMARK  Name = *****
REMARK                            x       y       z     vdW  Elec       q    Type
REMARK                         _______ _______ _______ _____ _____    ______ ____
ROOT
ATOM      1  C   LIG    1       24.657 -21.349   6.641  0.00  0.00    +0.232 C 
ENDROOT
BRANCH   1   2
ATOM      2  O   LIG    1       23.559 -20.409   6.476  0.00  0.00    -0.456 OA
BRANCH   2   4
ATOM      3  C   LIG    1       23.380 -19.430   4.337  0.00  0.00    +0.136 C 
ATOM      4  C   LIG    1       22.856 -20.439   5.309  0.00  0.00    +0.304 C 
ATOM      5  O   LIG    1       21.908 -21.182   5.108  0.00  0.00    -0.251 OA
ENDBRANCH   2   4
ENDBRANCH   1   2
BRANCH   1   6
ATOM      6  C   LIG    1       25.918 -20.477   6.879  0.00  0.00    +0.170 C 
BRANCH   6   7
ATOM      7  C   LIG    1       26.440 -20.554   8.283  0.00  0.00    +0.308 C 
ATOM      8  O   LIG    1       25.775 -20.990   9.217  0.00  0.00    -0.251 OA
BRANCH   7   9
ATOM      9  O   LIG    1       27.704 -20.133   8.427  0.00  0.00    -0.480 OA
ATOM     10  H   LIG    1       28.276 -20.646   9.026  0.00  0.00    +0.295 HD
ENDBRANCH   7   9
ENDBRANCH   6   7
ENDBRANCH   1   6
BRANCH   1  11
ATOM     11  C   LIG    1       24.807 -22.453   5.537  0.00  0.00    +0.178 C 
BRANCH  11  12
ATOM     12  N   LIG    1       24.822 -23.946   6.032  0.00  0.00    +0.239 N 
ATOM     13  C   LIG    1       23.446 -24.250   6.657  0.00  0.00    +0.192 C 
ATOM     14  C   LIG    1       25.847 -24.199   7.127  0.00  0.00    +0.192 C 
ATOM     15  C   LIG    1       25.029 -24.921   4.882  0.00  0.00    +0.192 C 
ENDBRANCH  11  12
ENDBRANCH   1  11
TORSDOF 7
ENDMDL
MODEL 2
REMARK VINA RESULT:      -5.7      1.894      3.708
REMARK  Name = *****
REMARK                            x       y       z     vdW  Elec       q    Type
REMARK                         _______ _______ _______ _____ _____    ______ ____
ROOT
ATOM      1  C   LIG    1       24.852 -21.356   6.600  0.00  0.00    +0.232 C 
ENDROOT
BRANCH   1   2
ATOM      2  O   LIG    1       24.805 -22.531   7.457  0.00  0.00    -0.456 OA
BRANCH   2   4
ATOM      3  C   LIG    1       25.661 -24.532   6.546  0.00  0.00    +0.136 C 
ATOM      4  C   LIG    1       24.453 -23.722   6.897  0.00  0.00    +0.304 C 
ATOM      5  O   LIG    1       23.297 -24.059   6.691  0.00  0.00    -0.251 OA
ENDBRANCH   2   4
ENDBRANCH   1   2
BRANCH   1   6
ATOM      6  C   LIG    1       26.114 -20.570   7.041  0.00  0.00    +0.170 C 
BRANCH   6   7
ATOM      7  C   LIG    1       26.602 -20.944   8.410  0.00  0.00    +0.308 C 
ATOM      8  O   LIG    1       27.673 -21.512   8.602  0.00  0.00    -0.251 OA
BRANCH   7   9
ATOM      9  O   LIG    1       25.784 -20.580   9.407  0.00  0.00    -0.480 OA
ATOM     10  H   LIG    1       25.035 -20.002   9.176  0.00  0.00    +0.295 HD
ENDBRANCH   7   9
ENDBRANCH   6   7
ENDBRANCH   1   6
BRANCH   1  11
ATOM     11  C   LIG    1       23.537 -20.507   6.498  0.00  0.00    +0.178 C 
BRANCH  11  12
ATOM     12  N   LIG    1       22.885 -20.384   5.072  0.00  0.00    +0.239 N 
ATOM     13  C   LIG    1       23.968 -20.721   4.029  0.00  0.00    +0.192 C 
ATOM     14  C   LIG    1       22.417 -18.973   4.753  0.00  0.00    +0.192 C 
ATOM     15  C   LIG    1       21.744 -21.374   4.885  0.00  0.00    +0.192 C 
ENDBRANCH  11  12
ENDBRANCH   1  11
TORSDOF 7
ENDMDL
MODEL 3
REMARK VINA RESULT:      -5.6      1.973      3.745
REMARK  Name = *****
REMARK                            x       y       z     vdW  Elec       q    Type
REMARK                         _______ _______ _______ _____ _____    ______ ____
ROOT
ATOM      1  C   LIG    1       24.945 -21.378   6.591  0.00  0.00    +0.232 C 
ENDROOT
BRANCH   1   2
ATOM      2  O   LIG    1       24.917 -22.543   7.463  0.00  0.00    -0.456 OA
BRANCH   2   4
ATOM      3  C   LIG    1       23.593 -24.303   6.617  0.00  0.00    +0.136 C 
ATOM      4  C   LIG    1       24.968 -23.778   6.888  0.00  0.00    +0.304 C 
ATOM      5  O   LIG    1       26.007 -24.375   6.655  0.00  0.00    -0.251 OA
ENDBRANCH   2   4
ENDBRANCH   1   2
BRANCH   1   6
ATOM      6  C   LIG    1       26.182 -20.557   7.035  0.00  0.00    +0.170 C 
BRANCH   6   7
ATOM      7  C   LIG    1       26.661 -20.896   8.416  0.00  0.00    +0.308 C 
ATOM      8  O   LIG    1       27.743 -21.434   8.631  0.00  0.00    -0.251 OA
BRANCH   7   9
ATOM      9  O   LIG    1       25.821 -20.537   9.396  0.00  0.00    -0.480 OA
ATOM     10  H   LIG    1       26.200 -20.039  10.143  0.00  0.00    +0.295 HD
ENDBRANCH   7   9
ENDBRANCH   6   7
ENDBRANCH   1   6
BRANCH   1  11
ATOM     11  C   LIG    1       23.611 -20.563   6.465  0.00  0.00    +0.178 C 
BRANCH  11  12
ATOM     12  N   LIG    1       22.972 -20.472   5.031  0.00  0.00    +0.239 N 
ATOM     13  C   LIG    1       22.453 -19.034   4.836  0.00  0.00    +0.192 C 
ATOM     14  C   LIG    1       21.766 -21.383   4.859  0.00  0.00    +0.192 C 
ATOM     15  C   LIG    1       23.997 -20.742   3.938  0.00  0.00    +0.192 C 
ENDBRANCH  11  12
ENDBRANCH   1  11
TORSDOF 7
ENDMDL
MODEL 4
REMARK VINA RESULT:      -5.6      2.298      4.703
REMARK  Name = *****
REMARK                            x       y       z     vdW  Elec       q    Type
REMARK                         _______ _______ _______ _____ _____    ______ ____
ROOT
ATOM      1  C   LIG    1       25.248 -22.930   6.602  0.00  0.00    +0.232 C 
ENDROOT
BRANCH   1   2
ATOM      2  O   LIG    1       26.469 -22.475   7.248  0.00  0.00    -0.456 OA
BRANCH   2   4
ATOM      3  C   LIG    1       27.287 -20.391   7.995  0.00  0.00    +0.136 C 
ATOM      4  C   LIG    1       26.365 -21.544   8.238  0.00  0.00    +0.304 C 
ATOM      5  O   LIG    1       25.628 -21.663   9.205  0.00  0.00    -0.251 OA
ENDBRANCH   2   4
ENDBRANCH   1   2
BRANCH   1   6
ATOM      6  C   LIG    1       25.206 -24.464   6.828  0.00  0.00    +0.170 C 
BRANCH   6   7
ATOM      7  C   LIG    1       23.917 -25.097   6.393  0.00  0.00    +0.308 C 
ATOM      8  O   LIG    1       23.863 -26.210   5.878  0.00  0.00    -0.251 OA
BRANCH   7   9
ATOM      9  O   LIG    1       22.827 -24.358   6.639  0.00  0.00    -0.480 OA
ATOM     10  H   LIG    1       22.115 -24.777   7.156  0.00  0.00    +0.295 HD
ENDBRANCH   7   9
ENDBRANCH   6   7
ENDBRANCH   1   6
BRANCH   1  11
ATOM     11  C   LIG    1       25.021 -22.466   5.121  0.00  0.00    +0.178 C 
BRANCH  11  12
ATOM     12  N   LIG    1       24.585 -20.970   4.910  0.00  0.00    +0.239 N 
ATOM     13  C   LIG    1       23.834 -20.882   3.568  0.00  0.00    +0.192 C 
ATOM     14  C   LIG    1       25.766 -20.018   4.796  0.00  0.00    +0.192 C 
ATOM     15  C   LIG    1       23.633 -20.500   6.000  0.00  0.00    +0.192 C 
ENDBRANCH  11  12
ENDBRANCH   1  11
TORSDOF 7
ENDMDL
MODEL 5
REMARK VINA RESULT:      -5.6      1.293      3.763
REMARK  Name = *****
REMARK                            x       y       z     vdW  Elec       q    Type
REMARK                         _______ _______ _______ _____ _____    ______ ____
ROOT
ATOM      1  C   LIG    1       23.913 -21.436   6.707  0.00  0.00    +0.232 C 
ENDROOT
BRANCH   1   2
ATOM      2  O   LIG    1       24.261 -20.667   7.892  0.00  0.00    -0.456 OA
BRANCH   2   4
ATOM      3  C   LIG    1       26.456 -20.488   7.044  0.00  0.00    +0.136 C 
ATOM      4  C   LIG    1       25.574 -20.595   8.249  0.00  0.00    +0.304 C 
ATOM      5  O   LIG    1       25.967 -20.637   9.405  0.00  0.00    -0.251 OA
ENDBRANCH   2   4
ENDBRANCH   1   2
BRANCH   1   6
ATOM      6  C   LIG    1       22.846 -20.591   5.964  0.00  0.00    +0.170 C 
BRANCH   6   7
ATOM      7  C   LIG    1       23.385 -19.869   4.764  0.00  0.00    +0.308 C 
ATOM      8  O   LIG    1       24.399 -20.227   4.173  0.00  0.00    -0.251 OA
BRANCH   7   9
ATOM      9  O   LIG    1       22.650 -18.818   4.374  0.00  0.00    -0.480 OA
ATOM     10  H   LIG    1       23.106 -18.125   3.863  0.00  0.00    +0.295 HD
ENDBRANCH   7   9
ENDBRANCH   6   7
ENDBRANCH   1   6
BRANCH   1  11
ATOM     11  C   LIG    1       23.536 -22.942   6.932  0.00  0.00    +0.178 C 
BRANCH  11  12
ATOM     12  N   LIG    1       24.533 -24.012   6.353  0.00  0.00    +0.239 N 
ATOM     13  C   LIG    1       24.869 -23.608   4.905  0.00  0.00    +0.192 C 
ATOM     14  C   LIG    1       23.927 -25.405   6.272  0.00  0.00    +0.192 C 
ATOM     15  C   LIG    1       25.838 -24.049   7.134  0.00  0.00    +0.192 C 
ENDBRANCH  11  12
ENDBRANCH   1  11
TORSDOF 7
ENDMDL
MODEL 6
REMARK VINA RESULT:      -5.5      2.200      4.686
REMARK  Name = *****
REMARK                            x       y       z     vdW  Elec       q    Type
REMARK                         _______ _______ _______ _____ _____    ______ ____
ROOT
ATOM      1  C   LIG    1       25.285 -22.640   6.626  0.00  0.00    +0.232 C 
ENDROOT
BRANCH   1   2
ATOM      2  O   LIG    1       26.668 -22.311   6.935  0.00  0.00    -0.456 OA
BRANCH   2   4
ATOM      3  C   LIG    1       27.856 -20.338   7.449  0.00  0.00    +0.136 C 
ATOM      4  C   LIG    1       26.907 -21.396   7.916  0.00  0.00    +0.304 C 
ATOM      5  O   LIG    1       26.421 -21.458   9.035  0.00  0.00    -0.251 OA
ENDBRANCH   2   4
ENDBRANCH   1   2
BRANCH   1   6
ATOM      6  C   LIG    1       25.182 -24.181   6.768  0.00  0.00    +0.170 C 
BRANCH   6   7
ATOM      7  C   LIG    1       23.865 -24.737   6.313  0.00  0.00    +0.308 C 
ATOM      8  O   LIG    1       22.794 -24.400   6.809  0.00  0.00    -0.251 OA
BRANCH   7   9
ATOM      9  O   LIG    1       23.954 -25.611   5.301  0.00  0.00    -0.480 OA
ATOM     10  H   LIG    1       23.853 -25.255   4.400  0.00  0.00    +0.295 HD
ENDBRANCH   7   9
ENDBRANCH   6   7
ENDBRANCH   1   6
BRANCH   1  11
ATOM     11  C   LIG    1       24.705 -22.052   5.292  0.00  0.00    +0.178 C 
BRANCH  11  12
ATOM     12  N   LIG    1       23.611 -20.930   5.433  0.00  0.00    +0.239 N 
ATOM     13  C   LIG    1       23.526 -20.540   6.921  0.00  0.00    +0.192 C 
ATOM     14  C   LIG    1       22.220 -21.406   5.042  0.00  0.00    +0.192 C 
ATOM     15  C   LIG    1       23.980 -19.679   4.650  0.00  0.00    +0.192 C 
ENDBRANCH  11  12
ENDBRANCH   1  11
TORSDOF 7
ENDMDL
MODEL 7
REMARK VINA RESULT:      -5.5      3.685      5.637
REMARK  Name = *****
REMARK                            x       y       z     vdW  Elec       q    Type
REMARK                         _______ _______ _______ _____ _____    ______ ____
ROOT
ATOM      1  C   LIG    1       29.055 -20.695   7.989  0.00  0.00    +0.232 C 
ENDROOT
BRANCH   1   2
ATOM      2  O   LIG    1       29.398 -19.299   8.216  0.00  0.00    -0.456 OA
BRANCH   2   4
ATOM      3  C   LIG    1       29.523 -18.453   6.017  0.00  0.00    +0.136 C 
ATOM      4  C   LIG    1       30.221 -18.685   7.320  0.00  0.00    +0.304 C 
ATOM      5  O   LIG    1       31.382 -18.390   7.557  0.00  0.00    -0.251 OA
ENDBRANCH   2   4
ENDBRANCH   1   2
BRANCH   1   6
ATOM      6  C   LIG    1       30.406 -21.452   7.937  0.00  0.00    +0.170 C 
BRANCH   6   7
ATOM      7  C   LIG    1       31.123 -21.486   9.255  0.00  0.00    +0.308 C 
ATOM      8  O   LIG    1       30.782 -22.219  10.178  0.00  0.00    -0.251 OA
BRANCH   7   9
ATOM      9  O   LIG    1       32.184 -20.671   9.329  0.00  0.00    -0.480 OA
ATOM     10  H   LIG    1       32.006 -19.727   9.490  0.00  0.00    +0.295 HD
ENDBRANCH   7   9
ENDBRANCH   6   7
ENDBRANCH   1   6
BRANCH   1  11
ATOM     11  C   LIG    1       28.076 -20.992   6.800  0.00  0.00    +0.178 C 
BRANCH  11  12
ATOM     12  N   LIG    1       26.563 -21.212   7.170  0.00  0.00    +0.239 N 
ATOM     13  C   LIG    1       26.320 -22.730   7.277  0.00  0.00    +0.192 C 
ATOM     14  C   LIG    1       25.610 -20.707   6.097  0.00  0.00    +0.192 C 
ATOM     15  C   LIG    1       26.215 -20.595   8.517  0.00  0.00    +0.192 C 
ENDBRANCH  11  12
ENDBRANCH   1  11
TORSDOF 7
ENDMDL
MODEL 8
REMARK VINA RESULT:      -5.4      2.415      4.044
REMARK  Name = *****
REMARK                            x       y       z     vdW  Elec       q    Type
REMARK                         _______ _______ _______ _____ _____    ______ ____
ROOT
ATOM      1  C   LIG    1       25.159 -22.732   5.781  0.00  0.00    +0.232 C 
ENDROOT
BRANCH   1   2
ATOM      2  O   LIG    1       23.850 -22.102   5.865  0.00  0.00    -0.456 OA
BRANCH   2   4
ATOM      3  C   LIG    1       22.792 -20.006   5.634  0.00  0.00    +0.136 C 
ATOM      4  C   LIG    1       23.554 -21.113   4.976  0.00  0.00    +0.304 C 
ATOM      5  O   LIG    1       23.858 -21.151   3.793  0.00  0.00    -0.251 OA
ENDBRANCH   2   4
ENDBRANCH   1   2
BRANCH   1   6
ATOM      6  C   LIG    1       24.899 -24.156   5.226  0.00  0.00    +0.170 C 
BRANCH   6   7
ATOM      7  C   LIG    1       24.156 -25.043   6.181  0.00  0.00    +0.308 C 
ATOM      8  O   LIG    1       24.604 -26.114   6.579  0.00  0.00    -0.251 OA
BRANCH   7   9
ATOM      9  O   LIG    1       22.975 -24.555   6.583  0.00  0.00    -0.480 OA
ATOM     10  H   LIG    1       22.983 -23.952   7.348  0.00  0.00    +0.295 HD
ENDBRANCH   7   9
ENDBRANCH   6   7
ENDBRANCH   1   6
BRANCH   1  11
ATOM     11  C   LIG    1       26.053 -22.668   7.068  0.00  0.00    +0.178 C 
BRANCH  11  12
ATOM     12  N   LIG    1       26.790 -21.307   7.349  0.00  0.00    +0.239 N 
ATOM     13  C   LIG    1       26.020 -20.576   8.465  0.00  0.00    +0.192 C 
ATOM     14  C   LIG    1       26.784 -20.371   6.149  0.00  0.00    +0.192 C 
ATOM     15  C   LIG    1       28.213 -21.526   7.840  0.00  0.00    +0.192 C 
ENDBRANCH  11  12
ENDBRANCH   1  11
TORSDOF 7
ENDMDL
MODEL 9
REMARK VINA RESULT:      -5.4      2.683      4.442
REMARK  Name = *****
REMARK                            x       y       z     vdW  Elec       q    Type
REMARK                         _______ _______ _______ _____ _____    ______ ____
ROOT
ATOM      1  C   LIG    1       25.311 -23.418   6.772  0.00  0.00    +0.232 C 
ENDROOT
BRANCH   1   2
ATOM      2  O   LIG    1       23.867 -23.359   6.943  0.00  0.00    -0.456 OA
BRANCH   2   4
ATOM      3  C   LIG    1       22.913 -21.623   5.662  0.00  0.00    +0.136 C 
ATOM      4  C   LIG    1       23.278 -22.133   7.020  0.00  0.00    +0.304 C 
ATOM      5  O   LIG    1       23.100 -21.531   8.068  0.00  0.00    -0.251 OA
ENDBRANCH   2   4
ENDBRANCH   1   2
BRANCH   1   6
ATOM      6  C   LIG    1       25.633 -24.903   6.468  0.00  0.00    +0.170 C 
BRANCH   6   7
ATOM      7  C   LIG    1       25.318 -25.306   5.057  0.00  0.00    +0.308 C 
ATOM      8  O   LIG    1       25.482 -26.448   4.640  0.00  0.00    -0.251 OA
BRANCH   7   9
ATOM      9  O   LIG    1       24.817 -24.321   4.299  0.00  0.00    -0.480 OA
ATOM     10  H   LIG    1       25.453 -23.791   3.785  0.00  0.00    +0.295 HD
ENDBRANCH   7   9
ENDBRANCH   6   7
ENDBRANCH   1   6
BRANCH   1  11
ATOM     11  C   LIG    1       26.178 -22.763   7.904  0.00  0.00    +0.178 C 
BRANCH  11  12
ATOM     12  N   LIG    1       26.835 -21.373   7.574  0.00  0.00    +0.239 N 
ATOM     13  C   LIG    1       26.315 -20.350   8.602  0.00  0.00    +0.192 C 
ATOM     14  C   LIG    1       26.436 -20.837   6.207  0.00  0.00    +0.192 C 
ATOM     15  C   LIG    1       28.351 -21.420   7.699  0.00  0.00    +0.192 C 
ENDBRANCH  11  12
ENDBRANCH   1  11
TORSDOF 7
ENDMDL
