MODEL 1
REMARK VINA RESULT:      -4.0      0.000      0.000
REMARK  Name = *****
REMARK                            x       y       z     vdW  Elec       q    Type
REMARK                         _______ _______ _______ _____ _____    ______ ____
ROOT
ATOM      1  C   LIG    1       23.482 -14.368   4.234  0.00  0.00    +0.276 C 
ATOM      2  N   LIG    1       24.918 -14.377   3.982  0.00  0.00    -0.224 N 
ATOM      3  C   LIG    1       25.568 -15.502   3.480  0.00  0.00    +0.307 C 
ATOM      4  N   LIG    1       26.728 -15.474   2.902  0.00  0.00    -0.083 NA
ATOM      5  C   LIG    1       27.400 -14.193   2.711  0.00  0.00    +0.294 C 
ATOM      6  C   LIG    1       27.026 -13.192   3.782  0.00  0.00    +0.093 C 
ATOM      7  C   LIG    1       25.518 -13.062   3.790  0.00  0.00    +0.229 C 
ENDROOT
BRANCH   3   8
ATOM      8  C   LIG    1       24.958 -16.865   3.646  0.00  0.00    +0.100 C 
ATOM      9  C   LIG    1       25.725 -17.966   3.625  0.00  0.00    +0.023 C 
BRANCH   9  10
ATOM     10  C   LIG    1       25.183 -19.277   3.776  0.00  0.00    +0.012 A 
ATOM     11  S   LIG    1       25.760 -20.277   5.060  0.00  0.00    -0.097 S 
ATOM     12  C   LIG    1       24.738 -21.572   4.625  0.00  0.00    +0.045 A 
ATOM     13  C   LIG    1       23.956 -21.267   3.536  0.00  0.00    +0.008 A 
ATOM     14  C   LIG    1       24.211 -19.950   3.052  0.00  0.00    +0.015 A 
ENDBRANCH   9  10
ENDBRANCH   3   8
TORSDOF 2
ENDMDL
MODEL 2
REMARK VINA RESULT:      -3.9      2.568      6.233
REMARK  Name = *****
REMARK                            x       y       z     vdW  Elec       q    Type
REMARK                         _______ _______ _______ _____ _____    ______ ____
ROOT
ATOM      1  C   LIG    1       27.300 -19.812   5.467  0.00  0.00    +0.276 C 
ATOM      2  N   LIG    1       25.963 -19.941   4.902  0.00  0.00    -0.224 N 
ATOM      3  C   LIG    1       25.525 -19.127   3.859  0.00  0.00    +0.307 C 
ATOM      4  N   LIG    1       24.526 -19.413   3.083  0.00  0.00    -0.083 NA
ATOM      5  C   LIG    1       23.825 -20.681   3.260  0.00  0.00    +0.294 C 
ATOM      6  C   LIG    1       23.875 -21.160   4.694  0.00  0.00    +0.093 C 
ATOM      7  C   LIG    1       25.329 -21.239   5.107  0.00  0.00    +0.229 C 
ENDROOT
BRANCH   3   8
ATOM      8  C   LIG    1       26.177 -17.796   3.614  0.00  0.00    +0.100 C 
ATOM      9  C   LIG    1       25.440 -16.677   3.531  0.00  0.00    +0.023 C 
BRANCH   9  10
ATOM     10  C   LIG    1       26.022 -15.396   3.297  0.00  0.00    +0.012 A 
ATOM     11  S   LIG    1       27.566 -15.041   3.985  0.00  0.00    -0.097 S 
ATOM     12  C   LIG    1       27.590 -13.466   3.328  0.00  0.00    +0.045 A 
ATOM     13  C   LIG    1       26.463 -13.199   2.588  0.00  0.00    +0.008 A 
ATOM     14  C   LIG    1       25.566 -14.307   2.569  0.00  0.00    +0.015 A 
ENDBRANCH   9  10
ENDBRANCH   3   8
TORSDOF 2
ENDMDL
MODEL 3
REMARK VINA RESULT:      -3.9      2.745      6.313
REMARK  Name = *****
REMARK                            x       y       z     vdW  Elec       q    Type
REMARK                         _______ _______ _______ _____ _____    ______ ____
ROOT
ATOM      1  C   LIG    1       27.338 -19.701   5.215  0.00  0.00    +0.276 C 
ATOM      2  N   LIG    1       25.940 -19.866   4.838  0.00  0.00    -0.224 N 
ATOM      3  C   LIG    1       25.360 -19.109   3.821  0.00  0.00    +0.307 C 
ATOM      4  N   LIG    1       24.271 -19.440   3.199  0.00  0.00    -0.083 NA
ATOM      5  C   LIG    1       23.615 -20.700   3.530  0.00  0.00    +0.294 C 
ATOM      6  C   LIG    1       23.858 -21.105   4.967  0.00  0.00    +0.093 C 
ATOM      7  C   LIG    1       25.354 -21.155   5.189  0.00  0.00    +0.229 C 
ENDROOT
BRANCH   3   8
ATOM      8  C   LIG    1       25.958 -17.789   3.426  0.00  0.00    +0.100 C 
ATOM      9  C   LIG    1       25.348 -16.637   3.746  0.00  0.00    +0.023 C 
BRANCH   9  10
ATOM     10  C   LIG    1       25.883 -15.365   3.386  0.00  0.00    +0.012 A 
ATOM     11  S   LIG    1       24.796 -14.075   3.016  0.00  0.00    -0.097 S 
ATOM     12  C   LIG    1       26.068 -12.981   2.701  0.00  0.00    +0.045 A 
ATOM     13  C   LIG    1       27.301 -13.560   2.881  0.00  0.00    +0.008 A 
ATOM     14  C   LIG    1       27.194 -14.926   3.275  0.00  0.00    +0.015 A 
ENDBRANCH   9  10
ENDBRANCH   3   8
TORSDOF 2
ENDMDL
MODEL 4
REMARK VINA RESULT:      -3.7      1.564      2.361
REMARK  Name = *****
REMARK                            x       y       z     vdW  Elec       q    Type
REMARK                         _______ _______ _______ _____ _____    ______ ____
ROOT
ATOM      1  C   LIG    1       27.398 -15.255   3.677  0.00  0.00    +0.276 C 
ATOM      2  N   LIG    1       26.170 -14.561   3.310  0.00  0.00    -0.224 N 
ATOM      3  C   LIG    1       24.913 -15.091   3.598  0.00  0.00    +0.307 C 
ATOM      4  N   LIG    1       23.821 -14.392   3.637  0.00  0.00    -0.083 NA
ATOM      5  C   LIG    1       23.887 -12.952   3.413  0.00  0.00    +0.294 C 
ATOM      6  C   LIG    1       25.037 -12.571   2.508  0.00  0.00    +0.093 C 
ATOM      7  C   LIG    1       26.309 -13.123   3.115  0.00  0.00    +0.229 C 
ENDROOT
BRANCH   3   8
ATOM      8  C   LIG    1       24.748 -16.567   3.825  0.00  0.00    +0.100 C 
ATOM      9  C   LIG    1       23.534 -17.094   4.051  0.00  0.00    +0.023 C 
BRANCH   9  10
ATOM     10  C   LIG    1       23.338 -18.489   4.273  0.00  0.00    +0.012 A 
ATOM     11  S   LIG    1       24.561 -19.596   3.766  0.00  0.00    -0.097 S 
ATOM     12  C   LIG    1       23.682 -20.951   4.316  0.00  0.00    +0.045 A 
ATOM     13  C   LIG    1       22.486 -20.590   4.888  0.00  0.00    +0.008 A 
ATOM     14  C   LIG    1       22.290 -19.179   4.865  0.00  0.00    +0.015 A 
ENDBRANCH   9  10
ENDBRANCH   3   8
TORSDOF 2
ENDMDL
MODEL 5
REMARK VINA RESULT:      -3.6      2.721      6.076
REMARK  Name = *****
REMARK                            x       y       z     vdW  Elec       q    Type
REMARK                         _______ _______ _______ _____ _____    ______ ____
ROOT
ATOM      1  C   LIG    1       21.973 -18.577   4.427  0.00  0.00    +0.276 C 
ATOM      2  N   LIG    1       23.186 -19.338   4.153  0.00  0.00    -0.224 N 
ATOM      3  C   LIG    1       24.426 -18.717   4.018  0.00  0.00    +0.307 C 
ATOM      4  N   LIG    1       25.563 -19.329   4.139  0.00  0.00    -0.083 NA
ATOM      5  C   LIG    1       25.577 -20.747   4.482  0.00  0.00    +0.294 C 
ATOM      6  C   LIG    1       24.342 -21.463   3.980  0.00  0.00    +0.093 C 
ATOM      7  C   LIG    1       23.131 -20.744   4.533  0.00  0.00    +0.229 C 
ENDROOT
BRANCH   3   8
ATOM      8  C   LIG    1       24.508 -17.263   3.649  0.00  0.00    +0.100 C 
ATOM      9  C   LIG    1       25.688 -16.623   3.643  0.00  0.00    +0.023 C 
BRANCH   9  10
ATOM     10  C   LIG    1       25.806 -15.243   3.302  0.00  0.00    +0.012 A 
ATOM     11  S   LIG    1       24.494 -14.178   3.660  0.00  0.00    -0.097 S 
ATOM     12  C   LIG    1       25.304 -12.825   3.009  0.00  0.00    +0.045 A 
ATOM     13  C   LIG    1       26.552 -13.151   2.535  0.00  0.00    +0.008 A 
ATOM     14  C   LIG    1       26.839 -14.537   2.705  0.00  0.00    +0.015 A 
ENDBRANCH   9  10
ENDBRANCH   3   8
TORSDOF 2
ENDMDL
MODEL 6
REMARK VINA RESULT:      -2.8      3.682      5.085
REMARK  Name = *****
REMARK                            x       y       z     vdW  Elec       q    Type
REMARK                         _______ _______ _______ _____ _____    ______ ____
ROOT
ATOM      1  C   LIG    1       27.612 -17.856   4.087  0.00  0.00    +0.276 C 
ATOM      2  N   LIG    1       27.968 -18.685   5.232  0.00  0.00    -0.224 N 
ATOM      3  C   LIG    1       27.304 -19.879   5.507  0.00  0.00    +0.307 C 
ATOM      4  N   LIG    1       27.784 -20.822   6.258  0.00  0.00    -0.083 NA
ATOM      5  C   LIG    1       29.119 -20.669   6.829  0.00  0.00    +0.294 C 
ATOM      6  C   LIG    1       29.475 -19.217   7.057  0.00  0.00    +0.093 C 
ATOM      7  C   LIG    1       29.320 -18.487   5.740  0.00  0.00    +0.229 C 
ENDROOT
BRANCH   3   8
ATOM      8  C   LIG    1       25.919 -20.115   4.976  0.00  0.00    +0.100 C 
ATOM      9  C   LIG    1       24.870 -20.195   5.809  0.00  0.00    +0.023 C 
BRANCH   9  10
ATOM     10  C   LIG    1       23.541 -20.420   5.343  0.00  0.00    +0.012 A 
ATOM     11  S   LIG    1       22.740 -19.168   4.464  0.00  0.00    -0.097 S 
ATOM     12  C   LIG    1       21.321 -20.096   4.271  0.00  0.00    +0.045 A 
ATOM     13  C   LIG    1       21.437 -21.339   4.844  0.00  0.00    +0.008 A 
ATOM     14  C   LIG    1       22.710 -21.525   5.457  0.00  0.00    +0.015 A 
ENDBRANCH   9  10
ENDBRANCH   3   8
TORSDOF 2
ENDMDL
MODEL 7
REMARK VINA RESULT:      -2.5      1.107      1.216
REMARK  Name = *****
REMARK                            x       y       z     vdW  Elec       q    Type
REMARK                         _______ _______ _______ _____ _____    ______ ____
ROOT
ATOM      1  C   LIG    1       23.392 -14.940   3.964  0.00  0.00    +0.276 C 
ATOM      2  N   LIG    1       24.797 -14.586   3.804  0.00  0.00    -0.224 N 
ATOM      3  C   LIG    1       25.714 -15.465   3.232  0.00  0.00    +0.307 C 
ATOM      4  N   LIG    1       26.856 -15.103   2.734  0.00  0.00    -0.083 NA
ATOM      5  C   LIG    1       27.210 -13.688   2.719  0.00  0.00    +0.294 C 
ATOM      6  C   LIG    1       26.569 -12.930   3.860  0.00  0.00    +0.093 C 
ATOM      7  C   LIG    1       25.074 -13.155   3.786  0.00  0.00    +0.229 C 
ENDROOT
BRANCH   3   8
ATOM      8  C   LIG    1       25.440 -16.942   3.219  0.00  0.00    +0.100 C 
ATOM      9  C   LIG    1       24.469 -17.465   3.985  0.00  0.00    +0.023 C 
BRANCH   9  10
ATOM     10  C   LIG    1       24.181 -18.862   4.003  0.00  0.00    +0.012 A 
ATOM     11  S   LIG    1       22.614 -19.385   4.507  0.00  0.00    -0.097 S 
ATOM     12  C   LIG    1       23.001 -21.033   4.287  0.00  0.00    +0.045 A 
ATOM     13  C   LIG    1       24.285 -21.203   3.828  0.00  0.00    +0.008 A 
ATOM     14  C   LIG    1       24.960 -19.958   3.663  0.00  0.00    +0.015 A 
ENDBRANCH   9  10
ENDBRANCH   3   8
TORSDOF 2
ENDMDL
MODEL 8
REMARK VINA RESULT:      -1.6      3.166      6.002
REMARK  Name = *****
REMARK                            x       y       z     vdW  Elec       q    Type
REMARK                         _______ _______ _______ _____ _____    ______ ____
ROOT
ATOM      1  C   LIG    1       25.690 -19.597   4.463  0.00  0.00    +0.276 C 
ATOM      2  N   LIG    1       27.096 -19.322   4.730  0.00  0.00    -0.224 N 
ATOM      3  C   LIG    1       27.622 -18.035   4.642  0.00  0.00    +0.307 C 
ATOM      4  N   LIG    1       28.732 -17.663   5.201  0.00  0.00    -0.083 NA
ATOM      5  C   LIG    1       29.475 -18.617   6.017  0.00  0.00    +0.294 C 
ATOM      6  C   LIG    1       29.260 -20.043   5.558  0.00  0.00    +0.093 C 
ATOM      7  C   LIG    1       27.771 -20.312   5.561  0.00  0.00    +0.229 C 
ENDROOT
BRANCH   3   8
ATOM      8  C   LIG    1       26.933 -16.991   3.809  0.00  0.00    +0.100 C 
ATOM      9  C   LIG    1       26.906 -15.708   4.203  0.00  0.00    +0.023 C 
BRANCH   9  10
ATOM     10  C   LIG    1       26.260 -14.690   3.442  0.00  0.00    +0.012 A 
ATOM     11  S   LIG    1       24.601 -14.335   3.761  0.00  0.00    -0.097 S 
ATOM     12  C   LIG    1       24.541 -13.125   2.558  0.00  0.00    +0.045 A 
ATOM     13  C   LIG    1       25.750 -12.970   1.924  0.00  0.00    +0.008 A 
ATOM     14  C   LIG    1       26.735 -13.866   2.433  0.00  0.00    +0.015 A 
ENDBRANCH   9  10
ENDBRANCH   3   8
TORSDOF 2
ENDMDL
