MODEL 1
REMARK VINA RESULT:      -8.0      0.000      0.000
REMARK  Name = *****
REMARK                            x       y       z     vdW  Elec       q    Type
REMARK                         _______ _______ _______ _____ _____    ______ ____
ROOT
ATOM      1  C   LIG    1       29.780 -20.504   7.426  0.00  0.00    +0.234 A 
ATOM      2  N   LIG    1       29.169 -20.133   6.296  0.00  0.00    -0.197 NA
ATOM      3  C   LIG    1       27.868 -20.458   6.192  0.00  0.00    +0.148 A 
ATOM      4  C   LIG    1       27.185 -21.110   7.219  0.00  0.00    +0.134 A 
ATOM      5  N   LIG    1       27.851 -21.474   8.333  0.00  0.00    -0.142 NA
ATOM      6  N   LIG    1       29.170 -21.159   8.435  0.00  0.00    -0.113 NA
ENDROOT
BRANCH   4   7
ATOM      7  C   LIG    1       25.768 -21.477   7.172  0.00  0.00    +0.025 A 
ATOM      8  C   LIG    1       25.329 -22.796   6.929  0.00  0.00    +0.069 A 
ATOM      9 CL   LIG    1       26.489 -24.057   6.627  0.00  0.00    -0.081 Cl
ATOM     10  C   LIG    1       23.954 -23.083   6.907  0.00  0.00    +0.060 A 
ATOM     11 CL   LIG    1       23.337 -24.675   6.620  0.00  0.00    -0.082 Cl
ATOM     12  C   LIG    1       23.016 -22.069   7.121  0.00  0.00    +0.021 A 
ATOM     13  C   LIG    1       23.438 -20.762   7.348  0.00  0.00    +0.002 A 
ATOM     14  C   LIG    1       24.802 -20.469   7.370  0.00  0.00    +0.012 A 
ENDBRANCH   4   7
BRANCH   1  15
ATOM     15  N   LIG    1       31.112 -20.152   7.566  0.00  0.00    -0.326 N 
ATOM     16  H   LIG    1       31.304 -19.336   6.999  0.00  0.00    +0.145 HD
ATOM     17  H   LIG    1       31.353 -20.089   8.546  0.00  0.00    +0.145 HD
ENDBRANCH   1  15
BRANCH   3  18
ATOM     18  N   LIG    1       27.253 -20.073   4.994  0.00  0.00    -0.341 N 
ATOM     19  H   LIG    1       26.285 -19.837   5.209  0.00  0.00    +0.144 HD
ATOM     20  H   LIG    1       27.737 -19.303   4.544  0.00  0.00    +0.144 HD
ENDBRANCH   3  18
TORSDOF 3
ENDMDL
MODEL 2
REMARK VINA RESULT:      -7.2      1.625      2.217
REMARK  Name = *****
REMARK                            x       y       z     vdW  Elec       q    Type
REMARK                         _______ _______ _______ _____ _____    ______ ____
ROOT
ATOM      1  C   LIG    1       28.858 -19.798   7.460  0.00  0.00    +0.234 A 
ATOM      2  N   LIG    1       28.175 -19.685   6.316  0.00  0.00    -0.197 NA
ATOM      3  C   LIG    1       27.226 -20.613   6.099  0.00  0.00    +0.148 A 
ATOM      4  C   LIG    1       26.944 -21.613   7.029  0.00  0.00    +0.134 A 
ATOM      5  N   LIG    1       27.671 -21.691   8.162  0.00  0.00    -0.142 NA
ATOM      6  N   LIG    1       28.641 -20.762   8.377  0.00  0.00    -0.113 NA
ENDROOT
BRANCH   4   7
ATOM      7  C   LIG    1       25.915 -22.641   6.858  0.00  0.00    +0.025 A 
ATOM      8  C   LIG    1       24.534 -22.355   6.921  0.00  0.00    +0.069 A 
ATOM      9 CL   LIG    1       23.995 -20.734   7.253  0.00  0.00    -0.081 Cl
ATOM     10  C   LIG    1       23.597 -23.386   6.738  0.00  0.00    +0.060 A 
ATOM     11 CL   LIG    1       21.888 -23.115   6.796  0.00  0.00    -0.082 Cl
ATOM     12  C   LIG    1       24.024 -24.696   6.499  0.00  0.00    +0.021 A 
ATOM     13  C   LIG    1       25.383 -24.990   6.449  0.00  0.00    +0.002 A 
ATOM     14  C   LIG    1       26.319 -23.972   6.630  0.00  0.00    +0.012 A 
ENDBRANCH   4   7
BRANCH   1  15
ATOM     15  N   LIG    1       29.819 -18.834   7.718  0.00  0.00    -0.326 N 
ATOM     16  H   LIG    1       30.687 -19.100   7.271  0.00  0.00    +0.145 HD
ATOM     17  H   LIG    1       29.457 -17.916   7.496  0.00  0.00    +0.145 HD
ENDBRANCH   1  15
BRANCH   3  18
ATOM     18  N   LIG    1       26.534 -20.483   4.888  0.00  0.00    -0.341 N 
ATOM     19  H   LIG    1       26.623 -21.366   4.389  0.00  0.00    +0.144 HD
ATOM     20  H   LIG    1       25.562 -20.226   5.027  0.00  0.00    +0.144 HD
ENDBRANCH   3  18
TORSDOF 3
ENDMDL
MODEL 3
REMARK VINA RESULT:      -7.2      1.983      2.490
REMARK  Name = *****
REMARK                            x       y       z     vdW  Elec       q    Type
REMARK                         _______ _______ _______ _____ _____    ______ ____
ROOT
ATOM      1  C   LIG    1       30.727 -20.537   8.409  0.00  0.00    +0.234 A 
ATOM      2  N   LIG    1       30.593 -19.570   7.495  0.00  0.00    -0.197 NA
ATOM      3  C   LIG    1       29.412 -19.521   6.853  0.00  0.00    +0.148 A 
ATOM      4  C   LIG    1       28.373 -20.404   7.148  0.00  0.00    +0.134 A 
ATOM      5  N   LIG    1       28.564 -21.371   8.069  0.00  0.00    -0.142 NA
ATOM      6  N   LIG    1       29.763 -21.430   8.710  0.00  0.00    -0.113 NA
ENDROOT
BRANCH   4   7
ATOM      7  C   LIG    1       27.063 -20.393   6.497  0.00  0.00    +0.025 A 
ATOM      8  C   LIG    1       25.866 -20.693   7.184  0.00  0.00    +0.069 A 
ATOM      9 CL   LIG    1       25.917 -21.139   8.865  0.00  0.00    -0.081 Cl
ATOM     10  C   LIG    1       24.638 -20.654   6.502  0.00  0.00    +0.060 A 
ATOM     11 CL   LIG    1       23.130 -21.004   7.274  0.00  0.00    -0.082 Cl
ATOM     12  C   LIG    1       24.594 -20.323   5.144  0.00  0.00    +0.021 A 
ATOM     13  C   LIG    1       25.769 -20.039   4.454  0.00  0.00    +0.002 A 
ATOM     14  C   LIG    1       26.991 -20.077   5.124  0.00  0.00    +0.012 A 
ENDBRANCH   4   7
BRANCH   1  15
ATOM     15  N   LIG    1       31.924 -20.586   9.103  0.00  0.00    -0.326 N 
ATOM     16  H   LIG    1       32.693 -20.536   8.448  0.00  0.00    +0.145 HD
ATOM     17  H   LIG    1       31.919 -19.904   9.850  0.00  0.00    +0.145 HD
ENDBRANCH   1  15
BRANCH   3  18
ATOM     18  N   LIG    1       29.300 -18.510   5.891  0.00  0.00    -0.341 N 
ATOM     19  H   LIG    1       29.253 -18.959   4.978  0.00  0.00    +0.144 HD
ATOM     20  H   LIG    1       28.499 -17.910   6.056  0.00  0.00    +0.144 HD
ENDBRANCH   3  18
TORSDOF 3
ENDMDL
MODEL 4
REMARK VINA RESULT:      -7.0      1.291      1.963
REMARK  Name = *****
REMARK                            x       y       z     vdW  Elec       q    Type
REMARK                         _______ _______ _______ _____ _____    ______ ____
ROOT
ATOM      1  C   LIG    1       28.950 -19.652   7.159  0.00  0.00    +0.234 A 
ATOM      2  N   LIG    1       28.188 -19.833   8.243  0.00  0.00    -0.197 NA
ATOM      3  C   LIG    1       26.935 -20.268   8.019  0.00  0.00    +0.148 A 
ATOM      4  C   LIG    1       26.468 -20.551   6.736  0.00  0.00    +0.134 A 
ATOM      5  N   LIG    1       27.273 -20.338   5.675  0.00  0.00    -0.142 NA
ATOM      6  N   LIG    1       28.536 -19.885   5.897  0.00  0.00    -0.113 NA
ENDROOT
BRANCH   4   7
ATOM      7  C   LIG    1       25.123 -21.040   6.429  0.00  0.00    +0.025 A 
ATOM      8  C   LIG    1       24.716 -22.367   6.692  0.00  0.00    +0.069 A 
ATOM      9 CL   LIG    1       25.845 -23.505   7.369  0.00  0.00    -0.081 Cl
ATOM     10  C   LIG    1       23.407 -22.771   6.383  0.00  0.00    +0.060 A 
ATOM     11 CL   LIG    1       22.832 -24.377   6.679  0.00  0.00    -0.082 Cl
ATOM     12  C   LIG    1       22.504 -21.869   5.812  0.00  0.00    +0.021 A 
ATOM     13  C   LIG    1       22.899 -20.564   5.537  0.00  0.00    +0.002 A 
ATOM     14  C   LIG    1       24.198 -20.155   5.840  0.00  0.00    +0.012 A 
ENDBRANCH   4   7
BRANCH   1  15
ATOM     15  N   LIG    1       30.253 -19.234   7.369  0.00  0.00    -0.326 N 
ATOM     16  H   LIG    1       30.838 -19.568   6.614  0.00  0.00    +0.145 HD
ATOM     17  H   LIG    1       30.273 -18.239   7.552  0.00  0.00    +0.145 HD
ENDBRANCH   1  15
BRANCH   3  18
ATOM     18  N   LIG    1       26.150 -20.437   9.168  0.00  0.00    -0.341 N 
ATOM     19  H   LIG    1       26.783 -20.505   9.963  0.00  0.00    +0.144 HD
ATOM     20  H   LIG    1       25.477 -19.687   9.286  0.00  0.00    +0.144 HD
ENDBRANCH   3  18
TORSDOF 3
ENDMDL
MODEL 5
REMARK VINA RESULT:      -6.8      3.283      5.611
REMARK  Name = *****
REMARK                            x       y       z     vdW  Elec       q    Type
REMARK                         _______ _______ _______ _____ _____    ______ ____
ROOT
ATOM      1  C   LIG    1       23.539 -23.119   6.778  0.00  0.00    +0.234 A 
ATOM      2  N   LIG    1       23.602 -22.054   7.584  0.00  0.00    -0.197 NA
ATOM      3  C   LIG    1       24.795 -21.437   7.657  0.00  0.00    +0.148 A 
ATOM      4  C   LIG    1       25.893 -21.859   6.908  0.00  0.00    +0.134 A 
ATOM      5  N   LIG    1       25.780 -22.948   6.120  0.00  0.00    -0.142 NA
ATOM      6  N   LIG    1       24.578 -23.582   6.055  0.00  0.00    -0.113 NA
ENDROOT
BRANCH   4   7
ATOM      7  C   LIG    1       27.210 -21.222   6.932  0.00  0.00    +0.025 A 
ATOM      8  C   LIG    1       27.563 -20.167   6.062  0.00  0.00    +0.069 A 
ATOM      9 CL   LIG    1       26.425 -19.603   4.872  0.00  0.00    -0.081 Cl
ATOM     10  C   LIG    1       28.842 -19.591   6.143  0.00  0.00    +0.060 A 
ATOM     11 CL   LIG    1       29.348 -18.293   5.116  0.00  0.00    -0.082 Cl
ATOM     12  C   LIG    1       29.770 -20.058   7.078  0.00  0.00    +0.021 A 
ATOM     13  C   LIG    1       29.437 -21.107   7.930  0.00  0.00    +0.002 A 
ATOM     14  C   LIG    1       28.170 -21.684   7.855  0.00  0.00    +0.012 A 
ENDBRANCH   4   7
BRANCH   1  15
ATOM     15  N   LIG    1       22.311 -23.751   6.665  0.00  0.00    -0.326 N 
ATOM     16  H   LIG    1       21.779 -23.316   5.923  0.00  0.00    +0.145 HD
ATOM     17  H   LIG    1       22.441 -24.752   6.605  0.00  0.00    +0.145 HD
ENDBRANCH   1  15
BRANCH   3  18
ATOM     18  N   LIG    1       24.841 -20.333   8.518  0.00  0.00    -0.341 N 
ATOM     19  H   LIG    1       23.910 -19.921   8.538  0.00  0.00    +0.144 HD
ATOM     20  H   LIG    1       25.162 -20.584   9.448  0.00  0.00    +0.144 HD
ENDBRANCH   3  18
TORSDOF 3
ENDMDL
MODEL 6
REMARK VINA RESULT:      -6.7      3.668      4.949
REMARK  Name = *****
REMARK                            x       y       z     vdW  Elec       q    Type
REMARK                         _______ _______ _______ _____ _____    ______ ____
ROOT
ATOM      1  C   LIG    1       25.569 -24.662   6.492  0.00  0.00    +0.234 A 
ATOM      2  N   LIG    1       25.815 -23.614   7.286  0.00  0.00    -0.197 NA
ATOM      3  C   LIG    1       25.556 -22.402   6.765  0.00  0.00    +0.148 A 
ATOM      4  C   LIG    1       25.026 -22.246   5.484  0.00  0.00    +0.134 A 
ATOM      5  N   LIG    1       24.809 -23.335   4.718  0.00  0.00    -0.142 NA
ATOM      6  N   LIG    1       25.083 -24.561   5.239  0.00  0.00    -0.113 NA
ENDROOT
BRANCH   4   7
ATOM      7  C   LIG    1       24.708 -20.958   4.867  0.00  0.00    +0.025 A 
ATOM      8  C   LIG    1       23.393 -20.448   4.798  0.00  0.00    +0.069 A 
ATOM      9 CL   LIG    1       22.065 -21.381   5.426  0.00  0.00    -0.081 Cl
ATOM     10  C   LIG    1       23.157 -19.198   4.201  0.00  0.00    +0.060 A 
ATOM     11 CL   LIG    1       21.576 -18.504   4.083  0.00  0.00    -0.082 Cl
ATOM     12  C   LIG    1       24.216 -18.457   3.670  0.00  0.00    +0.021 A 
ATOM     13  C   LIG    1       25.514 -18.956   3.720  0.00  0.00    +0.002 A 
ATOM     14  C   LIG    1       25.756 -20.197   4.310  0.00  0.00    +0.012 A 
ENDBRANCH   4   7
BRANCH   1  15
ATOM     15  N   LIG    1       25.801 -25.921   7.021  0.00  0.00    -0.326 N 
ATOM     16  H   LIG    1       26.180 -25.826   7.954  0.00  0.00    +0.145 HD
ATOM     17  H   LIG    1       24.974 -26.495   6.923  0.00  0.00    +0.145 HD
ENDBRANCH   1  15
BRANCH   3  18
ATOM     18  N   LIG    1       25.834 -21.320   7.609  0.00  0.00    -0.341 N 
ATOM     19  H   LIG    1       26.424 -20.671   7.091  0.00  0.00    +0.144 HD
ATOM     20  H   LIG    1       24.991 -20.871   7.949  0.00  0.00    +0.144 HD
ENDBRANCH   3  18
TORSDOF 3
ENDMDL
MODEL 7
REMARK VINA RESULT:      -6.6      4.033      5.324
REMARK  Name = *****
REMARK                            x       y       z     vdW  Elec       q    Type
REMARK                         _______ _______ _______ _____ _____    ______ ____
ROOT
ATOM      1  C   LIG    1       25.647 -27.479   5.866  0.00  0.00    +0.234 A 
ATOM      2  N   LIG    1       25.294 -26.648   4.880  0.00  0.00    -0.197 NA
ATOM      3  C   LIG    1       25.261 -25.340   5.192  0.00  0.00    +0.148 A 
ATOM      4  C   LIG    1       25.610 -24.873   6.459  0.00  0.00    +0.134 A 
ATOM      5  N   LIG    1       25.946 -25.754   7.422  0.00  0.00    -0.142 NA
ATOM      6  N   LIG    1       25.967 -27.079   7.113  0.00  0.00    -0.113 NA
ENDROOT
BRANCH   4   7
ATOM      7  C   LIG    1       25.608 -23.464   6.854  0.00  0.00    +0.025 A 
ATOM      8  C   LIG    1       24.420 -22.720   7.024  0.00  0.00    +0.069 A 
ATOM      9 CL   LIG    1       22.877 -23.465   6.720  0.00  0.00    -0.081 Cl
ATOM     10  C   LIG    1       24.488 -21.372   7.414  0.00  0.00    +0.060 A 
ATOM     11 CL   LIG    1       23.077 -20.396   7.648  0.00  0.00    -0.082 Cl
ATOM     12  C   LIG    1       25.725 -20.760   7.633  0.00  0.00    +0.021 A 
ATOM     13  C   LIG    1       26.903 -21.480   7.455  0.00  0.00    +0.002 A 
ATOM     14  C   LIG    1       26.844 -22.819   7.066  0.00  0.00    +0.012 A 
ENDBRANCH   4   7
BRANCH   1  15
ATOM     15  N   LIG    1       25.718 -28.828   5.557  0.00  0.00    -0.326 N 
ATOM     16  H   LIG    1       26.646 -29.044   5.217  0.00  0.00    +0.145 HD
ATOM     17  H   LIG    1       25.379 -29.379   6.334  0.00  0.00    +0.145 HD
ENDBRANCH   1  15
BRANCH   3  18
ATOM     18  N   LIG    1       24.874 -24.490   4.148  0.00  0.00    -0.341 N 
ATOM     19  H   LIG    1       25.378 -24.782   3.312  0.00  0.00    +0.144 HD
ATOM     20  H   LIG    1       23.870 -24.493   4.002  0.00  0.00    +0.144 HD
ENDBRANCH   3  18
TORSDOF 3
ENDMDL
MODEL 8
REMARK VINA RESULT:      -6.6      3.737      4.980
REMARK  Name = *****
REMARK                            x       y       z     vdW  Elec       q    Type
REMARK                         _______ _______ _______ _____ _____    ______ ____
ROOT
ATOM      1  C   LIG    1       25.505 -24.642   6.559  0.00  0.00    +0.234 A 
ATOM      2  N   LIG    1       25.415 -23.663   7.467  0.00  0.00    -0.197 NA
ATOM      3  C   LIG    1       24.951 -22.483   7.020  0.00  0.00    +0.148 A 
ATOM      4  C   LIG    1       24.552 -22.298   5.696  0.00  0.00    +0.134 A 
ATOM      5  N   LIG    1       24.675 -23.313   4.818  0.00  0.00    -0.142 NA
ATOM      6  N   LIG    1       25.156 -24.505   5.264  0.00  0.00    -0.113 NA
ENDROOT
BRANCH   4   7
ATOM      7  C   LIG    1       24.025 -21.044   5.154  0.00  0.00    +0.025 A 
ATOM      8  C   LIG    1       24.855 -20.041   4.607  0.00  0.00    +0.069 A 
ATOM      9 CL   LIG    1       26.582 -20.253   4.596  0.00  0.00    -0.081 Cl
ATOM     10  C   LIG    1       24.285 -18.864   4.094  0.00  0.00    +0.060 A 
ATOM     11 CL   LIG    1       25.234 -17.592   3.403  0.00  0.00    -0.082 Cl
ATOM     12  C   LIG    1       22.900 -18.677   4.126  0.00  0.00    +0.021 A 
ATOM     13  C   LIG    1       22.075 -19.653   4.676  0.00  0.00    +0.002 A 
ATOM     14  C   LIG    1       22.633 -20.824   5.188  0.00  0.00    +0.012 A 
ENDBRANCH   4   7
BRANCH   1  15
ATOM     15  N   LIG    1       25.951 -25.875   7.005  0.00  0.00    -0.326 N 
ATOM     16  H   LIG    1       26.755 -25.742   7.604  0.00  0.00    +0.145 HD
ATOM     17  H   LIG    1       25.180 -26.404   7.390  0.00  0.00    +0.145 HD
ENDBRANCH   1  15
BRANCH   3  18
ATOM     18  N   LIG    1       24.880 -21.469   7.984  0.00  0.00    -0.341 N 
ATOM     19  H   LIG    1       25.616 -21.643   8.666  0.00  0.00    +0.144 HD
ATOM     20  H   LIG    1       24.958 -20.544   7.575  0.00  0.00    +0.144 HD
ENDBRANCH   3  18
TORSDOF 3
ENDMDL
MODEL 9
REMARK VINA RESULT:      -6.5      4.166      5.681
REMARK  Name = *****
REMARK                            x       y       z     vdW  Elec       q    Type
REMARK                         _______ _______ _______ _____ _____    ______ ____
ROOT
ATOM      1  C   LIG    1       24.515 -26.906   5.847  0.00  0.00    +0.234 A 
ATOM      2  N   LIG    1       23.523 -26.069   6.169  0.00  0.00    -0.197 NA
ATOM      3  C   LIG    1       23.871 -24.784   6.360  0.00  0.00    +0.148 A 
ATOM      4  C   LIG    1       25.184 -24.342   6.196  0.00  0.00    +0.134 A 
ATOM      5  N   LIG    1       26.150 -25.229   5.883  0.00  0.00    -0.142 NA
ATOM      6  N   LIG    1       25.802 -26.532   5.703  0.00  0.00    -0.113 NA
ENDROOT
BRANCH   4   7
ATOM      7  C   LIG    1       25.622 -22.956   6.373  0.00  0.00    +0.025 A 
ATOM      8  C   LIG    1       25.312 -21.933   5.451  0.00  0.00    +0.069 A 
ATOM      9 CL   LIG    1       24.409 -22.306   4.011  0.00  0.00    -0.081 Cl
ATOM     10  C   LIG    1       25.755 -20.621   5.686  0.00  0.00    +0.060 A 
ATOM     11 CL   LIG    1       25.412 -19.313   4.605  0.00  0.00    -0.082 Cl
ATOM     12  C   LIG    1       26.505 -20.321   6.827  0.00  0.00    +0.021 A 
ATOM     13  C   LIG    1       26.828 -21.325   7.735  0.00  0.00    +0.002 A 
ATOM     14  C   LIG    1       26.393 -22.630   7.508  0.00  0.00    +0.012 A 
ENDBRANCH   4   7
BRANCH   1  15
ATOM     15  N   LIG    1       24.173 -28.228   5.615  0.00  0.00    -0.326 N 
ATOM     16  H   LIG    1       24.828 -28.633   4.958  0.00  0.00    +0.145 HD
ATOM     17  H   LIG    1       24.053 -28.714   6.494  0.00  0.00    +0.145 HD
ENDBRANCH   1  15
BRANCH   3  18
ATOM     18  N   LIG    1       22.819 -23.929   6.710  0.00  0.00    -0.341 N 
ATOM     19  H   LIG    1       22.563 -24.137   7.674  0.00  0.00    +0.144 HD
ATOM     20  H   LIG    1       23.061 -22.951   6.587  0.00  0.00    +0.144 HD
ENDBRANCH   3  18
TORSDOF 3
ENDMDL
