MODEL 1
REMARK VINA RESULT:      -5.7      0.000      0.000
REMARK  Name = *****
REMARK                            x       y       z     vdW  Elec       q    Type
REMARK                         _______ _______ _______ _____ _____    ______ ____
ROOT
ATOM      1  C   LIG    1       26.743 -15.584   3.926  0.00  0.00    +0.152 C 
ENDROOT
BRANCH   1   2
ATOM      2  C   LIG    1       27.107 -17.080   3.682  0.00  0.00    +0.034 C 
BRANCH   2   3
ATOM      3  C   LIG    1       25.845 -17.909   3.348  0.00  0.00    +0.006 C 
BRANCH   3   4
ATOM      4  C   LIG    1       25.823 -19.412   3.705  0.00  0.00    -0.011 C 
BRANCH   4   5
ATOM      5  C   LIG    1       26.726 -19.708   4.921  0.00  0.00    -0.000 C 
ATOM      6  C   LIG    1       26.102 -20.557   6.022  0.00  0.00    +0.004 C 
ENDBRANCH   4   5
BRANCH   4   7
ATOM      7  C   LIG    1       24.395 -19.965   3.848  0.00  0.00    +0.003 C 
BRANCH   7   8
ATOM      8  C   LIG    1       23.333 -18.854   3.842  0.00  0.00    -0.000 C 
BRANCH   8  10
ATOM      9  C   LIG    1       22.747 -20.160   5.897  0.00  0.00    +0.004 C 
ATOM     10  C   LIG    1       22.320 -19.035   4.967  0.00  0.00    -0.003 C 
ENDBRANCH   8  10
ENDBRANCH   7   8
ENDBRANCH   4   7
ENDBRANCH   3   4
ENDBRANCH   2   3
ENDBRANCH   1   2
BRANCH   1  11
ATOM     11  C   LIG    1       25.329 -15.247   3.328  0.00  0.00    +0.037 C 
BRANCH  11  12
ATOM     12  C   LIG    1       24.351 -14.393   4.186  0.00  0.00    -0.015 C 
ATOM     13  C   LIG    1       23.086 -15.179   4.601  0.00  0.00    +0.007 C 
ATOM     14  C   LIG    1       23.862 -13.153   3.440  0.00  0.00    +0.007 C 
ENDBRANCH  11  12
ENDBRANCH   1  11
BRANCH   1  15
ATOM     15  O   LIG    1       27.732 -14.768   3.308  0.00  0.00    -0.212 OA
BRANCH  15  16
ATOM     16  S   LIG    1       28.062 -13.251   3.795  0.00  0.00    +0.208 S 
ATOM     17  O   LIG    1       29.474 -12.987   3.599  0.00  0.00    -0.118 OA
ATOM     18  O   LIG    1       27.408 -13.034   5.037  0.00  0.00    -0.118 OA
BRANCH  16  19
ATOM     19  O   LIG    1       27.244 -12.338   2.738  0.00  0.00    -0.231 OA
ATOM     20  H   LIG    1       26.310 -12.299   3.045  0.00  0.00    +0.247 HD
ENDBRANCH  16  19
ENDBRANCH  15  16
ENDBRANCH   1  15
TORSDOF 12
ENDMDL
MODEL 2
REMARK VINA RESULT:      -5.0      4.412      7.132
REMARK  Name = *****
REMARK                            x       y       z     vdW  Elec       q    Type
REMARK                         _______ _______ _______ _____ _____    ______ ____
ROOT
ATOM      1  C   LIG    1       25.211 -19.280   4.496  0.00  0.00    +0.152 C 
ENDROOT
BRANCH   1   2
ATOM      2  C   LIG    1       25.347 -18.394   3.222  0.00  0.00    +0.034 C 
BRANCH   2   3
ATOM      3  C   LIG    1       26.184 -17.127   3.515  0.00  0.00    +0.006 C 
BRANCH   3   4
ATOM      4  C   LIG    1       25.624 -15.748   3.101  0.00  0.00    -0.011 C 
BRANCH   4   5
ATOM      5  C   LIG    1       24.527 -15.278   4.079  0.00  0.00    -0.000 C 
ATOM      6  C   LIG    1       23.949 -13.892   3.814  0.00  0.00    +0.004 C 
ENDBRANCH   4   5
BRANCH   4   7
ATOM      7  C   LIG    1       26.730 -14.706   2.867  0.00  0.00    +0.003 C 
BRANCH   7   8
ATOM      8  C   LIG    1       27.715 -14.623   4.044  0.00  0.00    -0.000 C 
BRANCH   8  10
ATOM      9  C   LIG    1       28.717 -12.371   4.492  0.00  0.00    +0.004 C 
ATOM     10  C   LIG    1       27.566 -13.313   4.811  0.00  0.00    -0.003 C 
ENDBRANCH   8  10
ENDBRANCH   7   8
ENDBRANCH   4   7
ENDBRANCH   3   4
ENDBRANCH   2   3
ENDBRANCH   1   2
BRANCH   1  11
ATOM     11  C   LIG    1       26.533 -20.089   4.759  0.00  0.00    +0.037 C 
BRANCH  11  12
ATOM     12  C   LIG    1       27.030 -20.230   6.227  0.00  0.00    -0.015 C 
ATOM     13  C   LIG    1       28.567 -20.365   6.322  0.00  0.00    +0.007 C 
ATOM     14  C   LIG    1       26.446 -21.462   6.916  0.00  0.00    +0.007 C 
ENDBRANCH  11  12
ENDBRANCH   1  11
BRANCH   1  15
ATOM     15  O   LIG    1       24.126 -20.183   4.310  0.00  0.00    -0.212 OA
BRANCH  15  16
ATOM     16  S   LIG    1       22.735 -20.083   5.147  0.00  0.00    +0.208 S 
ATOM     17  O   LIG    1       21.970 -18.951   4.662  0.00  0.00    -0.118 OA
ATOM     18  O   LIG    1       23.033 -20.272   6.523  0.00  0.00    -0.118 OA
BRANCH  16  19
ATOM     19  O   LIG    1       21.946 -21.427   4.712  0.00  0.00    -0.231 OA
ATOM     20  H   LIG    1       21.128 -21.478   5.257  0.00  0.00    +0.247 HD
ENDBRANCH  16  19
ENDBRANCH  15  16
ENDBRANCH   1  15
TORSDOF 12
ENDMDL
MODEL 3
REMARK VINA RESULT:      -4.9      4.327      6.800
REMARK  Name = *****
REMARK                            x       y       z     vdW  Elec       q    Type
REMARK                         _______ _______ _______ _____ _____    ______ ____
ROOT
ATOM      1  C   LIG    1       25.229 -19.090   4.511  0.00  0.00    +0.152 C 
ENDROOT
BRANCH   1   2
ATOM      2  C   LIG    1       25.298 -18.145   3.274  0.00  0.00    +0.034 C 
BRANCH   2   3
ATOM      3  C   LIG    1       26.484 -17.161   3.395  0.00  0.00    +0.006 C 
BRANCH   3   4
ATOM      4  C   LIG    1       26.203 -15.697   3.800  0.00  0.00    -0.011 C 
BRANCH   4   5
ATOM      5  C   LIG    1       27.354 -14.768   3.362  0.00  0.00    -0.000 C 
ATOM      6  C   LIG    1       27.704 -13.642   4.327  0.00  0.00    +0.004 C 
ENDBRANCH   4   5
BRANCH   4   7
ATOM      7  C   LIG    1       24.814 -15.216   3.348  0.00  0.00    +0.003 C 
BRANCH   7   8
ATOM      8  C   LIG    1       24.138 -14.314   4.392  0.00  0.00    -0.000 C 
BRANCH   8  10
ATOM      9  C   LIG    1       24.345 -12.749   2.447  0.00  0.00    +0.004 C 
ATOM     10  C   LIG    1       24.112 -12.855   3.946  0.00  0.00    -0.003 C 
ENDBRANCH   8  10
ENDBRANCH   7   8
ENDBRANCH   4   7
ENDBRANCH   3   4
ENDBRANCH   2   3
ENDBRANCH   1   2
BRANCH   1  11
ATOM     11  C   LIG    1       26.589 -19.853   4.710  0.00  0.00    +0.037 C 
BRANCH  11  12
ATOM     12  C   LIG    1       27.075 -20.124   6.163  0.00  0.00    -0.015 C 
ATOM     13  C   LIG    1       28.609 -20.295   6.252  0.00  0.00    +0.007 C 
ATOM     14  C   LIG    1       26.466 -21.397   6.746  0.00  0.00    +0.007 C 
ENDBRANCH  11  12
ENDBRANCH   1  11
BRANCH   1  15
ATOM     15  O   LIG    1       24.178 -20.030   4.310  0.00  0.00    -0.212 OA
BRANCH  15  16
ATOM     16  S   LIG    1       22.788 -20.003   5.155  0.00  0.00    +0.208 S 
ATOM     17  O   LIG    1       21.981 -18.886   4.703  0.00  0.00    -0.118 OA
ATOM     18  O   LIG    1       23.100 -20.217   6.524  0.00  0.00    -0.118 OA
BRANCH  16  19
ATOM     19  O   LIG    1       22.046 -21.362   4.688  0.00  0.00    -0.231 OA
ATOM     20  H   LIG    1       22.743 -21.993   4.396  0.00  0.00    +0.247 HD
ENDBRANCH  16  19
ENDBRANCH  15  16
ENDBRANCH   1  15
TORSDOF 12
ENDMDL
MODEL 4
REMARK VINA RESULT:      -4.9      1.499      2.806
REMARK  Name = *****
REMARK                            x       y       z     vdW  Elec       q    Type
REMARK                         _______ _______ _______ _____ _____    ______ ____
ROOT
ATOM      1  C   LIG    1       24.246 -14.753   4.071  0.00  0.00    +0.152 C 
ENDROOT
BRANCH   1   2
ATOM      2  C   LIG    1       23.334 -15.984   4.355  0.00  0.00    +0.034 C 
BRANCH   2   3
ATOM      3  C   LIG    1       24.063 -17.305   4.014  0.00  0.00    +0.006 C 
BRANCH   3   4
ATOM      4  C   LIG    1       23.232 -18.595   3.844  0.00  0.00    -0.011 C 
BRANCH   4   5
ATOM      5  C   LIG    1       24.105 -19.753   3.315  0.00  0.00    -0.000 C 
ATOM      6  C   LIG    1       25.606 -19.610   3.538  0.00  0.00    +0.004 C 
ENDBRANCH   4   5
BRANCH   4   7
ATOM      7  C   LIG    1       22.431 -18.953   5.107  0.00  0.00    +0.003 C 
BRANCH   7   8
ATOM      8  C   LIG    1       22.655 -20.407   5.550  0.00  0.00    -0.000 C 
BRANCH   8  10
ATOM      9  C   LIG    1       24.713 -20.872   6.901  0.00  0.00    +0.004 C 
ATOM     10  C   LIG    1       23.244 -20.485   6.956  0.00  0.00    -0.003 C 
ENDBRANCH   8  10
ENDBRANCH   7   8
ENDBRANCH   4   7
ENDBRANCH   3   4
ENDBRANCH   2   3
ENDBRANCH   1   2
BRANCH   1  11
ATOM     11  C   LIG    1       23.555 -13.763   3.065  0.00  0.00    +0.037 C 
BRANCH  11  12
ATOM     12  C   LIG    1       23.768 -12.236   3.270  0.00  0.00    -0.015 C 
ATOM     13  C   LIG    1       24.876 -11.664   2.355  0.00  0.00    +0.007 C 
ATOM     14  C   LIG    1       24.178 -11.900   4.703  0.00  0.00    +0.007 C 
ENDBRANCH  11  12
ENDBRANCH   1  11
BRANCH   1  15
ATOM     15  O   LIG    1       25.476 -15.214   3.521  0.00  0.00    -0.212 OA
BRANCH  15  16
ATOM     16  S   LIG    1       26.911 -14.523   3.853  0.00  0.00    +0.208 S 
ATOM     17  O   LIG    1       26.811 -13.799   5.104  0.00  0.00    -0.118 OA
ATOM     18  O   LIG    1       27.399 -13.926   2.660  0.00  0.00    -0.118 OA
BRANCH  16  19
ATOM     19  O   LIG    1       27.883 -15.793   4.100  0.00  0.00    -0.231 OA
ATOM     20  H   LIG    1       27.761 -16.409   3.342  0.00  0.00    +0.247 HD
ENDBRANCH  16  19
ENDBRANCH  15  16
ENDBRANCH   1  15
TORSDOF 12
ENDMDL
MODEL 5
REMARK VINA RESULT:      -4.8      3.553      6.088
REMARK  Name = *****
REMARK                            x       y       z     vdW  Elec       q    Type
REMARK                         _______ _______ _______ _____ _____    ______ ____
ROOT
ATOM      1  C   LIG    1       25.395 -18.750   3.591  0.00  0.00    +0.152 C 
ENDROOT
BRANCH   1   2
ATOM      2  C   LIG    1       25.185 -17.235   3.295  0.00  0.00    +0.034 C 
BRANCH   2   3
ATOM      3  C   LIG    1       26.527 -16.468   3.354  0.00  0.00    +0.006 C 
BRANCH   3   4
ATOM      4  C   LIG    1       26.506 -14.943   3.593  0.00  0.00    -0.011 C 
BRANCH   4   5
ATOM      5  C   LIG    1       27.761 -14.483   4.365  0.00  0.00    -0.000 C 
ATOM      6  C   LIG    1       28.459 -13.242   3.822  0.00  0.00    +0.004 C 
ENDBRANCH   4   5
BRANCH   4   7
ATOM      7  C   LIG    1       26.249 -14.146   2.302  0.00  0.00    +0.003 C 
BRANCH   7   8
ATOM      8  C   LIG    1       24.960 -13.313   2.375  0.00  0.00    -0.000 C 
BRANCH   8  10
ATOM      9  C   LIG    1       24.106 -12.376   4.535  0.00  0.00    +0.004 C 
ATOM     10  C   LIG    1       24.169 -13.608   3.645  0.00  0.00    -0.003 C 
ENDBRANCH   8  10
ENDBRANCH   7   8
ENDBRANCH   4   7
ENDBRANCH   3   4
ENDBRANCH   2   3
ENDBRANCH   1   2
BRANCH   1  11
ATOM     11  C   LIG    1       24.029 -19.527   3.532  0.00  0.00    +0.037 C 
BRANCH  11  12
ATOM     12  C   LIG    1       22.994 -19.283   4.668  0.00  0.00    -0.015 C 
ATOM     13  C   LIG    1       22.280 -20.582   5.108  0.00  0.00    +0.007 C 
ATOM     14  C   LIG    1       21.894 -18.310   4.245  0.00  0.00    +0.007 C 
ENDBRANCH  11  12
ENDBRANCH   1  11
BRANCH   1  15
ATOM     15  O   LIG    1       25.968 -18.887   4.887  0.00  0.00    -0.212 OA
BRANCH  15  16
ATOM     16  S   LIG    1       26.421 -20.320   5.511  0.00  0.00    +0.208 S 
ATOM     17  O   LIG    1       25.754 -21.384   4.787  0.00  0.00    -0.118 OA
ATOM     18  O   LIG    1       26.380 -20.216   6.928  0.00  0.00    -0.118 OA
BRANCH  16  19
ATOM     19  O   LIG    1       27.996 -20.397   5.153  0.00  0.00    -0.231 OA
ATOM     20  H   LIG    1       28.359 -19.485   5.219  0.00  0.00    +0.247 HD
ENDBRANCH  16  19
ENDBRANCH  15  16
ENDBRANCH   1  15
TORSDOF 12
ENDMDL
MODEL 6
REMARK VINA RESULT:      -4.8      2.333      3.000
REMARK  Name = *****
REMARK                            x       y       z     vdW  Elec       q    Type
REMARK                         _______ _______ _______ _____ _____    ______ ____
ROOT
ATOM      1  C   LIG    1       26.375 -15.262   3.312  0.00  0.00    +0.152 C 
ENDROOT
BRANCH   1   2
ATOM      2  C   LIG    1       26.707 -16.756   3.606  0.00  0.00    +0.034 C 
BRANCH   2   3
ATOM      3  C   LIG    1       25.505 -17.668   3.267  0.00  0.00    +0.006 C 
BRANCH   3   4
ATOM      4  C   LIG    1       25.631 -19.189   3.505  0.00  0.00    -0.011 C 
BRANCH   4   5
ATOM      5  C   LIG    1       26.557 -19.490   4.702  0.00  0.00    -0.000 C 
ATOM      6  C   LIG    1       26.023 -20.488   5.723  0.00  0.00    +0.004 C 
ENDBRANCH   4   5
BRANCH   4   7
ATOM      7  C   LIG    1       24.264 -19.889   3.591  0.00  0.00    +0.003 C 
BRANCH   7   8
ATOM      8  C   LIG    1       23.135 -18.922   3.980  0.00  0.00    -0.000 C 
BRANCH   8  10
ATOM      9  C   LIG    1       22.391 -20.920   5.297  0.00  0.00    +0.004 C 
ATOM     10  C   LIG    1       22.385 -19.401   5.220  0.00  0.00    -0.003 C 
ENDBRANCH   8  10
ENDBRANCH   7   8
ENDBRANCH   4   7
ENDBRANCH   3   4
ENDBRANCH   2   3
ENDBRANCH   1   2
BRANCH   1  11
ATOM     11  C   LIG    1       27.679 -14.384   3.325  0.00  0.00    +0.037 C 
BRANCH  11  12
ATOM     12  C   LIG    1       27.699 -13.109   4.216  0.00  0.00    -0.015 C 
ATOM     13  C   LIG    1       29.041 -12.346   4.128  0.00  0.00    +0.007 C 
ATOM     14  C   LIG    1       27.486 -13.435   5.693  0.00  0.00    +0.007 C 
ENDBRANCH  11  12
ENDBRANCH   1  11
BRANCH   1  15
ATOM     15  O   LIG    1       25.470 -14.792   4.305  0.00  0.00    -0.212 OA
BRANCH  15  16
ATOM     16  S   LIG    1       24.103 -13.985   3.952  0.00  0.00    +0.208 S 
ATOM     17  O   LIG    1       24.079 -12.742   4.699  0.00  0.00    -0.118 OA
ATOM     18  O   LIG    1       23.026 -14.911   3.973  0.00  0.00    -0.118 OA
BRANCH  16  19
ATOM     19  O   LIG    1       24.289 -13.611   2.389  0.00  0.00    -0.231 OA
ATOM     20  H   LIG    1       24.321 -12.629   2.323  0.00  0.00    +0.247 HD
ENDBRANCH  16  19
ENDBRANCH  15  16
ENDBRANCH   1  15
TORSDOF 12
ENDMDL
MODEL 7
REMARK VINA RESULT:      -4.8      3.872      6.604
REMARK  Name = *****
REMARK                            x       y       z     vdW  Elec       q    Type
REMARK                         _______ _______ _______ _____ _____    ______ ____
ROOT
ATOM      1  C   LIG    1       24.861 -18.745   3.999  0.00  0.00    +0.152 C 
ENDROOT
BRANCH   1   2
ATOM      2  C   LIG    1       25.748 -17.887   3.048  0.00  0.00    +0.034 C 
BRANCH   2   3
ATOM      3  C   LIG    1       26.090 -16.522   3.691  0.00  0.00    +0.006 C 
BRANCH   3   4
ATOM      4  C   LIG    1       25.525 -15.234   3.054  0.00  0.00    -0.011 C 
BRANCH   4   5
ATOM      5  C   LIG    1       24.409 -14.624   3.928  0.00  0.00    -0.000 C 
ATOM      6  C   LIG    1       24.087 -13.157   3.668  0.00  0.00    +0.004 C 
ENDBRANCH   4   5
BRANCH   4   7
ATOM      7  C   LIG    1       26.627 -14.231   2.673  0.00  0.00    +0.003 C 
BRANCH   7   8
ATOM      8  C   LIG    1       27.813 -14.266   3.648  0.00  0.00    -0.000 C 
BRANCH   8  10
ATOM      9  C   LIG    1       27.095 -13.422   5.895  0.00  0.00    +0.004 C 
ATOM     10  C   LIG    1       27.800 -13.069   4.595  0.00  0.00    -0.003 C 
ENDBRANCH   8  10
ENDBRANCH   7   8
ENDBRANCH   4   7
ENDBRANCH   3   4
ENDBRANCH   2   3
ENDBRANCH   1   2
BRANCH   1  11
ATOM     11  C   LIG    1       25.394 -20.222   4.082  0.00  0.00    +0.037 C 
BRANCH  11  12
ATOM     12  C   LIG    1       26.180 -20.650   5.354  0.00  0.00    -0.015 C 
ATOM     13  C   LIG    1       25.330 -20.540   6.641  0.00  0.00    +0.007 C 
ATOM     14  C   LIG    1       27.420 -19.788   5.583  0.00  0.00    +0.007 C 
ENDBRANCH  11  12
ENDBRANCH   1  11
BRANCH   1  15
ATOM     15  O   LIG    1       23.527 -18.745   3.503  0.00  0.00    -0.212 OA
BRANCH  15  16
ATOM     16  S   LIG    1       22.223 -18.579   4.460  0.00  0.00    +0.208 S 
ATOM     17  O   LIG    1       22.414 -19.367   5.663  0.00  0.00    -0.118 OA
ATOM     18  O   LIG    1       21.062 -18.692   3.649  0.00  0.00    -0.118 OA
BRANCH  16  19
ATOM     19  O   LIG    1       22.273 -17.019   4.885  0.00  0.00    -0.231 OA
ATOM     20  H   LIG    1       23.100 -16.880   5.399  0.00  0.00    +0.247 HD
ENDBRANCH  16  19
ENDBRANCH  15  16
ENDBRANCH   1  15
TORSDOF 12
ENDMDL
MODEL 8
REMARK VINA RESULT:      -4.6      3.918      6.263
REMARK  Name = *****
REMARK                            x       y       z     vdW  Elec       q    Type
REMARK                         _______ _______ _______ _____ _____    ______ ____
ROOT
ATOM      1  C   LIG    1       25.385 -18.903   3.737  0.00  0.00    +0.152 C 
ENDROOT
BRANCH   1   2
ATOM      2  C   LIG    1       26.401 -17.747   3.495  0.00  0.00    +0.034 C 
BRANCH   2   3
ATOM      3  C   LIG    1       25.670 -16.432   3.137  0.00  0.00    +0.006 C 
BRANCH   3   4
ATOM      4  C   LIG    1       26.117 -15.119   3.816  0.00  0.00    -0.011 C 
BRANCH   4   5
ATOM      5  C   LIG    1       27.085 -14.327   2.912  0.00  0.00    -0.000 C 
ATOM      6  C   LIG    1       28.016 -13.354   3.625  0.00  0.00    +0.004 C 
ENDBRANCH   4   5
BRANCH   4   7
ATOM      7  C   LIG    1       24.931 -14.286   4.329  0.00  0.00    +0.003 C 
BRANCH   7   8
ATOM      8  C   LIG    1       24.071 -13.724   3.187  0.00  0.00    -0.000 C 
BRANCH   8  10
ATOM      9  C   LIG    1       23.910 -11.744   4.714  0.00  0.00    +0.004 C 
ATOM     10  C   LIG    1       23.952 -12.205   3.265  0.00  0.00    -0.003 C 
ENDBRANCH   8  10
ENDBRANCH   7   8
ENDBRANCH   4   7
ENDBRANCH   3   4
ENDBRANCH   2   3
ENDBRANCH   1   2
BRANCH   1  11
ATOM     11  C   LIG    1       23.918 -18.435   3.418  0.00  0.00    +0.037 C 
BRANCH  11  12
ATOM     12  C   LIG    1       22.885 -18.410   4.581  0.00  0.00    -0.015 C 
ATOM     13  C   LIG    1       21.821 -19.525   4.453  0.00  0.00    +0.007 C 
ATOM     14  C   LIG    1       22.118 -17.090   4.642  0.00  0.00    +0.007 C 
ENDBRANCH  11  12
ENDBRANCH   1  11
BRANCH   1  15
ATOM     15  O   LIG    1       25.473 -19.310   5.098  0.00  0.00    -0.212 OA
BRANCH  15  16
ATOM     16  S   LIG    1       25.290 -20.854   5.577  0.00  0.00    +0.208 S 
ATOM     17  O   LIG    1       26.523 -21.310   6.187  0.00  0.00    -0.118 OA
ATOM     18  O   LIG    1       24.644 -21.567   4.531  0.00  0.00    -0.118 OA
BRANCH  16  19
ATOM     19  O   LIG    1       24.177 -20.748   6.746  0.00  0.00    -0.231 OA
ATOM     20  H   LIG    1       23.341 -21.128   6.393  0.00  0.00    +0.247 HD
ENDBRANCH  16  19
ENDBRANCH  15  16
ENDBRANCH   1  15
TORSDOF 12
ENDMDL
MODEL 9
REMARK VINA RESULT:      -4.5      3.705      6.217
REMARK  Name = *****
REMARK                            x       y       z     vdW  Elec       q    Type
REMARK                         _______ _______ _______ _____ _____    ______ ____
ROOT
ATOM      1  C   LIG    1       25.529 -19.398   3.891  0.00  0.00    +0.152 C 
ENDROOT
BRANCH   1   2
ATOM      2  C   LIG    1       26.096 -18.063   3.320  0.00  0.00    +0.034 C 
BRANCH   2   3
ATOM      3  C   LIG    1       25.176 -16.873   3.679  0.00  0.00    +0.006 C 
BRANCH   3   4
ATOM      4  C   LIG    1       25.621 -15.444   3.297  0.00  0.00    -0.011 C 
BRANCH   4   5
ATOM      5  C   LIG    1       24.720 -14.384   3.966  0.00  0.00    -0.000 C 
ATOM      6  C   LIG    1       23.349 -14.868   4.423  0.00  0.00    +0.004 C 
ENDBRANCH   4   5
BRANCH   4   7
ATOM      7  C   LIG    1       27.123 -15.211   3.528  0.00  0.00    +0.003 C 
BRANCH   7   8
ATOM      8  C   LIG    1       27.594 -13.849   2.993  0.00  0.00    -0.000 C 
BRANCH   8  10
ATOM      9  C   LIG    1       27.654 -13.104   5.384  0.00  0.00    +0.004 C 
ATOM     10  C   LIG    1       28.375 -13.069   4.046  0.00  0.00    -0.003 C 
ENDBRANCH   8  10
ENDBRANCH   7   8
ENDBRANCH   4   7
ENDBRANCH   3   4
ENDBRANCH   2   3
ENDBRANCH   1   2
BRANCH   1  11
ATOM     11  C   LIG    1       23.996 -19.537   3.574  0.00  0.00    +0.037 C 
BRANCH  11  12
ATOM     12  C   LIG    1       22.985 -19.375   4.745  0.00  0.00    -0.015 C 
ATOM     13  C   LIG    1       22.352 -20.720   5.172  0.00  0.00    +0.007 C 
ATOM     14  C   LIG    1       21.824 -18.451   4.381  0.00  0.00    +0.007 C 
ENDBRANCH  11  12
ENDBRANCH   1  11
BRANCH   1  15
ATOM     15  O   LIG    1       25.731 -19.414   5.300  0.00  0.00    -0.212 OA
BRANCH  15  16
ATOM     16  S   LIG    1       26.929 -20.249   6.017  0.00  0.00    +0.208 S 
ATOM     17  O   LIG    1       26.444 -21.571   6.362  0.00  0.00    -0.118 OA
ATOM     18  O   LIG    1       27.559 -19.394   6.960  0.00  0.00    -0.118 OA
BRANCH  16  19
ATOM     19  O   LIG    1       28.018 -20.422   4.833  0.00  0.00    -0.231 OA
ATOM     20  H   LIG    1       28.081 -19.560   4.362  0.00  0.00    +0.247 HD
ENDBRANCH  16  19
ENDBRANCH  15  16
ENDBRANCH   1  15
TORSDOF 12
ENDMDL
