MODEL 1
REMARK VINA RESULT:      -4.6      0.000      0.000
REMARK  Name = *****
REMARK                            x       y       z     vdW  Elec       q    Type
REMARK                         _______ _______ _______ _____ _____    ______ ____
ROOT
ATOM      1  C   LIG    1       26.121 -14.566   3.091  0.00  0.00    +0.010 A 
ATOM      2  C   LIG    1       27.157 -13.933   3.782  0.00  0.00    +0.121 A 
ATOM      3  C   LIG    1       28.137 -14.672   4.442  0.00  0.00    +0.047 A 
ATOM      4  C   LIG    1       28.086 -16.069   4.431  0.00  0.00    +0.027 A 
ATOM      5  C   LIG    1       27.079 -16.749   3.746  0.00  0.00    +0.032 A 
ATOM      6  C   LIG    1       26.136 -15.976   3.039  0.00  0.00    +0.031 A 
ENDROOT
BRANCH   2   7
ATOM      7  O   LIG    1       27.206 -12.567   3.816  0.00  0.00    -0.506 OA
ATOM      8  H   LIG    1       28.106 -12.280   3.589  0.00  0.00    +0.292 HD
ENDBRANCH   2   7
BRANCH   5   9
ATOM      9  N   LIG    1       26.968 -18.155   3.698  0.00  0.00    -0.314 N 
ATOM     10  H   LIG    1       27.276 -18.514   2.802  0.00  0.00    +0.152 HD
BRANCH   9  11
ATOM     11  C   LIG    1       26.585 -19.157   4.622  0.00  0.00    +0.042 A 
ATOM     12  C   LIG    1       25.251 -19.689   4.632  0.00  0.00    +0.022 A 
ATOM     13  C   LIG    1       24.972 -20.746   5.528  0.00  0.00    +0.074 A 
ATOM     14  C   LIG    1       23.708 -21.316   5.577  0.00  0.00    +0.048 A 
ATOM     15  C   LIG    1       22.677 -20.840   4.776  0.00  0.00    +0.043 A 
ATOM     16  C   LIG    1       22.906 -19.799   3.893  0.00  0.00    +0.021 A 
ATOM     17 CL   LIG    1       21.107 -21.534   4.903  0.00  0.00    -0.084 Cl
ATOM     18  N   LIG    1       25.876 -21.251   6.380  0.00  0.00    -0.255 NA
ATOM     19  C   LIG    1       27.103 -20.707   6.380  0.00  0.00    +0.113 A 
ATOM     20  C   LIG    1       24.181 -19.232   3.810  0.00  0.00    +0.013 A 
ATOM     21  C   LIG    1       27.497 -19.688   5.539  0.00  0.00    +0.043 A 
ENDBRANCH   9  11
ENDBRANCH   5   9
BRANCH   1  22
ATOM     22  C   LIG    1       25.056 -13.748   2.375  0.00  0.00    +0.123 C 
BRANCH  22  23
ATOM     23  N   LIG    1       23.862 -13.370   3.178  0.00  0.00    -0.299 NA
BRANCH  23  25
ATOM     24  C   LIG    1       23.001 -15.430   4.438  0.00  0.00    +0.020 C 
ATOM     25  C   LIG    1       23.753 -14.104   4.450  0.00  0.00    +0.081 C 
ENDBRANCH  23  25
BRANCH  23  26
ATOM     26  C   LIG    1       23.835 -11.904   3.347  0.00  0.00    +0.081 C 
ATOM     27  C   LIG    1       23.839 -11.450   4.803  0.00  0.00    +0.020 C 
ENDBRANCH  23  26
ENDBRANCH  22  23
ENDBRANCH   1  22
TORSDOF 7
ENDMDL
MODEL 2
REMARK VINA RESULT:      -4.0      3.200      6.554
REMARK  Name = *****
REMARK                            x       y       z     vdW  Elec       q    Type
REMARK                         _______ _______ _______ _____ _____    ______ ____
ROOT
ATOM      1  C   LIG    1       25.187 -19.859   4.141  0.00  0.00    +0.010 A 
ATOM      2  C   LIG    1       26.198 -20.346   4.974  0.00  0.00    +0.121 A 
ATOM      3  C   LIG    1       27.355 -19.605   5.209  0.00  0.00    +0.047 A 
ATOM      4  C   LIG    1       27.524 -18.359   4.597  0.00  0.00    +0.027 A 
ATOM      5  C   LIG    1       26.540 -17.824   3.767  0.00  0.00    +0.032 A 
ATOM      6  C   LIG    1       25.355 -18.570   3.595  0.00  0.00    +0.031 A 
ENDROOT
BRANCH   2   7
ATOM      7  O   LIG    1       26.052 -21.572   5.562  0.00  0.00    -0.506 OA
ATOM      8  H   LIG    1       26.306 -22.258   4.923  0.00  0.00    +0.292 HD
ENDBRANCH   2   7
BRANCH   5   9
ATOM      9  N   LIG    1       26.648 -16.577   3.116  0.00  0.00    -0.314 N 
ATOM     10  H   LIG    1       26.439 -16.662   2.128  0.00  0.00    +0.152 HD
BRANCH   9  11
ATOM     11  C   LIG    1       26.918 -15.252   3.538  0.00  0.00    +0.042 A 
ATOM     12  C   LIG    1       25.867 -14.392   4.006  0.00  0.00    +0.022 A 
ATOM     13  C   LIG    1       26.231 -13.114   4.488  0.00  0.00    +0.074 A 
ATOM     14  C   LIG    1       25.267 -12.240   4.969  0.00  0.00    +0.048 A 
ATOM     15  C   LIG    1       23.919 -12.582   4.955  0.00  0.00    +0.043 A 
ATOM     16  C   LIG    1       23.521 -13.820   4.481  0.00  0.00    +0.021 A 
ATOM     17 CL   LIG    1       22.746 -11.451   5.508  0.00  0.00    -0.084 Cl
ATOM     18  N   LIG    1       27.492 -12.660   4.503  0.00  0.00    -0.255 NA
ATOM     19  C   LIG    1       28.450 -13.468   4.021  0.00  0.00    +0.113 A 
ATOM     20  C   LIG    1       24.482 -14.724   4.019  0.00  0.00    +0.013 A 
ATOM     21  C   LIG    1       28.219 -14.741   3.544  0.00  0.00    +0.043 A 
ENDBRANCH   9  11
ENDBRANCH   5   9
BRANCH   1  22
ATOM     22  C   LIG    1       23.929 -20.679   3.892  0.00  0.00    +0.123 C 
BRANCH  22  23
ATOM     23  N   LIG    1       22.716 -20.276   4.654  0.00  0.00    -0.299 NA
BRANCH  23  25
ATOM     24  C   LIG    1       23.202 -21.259   6.972  0.00  0.00    +0.020 C 
ATOM     25  C   LIG    1       22.972 -20.040   6.085  0.00  0.00    +0.081 C 
ENDBRANCH  23  25
BRANCH  23  26
ATOM     26  C   LIG    1       22.078 -19.129   3.980  0.00  0.00    +0.081 C 
ATOM     27  C   LIG    1       22.237 -17.807   4.725  0.00  0.00    +0.020 C 
ENDBRANCH  23  26
ENDBRANCH  22  23
ENDBRANCH   1  22
TORSDOF 7
ENDMDL
MODEL 3
REMARK VINA RESULT:      -3.7      2.371      4.036
REMARK  Name = *****
REMARK                            x       y       z     vdW  Elec       q    Type
REMARK                         _______ _______ _______ _____ _____    ______ ____
ROOT
ATOM      1  C   LIG    1       24.873 -14.895   3.359  0.00  0.00    +0.010 A 
ATOM      2  C   LIG    1       23.872 -14.221   4.065  0.00  0.00    +0.121 A 
ATOM      3  C   LIG    1       22.846 -14.918   4.700  0.00  0.00    +0.047 A 
ATOM      4  C   LIG    1       22.799 -16.314   4.627  0.00  0.00    +0.027 A 
ATOM      5  C   LIG    1       23.780 -17.033   3.945  0.00  0.00    +0.032 A 
ATOM      6  C   LIG    1       24.837 -16.305   3.362  0.00  0.00    +0.031 A 
ENDROOT
BRANCH   2   7
ATOM      7  O   LIG    1       23.897 -12.855   4.126  0.00  0.00    -0.506 OA
ATOM      8  H   LIG    1       23.089 -12.508   3.712  0.00  0.00    +0.292 HD
ENDBRANCH   2   7
BRANCH   5   9
ATOM      9  N   LIG    1       23.790 -18.440   3.830  0.00  0.00    -0.314 N 
ATOM     10  H   LIG    1       23.745 -18.726   2.859  0.00  0.00    +0.152 HD
BRANCH   9  11
ATOM     11  C   LIG    1       23.907 -19.515   4.744  0.00  0.00    +0.042 A 
ATOM     12  C   LIG    1       25.186 -19.910   5.267  0.00  0.00    +0.022 A 
ATOM     13  C   LIG    1       25.208 -20.936   6.239  0.00  0.00    +0.074 A 
ATOM     14  C   LIG    1       26.408 -21.353   6.797  0.00  0.00    +0.048 A 
ATOM     15  C   LIG    1       27.618 -20.803   6.389  0.00  0.00    +0.043 A 
ATOM     16  C   LIG    1       27.639 -19.803   5.432  0.00  0.00    +0.021 A 
ATOM     17 CL   LIG    1       29.090 -21.385   7.062  0.00  0.00    -0.084 Cl
ATOM     18  N   LIG    1       24.109 -21.571   6.670  0.00  0.00    -0.255 NA
ATOM     19  C   LIG    1       22.933 -21.212   6.134  0.00  0.00    +0.113 A 
ATOM     20  C   LIG    1       26.437 -19.349   4.880  0.00  0.00    +0.013 A 
ATOM     21  C   LIG    1       22.783 -20.213   5.196  0.00  0.00    +0.043 A 
ENDBRANCH   9  11
ENDBRANCH   5   9
BRANCH   1  22
ATOM     22  C   LIG    1       25.986 -14.122   2.669  0.00  0.00    +0.123 C 
BRANCH  22  23
ATOM     23  N   LIG    1       27.296 -14.078   3.374  0.00  0.00    -0.299 NA
BRANCH  23  25
ATOM     24  C   LIG    1       29.339 -12.636   3.939  0.00  0.00    +0.020 C 
ATOM     25  C   LIG    1       27.984 -12.781   3.256  0.00  0.00    +0.081 C 
ENDBRANCH  23  25
BRANCH  23  26
ATOM     26  C   LIG    1       27.110 -14.514   4.771  0.00  0.00    +0.081 C 
ATOM     27  C   LIG    1       26.997 -13.364   5.768  0.00  0.00    +0.020 C 
ENDBRANCH  23  26
ENDBRANCH  22  23
ENDBRANCH   1  22
TORSDOF 7
ENDMDL
MODEL 4
REMARK VINA RESULT:      -2.8      1.441      2.175
REMARK  Name = *****
REMARK                            x       y       z     vdW  Elec       q    Type
REMARK                         _______ _______ _______ _____ _____    ______ ____
ROOT
ATOM      1  C   LIG    1       26.664 -15.708   3.333  0.00  0.00    +0.010 A 
ATOM      2  C   LIG    1       27.847 -15.397   4.009  0.00  0.00    +0.121 A 
ATOM      3  C   LIG    1       28.554 -16.373   4.709  0.00  0.00    +0.047 A 
ATOM      4  C   LIG    1       28.074 -17.686   4.755  0.00  0.00    +0.027 A 
ATOM      5  C   LIG    1       26.905 -18.050   4.088  0.00  0.00    +0.032 A 
ATOM      6  C   LIG    1       26.244 -17.055   3.340  0.00  0.00    +0.031 A 
ENDROOT
BRANCH   2   7
ATOM      7  O   LIG    1       28.314 -14.112   3.988  0.00  0.00    -0.506 OA
ATOM      8  H   LIG    1       29.127 -14.065   4.519  0.00  0.00    +0.292 HD
ENDBRANCH   2   7
BRANCH   5   9
ATOM      9  N   LIG    1       26.365 -19.354   4.096  0.00  0.00    -0.314 N 
ATOM     10  H   LIG    1       26.890 -19.969   3.485  0.00  0.00    +0.152 HD
BRANCH   9  11
ATOM     11  C   LIG    1       25.314 -19.994   4.797  0.00  0.00    +0.042 A 
ATOM     12  C   LIG    1       23.938 -19.733   4.472  0.00  0.00    +0.022 A 
ATOM     13  C   LIG    1       22.951 -20.474   5.160  0.00  0.00    +0.074 A 
ATOM     14  C   LIG    1       21.605 -20.283   4.883  0.00  0.00    +0.048 A 
ATOM     15  C   LIG    1       21.192 -19.336   3.954  0.00  0.00    +0.043 A 
ATOM     16  C   LIG    1       22.127 -18.582   3.267  0.00  0.00    +0.021 A 
ATOM     17 CL   LIG    1       19.512 -19.087   3.677  0.00  0.00    -0.084 Cl
ATOM     18  N   LIG    1       23.231 -21.378   6.110  0.00  0.00    -0.255 NA
ATOM     19  C   LIG    1       24.522 -21.571   6.423  0.00  0.00    +0.113 A 
ATOM     20  C   LIG    1       23.490 -18.781   3.512  0.00  0.00    +0.013 A 
ATOM     21  C   LIG    1       25.572 -20.923   5.808  0.00  0.00    +0.043 A 
ENDBRANCH   9  11
ENDBRANCH   5   9
BRANCH   1  22
ATOM     22  C   LIG    1       25.902 -14.633   2.574  0.00  0.00    +0.123 C 
BRANCH  22  23
ATOM     23  N   LIG    1       25.619 -13.374   3.315  0.00  0.00    -0.299 NA
BRANCH  23  25
ATOM     24  C   LIG    1       23.803 -11.601   2.954  0.00  0.00    +0.020 C 
ATOM     25  C   LIG    1       25.065 -12.305   2.468  0.00  0.00    +0.081 C 
ENDBRANCH  23  25
BRANCH  23  26
ATOM     26  C   LIG    1       24.780 -13.681   4.490  0.00  0.00    +0.081 C 
ATOM     27  C   LIG    1       23.606 -14.606   4.186  0.00  0.00    +0.020 C 
ENDBRANCH  23  26
ENDBRANCH  22  23
ENDBRANCH   1  22
TORSDOF 7
ENDMDL
