MODEL 1
REMARK VINA RESULT:       0.7      0.000      0.000
REMARK  Name = *****
REMARK                            x       y       z     vdW  Elec       q    Type
REMARK                         _______ _______ _______ _____ _____    ______ ____
ROOT
ATOM      1  N   LIG    1       27.228 -19.137   6.059  0.00  0.00    -0.302 NA
ATOM      2  C   LIG    1       26.432 -19.023   4.833  0.00  0.00    +0.085 C 
ATOM      3  C   LIG    1       26.188 -20.360   4.130  0.00  0.00    +0.025 C 
ATOM      4  C   LIG    1       25.478 -21.369   5.051  0.00  0.00    +0.044 C 
ATOM      5  C   LIG    1       26.298 -21.479   6.351  0.00  0.00    +0.025 C 
ATOM      6  C   LIG    1       26.593 -20.106   6.978  0.00  0.00    +0.085 C 
ENDROOT
BRANCH   4   7
ATOM      7  C   LIG    1       24.008 -21.057   5.257  0.00  0.00    +0.095 A 
ATOM      8  C   LIG    1       23.145 -20.266   4.441  0.00  0.00    +0.045 A 
ATOM      9  C   LIG    1       21.926 -20.312   5.099  0.00  0.00    +0.170 A 
ATOM     10  C   LIG    1       20.772 -19.658   4.678  0.00  0.00    +0.088 A 
ATOM     11  C   LIG    1       20.896 -18.913   3.508  0.00  0.00    +0.127 A 
ATOM     12  C   LIG    1       22.094 -18.838   2.801  0.00  0.00    +0.039 A 
ATOM     13  F   LIG    1       19.828 -18.248   3.046  0.00  0.00    -0.205 F 
ATOM     14  O   LIG    1       22.042 -21.092   6.202  0.00  0.00    -0.354 OA
ATOM     15  C   LIG    1       23.234 -19.519   3.251  0.00  0.00    +0.016 A 
ATOM     16  N   LIG    1       23.333 -21.572   6.297  0.00  0.00    -0.082 NA
ENDBRANCH   4   7
BRANCH   1  17
ATOM     17  C   LIG    1       28.673 -19.400   5.888  0.00  0.00    +0.088 C 
BRANCH  17  18
ATOM     18  C   LIG    1       29.475 -18.279   5.207  0.00  0.00    +0.056 C 
BRANCH  18  19
ATOM     19  C   LIG    1       28.727 -16.938   5.129  0.00  0.00    +0.230 C 
BRANCH  19  20
ATOM     20  O   LIG    1       28.134 -16.702   3.844  0.00  0.00    -0.488 OA
BRANCH  20  22
ATOM     21  C   LIG    1       27.627 -14.350   3.937  0.00  0.00    +0.162 A 
ATOM     22  C   LIG    1       27.203 -15.685   3.815  0.00  0.00    +0.162 A 
ATOM     23  C   LIG    1       25.826 -15.936   3.664  0.00  0.00    +0.050 A 
ATOM     24  C   LIG    1       24.911 -14.890   3.516  0.00  0.00    +0.015 A 
ATOM     25  C   LIG    1       25.332 -13.567   3.624  0.00  0.00    +0.021 A 
ATOM     26  C   LIG    1       26.697 -13.308   3.867  0.00  0.00    +0.060 A 
BRANCH  25  27
ATOM     27  C   LIG    1       24.355 -12.461   3.473  0.00  0.00    +0.160 C 
ATOM     28  O   LIG    1       23.633 -12.128   4.431  0.00  0.00    -0.292 OA
ATOM     29  C   LIG    1       24.265 -11.797   2.110  0.00  0.00    +0.091 C 
ENDBRANCH  25  27
BRANCH  21  31
ATOM     30  C   LIG    1       29.122 -12.519   3.787  0.00  0.00    +0.277 C 
ATOM     31  O   LIG    1       28.901 -13.879   4.121  0.00  0.00    -0.491 OA
ENDBRANCH  21  31
ENDBRANCH  20  22
ENDBRANCH  19  20
ENDBRANCH  18  19
ENDBRANCH  17  18
ENDBRANCH   1  17
TORSDOF 8
ENDMDL
MODEL 2
REMARK VINA RESULT:       2.8      2.279      3.913
REMARK  Name = *****
REMARK                            x       y       z     vdW  Elec       q    Type
REMARK                         _______ _______ _______ _____ _____    ______ ____
ROOT
ATOM      1  N   LIG    1       27.177 -15.649   4.252  0.00  0.00    -0.302 NA
ATOM      2  C   LIG    1       26.120 -16.492   3.687  0.00  0.00    +0.085 C 
ATOM      3  C   LIG    1       26.644 -17.733   2.962  0.00  0.00    +0.025 C 
ATOM      4  C   LIG    1       27.496 -18.618   3.888  0.00  0.00    +0.044 C 
ATOM      5  C   LIG    1       28.598 -17.734   4.502  0.00  0.00    +0.025 C 
ATOM      6  C   LIG    1       28.035 -16.455   5.146  0.00  0.00    +0.085 C 
ENDROOT
BRANCH   4   7
ATOM      7  C   LIG    1       26.672 -19.393   4.899  0.00  0.00    +0.095 A 
ATOM      8  C   LIG    1       25.330 -19.861   4.778  0.00  0.00    +0.045 A 
ATOM      9  C   LIG    1       25.083 -20.490   5.988  0.00  0.00    +0.170 A 
ATOM     10  C   LIG    1       23.877 -21.087   6.340  0.00  0.00    +0.088 A 
ATOM     11  C   LIG    1       22.871 -21.024   5.380  0.00  0.00    +0.127 A 
ATOM     12  C   LIG    1       23.065 -20.412   4.143  0.00  0.00    +0.039 A 
ATOM     13  F   LIG    1       21.678 -21.571   5.651  0.00  0.00    -0.205 F 
ATOM     14  O   LIG    1       26.197 -20.430   6.758  0.00  0.00    -0.354 OA
ATOM     15  C   LIG    1       24.299 -19.829   3.819  0.00  0.00    +0.016 A 
ATOM     16  N   LIG    1       27.196 -19.762   6.078  0.00  0.00    -0.082 NA
ENDBRANCH   4   7
BRANCH   1  17
ATOM     17  C   LIG    1       27.970 -14.849   3.294  0.00  0.00    +0.088 C 
BRANCH  17  18
ATOM     18  C   LIG    1       27.158 -14.070   2.247  0.00  0.00    +0.056 C 
BRANCH  18  19
ATOM     19  C   LIG    1       27.048 -12.565   2.537  0.00  0.00    +0.230 C 
BRANCH  19  20
ATOM     20  O   LIG    1       25.695 -12.131   2.737  0.00  0.00    -0.488 OA
BRANCH  20  22
ATOM     21  C   LIG    1       24.964 -13.183   4.775  0.00  0.00    +0.162 A 
ATOM     22  C   LIG    1       24.884 -13.044   3.379  0.00  0.00    +0.162 A 
ATOM     23  C   LIG    1       23.966 -13.851   2.680  0.00  0.00    +0.050 A 
ATOM     24  C   LIG    1       23.070 -14.682   3.357  0.00  0.00    +0.015 A 
ATOM     25  C   LIG    1       23.139 -14.810   4.742  0.00  0.00    +0.021 A 
ATOM     26  C   LIG    1       24.117 -14.074   5.443  0.00  0.00    +0.060 A 
BRANCH  25  27
ATOM     27  C   LIG    1       22.191 -15.699   5.454  0.00  0.00    +0.160 C 
ATOM     28  O   LIG    1       21.622 -15.308   6.491  0.00  0.00    -0.292 OA
ATOM     29  C   LIG    1       21.981 -17.091   4.881  0.00  0.00    +0.091 C 
ENDBRANCH  25  27
BRANCH  21  31
ATOM     30  C   LIG    1       26.818 -13.311   6.244  0.00  0.00    +0.277 C 
ATOM     31  O   LIG    1       25.797 -12.530   5.646  0.00  0.00    -0.491 OA
ENDBRANCH  21  31
ENDBRANCH  20  22
ENDBRANCH  19  20
ENDBRANCH  18  19
ENDBRANCH  17  18
ENDBRANCH   1  17
TORSDOF 8
ENDMDL
