MODEL 1
REMARK VINA RESULT:      -4.5      0.000      0.000
REMARK  Name = *****
REMARK                            x       y       z     vdW  Elec       q    Type
REMARK                         _______ _______ _______ _____ _____    ______ ____
ROOT
ATOM      1  CA  LIG    1       26.152 -13.876   4.217  0.00  0.00    +0.176 C 
ENDROOT
BRANCH   1   3
ATOM      2  C   LIG    1       24.326 -12.291   5.013  0.00  0.00    +0.024 C 
ATOM      3  C   LIG    1       24.693 -13.377   3.983  0.00  0.00    +0.034 C 
ATOM      4  C   LIG    1       23.686 -14.532   4.104  0.00  0.00    +0.024 C 
BRANCH   3   5
ATOM      5  S   LIG    1       24.497 -12.600   2.310  0.00  0.00    -0.170 S 
ATOM      6  H   LIG    1       23.374 -11.916   2.583  0.00  0.00    +0.102 HD
ENDBRANCH   3   5
ENDBRANCH   1   3
BRANCH   1   7
ATOM      7  N   LIG    1       26.823 -13.223   5.371  0.00  0.00    -0.317 NA
ATOM      8  H1  LIG    1       27.066 -13.934   6.064  0.00  0.00    +0.119 HD
ATOM      9  H2  LIG    1       27.692 -12.775   5.084  0.00  0.00    +0.119 HD
ENDBRANCH   1   7
BRANCH   1  10
ATOM     10  C   LIG    1       27.054 -13.767   2.969  0.00  0.00    +0.323 C 
ATOM     11  O   LIG    1       26.894 -14.431   1.956  0.00  0.00    -0.249 OA
BRANCH  10  12
ATOM     12  OXT LIG    1       28.098 -12.916   3.109  0.00  0.00    -0.479 OA
ATOM     13  HXT LIG    1       28.870 -13.345   3.534  0.00  0.00    +0.295 HD
ENDBRANCH  10  12
ENDBRANCH   1  10
TORSDOF 5
ENDMDL
MODEL 2
REMARK VINA RESULT:      -4.3      1.756      2.046
REMARK  Name = *****
REMARK                            x       y       z     vdW  Elec       q    Type
REMARK                         _______ _______ _______ _____ _____    ______ ____
ROOT
ATOM      1  CA  LIG    1       26.577 -13.392   3.005  0.00  0.00    +0.176 C 
ENDROOT
BRANCH   1   3
ATOM      2  C   LIG    1       25.627 -12.982   5.331  0.00  0.00    +0.024 C 
ATOM      3  C   LIG    1       25.289 -13.395   3.886  0.00  0.00    +0.034 C 
ATOM      4  C   LIG    1       24.637 -14.786   3.909  0.00  0.00    +0.024 C 
BRANCH   3   5
ATOM      5  S   LIG    1       24.039 -12.171   3.270  0.00  0.00    -0.170 S 
ATOM      6  H   LIG    1       23.490 -12.962   2.333  0.00  0.00    +0.102 HD
ENDBRANCH   3   5
ENDBRANCH   1   3
BRANCH   1   7
ATOM      7  N   LIG    1       26.480 -14.272   1.812  0.00  0.00    -0.317 NA
ATOM      8  H1  LIG    1       25.842 -13.849   1.134  0.00  0.00    +0.119 HD
ATOM      9  H2  LIG    1       27.384 -14.368   1.354  0.00  0.00    +0.119 HD
ENDBRANCH   1   7
BRANCH   1  10
ATOM     10  C   LIG    1       27.866 -13.727   3.787  0.00  0.00    +0.323 C 
ATOM     11  O   LIG    1       28.720 -12.901   4.071  0.00  0.00    -0.249 OA
BRANCH  10  12
ATOM     12  OXT LIG    1       28.015 -15.041   4.077  0.00  0.00    -0.479 OA
ATOM     13  HXT LIG    1       28.529 -15.181   4.900  0.00  0.00    +0.295 HD
ENDBRANCH  10  12
ENDBRANCH   1  10
TORSDOF 5
ENDMDL
MODEL 3
REMARK VINA RESULT:      -4.3      1.086      1.496
REMARK  Name = *****
REMARK                            x       y       z     vdW  Elec       q    Type
REMARK                         _______ _______ _______ _____ _____    ______ ____
ROOT
ATOM      1  CA  LIG    1       26.087 -13.871   4.161  0.00  0.00    +0.176 C 
ENDROOT
BRANCH   1   3
ATOM      2  C   LIG    1       23.629 -14.536   4.169  0.00  0.00    +0.024 C 
ATOM      3  C   LIG    1       24.624 -13.391   3.902  0.00  0.00    +0.034 C 
ATOM      4  C   LIG    1       24.447 -12.910   2.454  0.00  0.00    +0.024 C 
BRANCH   3   5
ATOM      5  S   LIG    1       24.149 -12.007   5.042  0.00  0.00    -0.170 S 
ATOM      6  H   LIG    1       23.049 -11.622   4.374  0.00  0.00    +0.102 HD
ENDBRANCH   3   5
ENDBRANCH   1   3
BRANCH   1   7
ATOM      7  N   LIG    1       26.726 -13.216   5.331  0.00  0.00    -0.317 NA
ATOM      8  H1  LIG    1       27.710 -13.490   5.373  0.00  0.00    +0.119 HD
ATOM      9  H2  LIG    1       26.701 -12.202   5.242  0.00  0.00    +0.119 HD
ENDBRANCH   1   7
BRANCH   1  10
ATOM     10  C   LIG    1       27.010 -13.740   2.930  0.00  0.00    +0.323 C 
ATOM     11  O   LIG    1       26.890 -14.413   1.918  0.00  0.00    -0.249 OA
BRANCH  10  12
ATOM     12  OXT LIG    1       28.025 -12.858   3.088  0.00  0.00    -0.479 OA
ATOM     13  HXT LIG    1       27.860 -12.233   3.825  0.00  0.00    +0.295 HD
ENDBRANCH  10  12
ENDBRANCH   1  10
TORSDOF 5
ENDMDL
MODEL 4
REMARK VINA RESULT:      -4.2      1.162      1.583
REMARK  Name = *****
REMARK                            x       y       z     vdW  Elec       q    Type
REMARK                         _______ _______ _______ _____ _____    ______ ____
ROOT
ATOM      1  CA  LIG    1       26.141 -13.876   4.194  0.00  0.00    +0.176 C 
ENDROOT
BRANCH   1   3
ATOM      2  C   LIG    1       24.437 -12.935   2.553  0.00  0.00    +0.024 C 
ATOM      3  C   LIG    1       24.663 -13.415   3.999  0.00  0.00    +0.034 C 
ATOM      4  C   LIG    1       24.309 -12.269   4.960  0.00  0.00    +0.024 C 
BRANCH   3   5
ATOM      5  S   LIG    1       23.471 -14.807   4.282  0.00  0.00    -0.170 S 
ATOM      6  H   LIG    1       23.975 -15.638   3.355  0.00  0.00    +0.102 HD
ENDBRANCH   3   5
ENDBRANCH   1   3
BRANCH   1   7
ATOM      7  N   LIG    1       26.821 -13.215   5.338  0.00  0.00    -0.317 NA
ATOM      8  H1  LIG    1       26.509 -13.648   6.210  0.00  0.00    +0.119 HD
ATOM      9  H2  LIG    1       27.830 -13.340   5.285  0.00  0.00    +0.119 HD
ENDBRANCH   1   7
BRANCH   1  10
ATOM     10  C   LIG    1       27.010 -13.731   2.926  0.00  0.00    +0.323 C 
ATOM     11  O   LIG    1       26.863 -14.411   1.922  0.00  0.00    -0.249 OA
BRANCH  10  12
ATOM     12  OXT LIG    1       28.012 -12.827   3.038  0.00  0.00    -0.479 OA
ATOM     13  HXT LIG    1       28.864 -13.248   3.278  0.00  0.00    +0.295 HD
ENDBRANCH  10  12
ENDBRANCH   1  10
TORSDOF 5
ENDMDL
MODEL 5
REMARK VINA RESULT:      -3.9      6.488      7.213
REMARK  Name = *****
REMARK                            x       y       z     vdW  Elec       q    Type
REMARK                         _______ _______ _______ _____ _____    ______ ____
ROOT
ATOM      1  CA  LIG    1       23.841 -20.115   3.565  0.00  0.00    +0.176 C 
ENDROOT
BRANCH   1   3
ATOM      2  C   LIG    1       21.693 -20.940   4.655  0.00  0.00    +0.024 C 
ATOM      3  C   LIG    1       22.891 -19.981   4.795  0.00  0.00    +0.034 C 
ATOM      4  C   LIG    1       22.361 -18.545   4.932  0.00  0.00    +0.024 C 
BRANCH   3   5
ATOM      5  S   LIG    1       23.749 -20.442   6.374  0.00  0.00    -0.170 S 
ATOM      6  H   LIG    1       23.007 -19.674   7.188  0.00  0.00    +0.102 HD
ENDBRANCH   3   5
ENDBRANCH   1   3
BRANCH   1   7
ATOM      7  N   LIG    1       24.023 -21.517   3.108  0.00  0.00    -0.317 NA
ATOM      8  H1  LIG    1       23.166 -21.835   2.650  0.00  0.00    +0.119 HD
ATOM      9  H2  LIG    1       24.772 -21.584   2.421  0.00  0.00    +0.119 HD
ENDBRANCH   1   7
BRANCH   1  10
ATOM     10  C   LIG    1       25.223 -19.459   3.772  0.00  0.00    +0.323 C 
ATOM     11  O   LIG    1       25.457 -18.282   3.539  0.00  0.00    -0.249 OA
BRANCH  10  12
ATOM     12  OXT LIG    1       26.192 -20.316   4.172  0.00  0.00    -0.479 OA
ATOM     13  HXT LIG    1       26.973 -19.848   4.535  0.00  0.00    +0.295 HD
ENDBRANCH  10  12
ENDBRANCH   1  10
TORSDOF 5
ENDMDL
MODEL 6
REMARK VINA RESULT:      -3.9      2.015      2.602
REMARK  Name = *****
REMARK                            x       y       z     vdW  Elec       q    Type
REMARK                         _______ _______ _______ _____ _____    ______ ____
ROOT
ATOM      1  CA  LIG    1       27.205 -13.793   4.864  0.00  0.00    +0.176 C 
ENDROOT
BRANCH   1   3
ATOM      2  C   LIG    1       26.514 -15.592   3.201  0.00  0.00    +0.024 C 
ATOM      3  C   LIG    1       26.245 -14.156   3.689  0.00  0.00    +0.034 C 
ATOM      4  C   LIG    1       26.425 -13.191   2.507  0.00  0.00    +0.024 C 
BRANCH   3   5
ATOM      5  S   LIG    1       24.468 -14.108   4.220  0.00  0.00    -0.170 S 
ATOM      6  H   LIG    1       24.550 -12.981   4.947  0.00  0.00    +0.102 HD
ENDBRANCH   3   5
ENDBRANCH   1   3
BRANCH   1   7
ATOM      7  N   LIG    1       26.536 -13.063   5.971  0.00  0.00    -0.317 NA
ATOM      8  H1  LIG    1       26.348 -12.102   5.675  0.00  0.00    +0.119 HD
ATOM      9  H2  LIG    1       25.638 -13.486   6.199  0.00  0.00    +0.119 HD
ENDBRANCH   1   7
BRANCH   1  10
ATOM     10  C   LIG    1       28.463 -13.014   4.421  0.00  0.00    +0.323 C 
ATOM     11  O   LIG    1       29.150 -13.326   3.460  0.00  0.00    -0.249 OA
BRANCH  10  12
ATOM     12  OXT LIG    1       28.793 -11.982   5.234  0.00  0.00    -0.479 OA
ATOM     13  HXT LIG    1       28.020 -11.640   5.729  0.00  0.00    +0.295 HD
ENDBRANCH  10  12
ENDBRANCH   1  10
TORSDOF 5
ENDMDL
MODEL 7
REMARK VINA RESULT:      -3.8      2.710      3.454
REMARK  Name = *****
REMARK                            x       y       z     vdW  Elec       q    Type
REMARK                         _______ _______ _______ _____ _____    ______ ____
ROOT
ATOM      1  CA  LIG    1       24.610 -13.614   4.203  0.00  0.00    +0.176 C 
ENDROOT
BRANCH   1   3
ATOM      2  C   LIG    1       26.942 -13.583   5.224  0.00  0.00    +0.024 C 
ATOM      3  C   LIG    1       26.131 -13.842   3.940  0.00  0.00    +0.034 C 
ATOM      4  C   LIG    1       26.648 -12.911   2.833  0.00  0.00    +0.024 C 
BRANCH   3   5
ATOM      5  S   LIG    1       26.482 -15.595   3.443  0.00  0.00    -0.170 S 
ATOM      6  H   LIG    1       26.560 -16.099   4.686  0.00  0.00    +0.102 HD
ENDBRANCH   3   5
ENDBRANCH   1   3
BRANCH   1   7
ATOM      7  N   LIG    1       23.812 -14.867   4.187  0.00  0.00    -0.317 NA
ATOM      8  H1  LIG    1       24.436 -15.664   4.333  0.00  0.00    +0.119 HD
ATOM      9  H2  LIG    1       23.132 -14.877   4.945  0.00  0.00    +0.119 HD
ENDBRANCH   1   7
BRANCH   1  10
ATOM     10  C   LIG    1       23.964 -12.581   3.254  0.00  0.00    +0.323 C 
ATOM     11  O   LIG    1       23.653 -11.449   3.595  0.00  0.00    -0.249 OA
BRANCH  10  12
ATOM     12  OXT LIG    1       23.697 -13.055   2.014  0.00  0.00    -0.479 OA
ATOM     13  HXT LIG    1       23.037 -13.779   2.030  0.00  0.00    +0.295 HD
ENDBRANCH  10  12
ENDBRANCH   1  10
TORSDOF 5
ENDMDL
MODEL 8
REMARK VINA RESULT:      -3.8      2.796      3.462
REMARK  Name = *****
REMARK                            x       y       z     vdW  Elec       q    Type
REMARK                         _______ _______ _______ _____ _____    ______ ____
ROOT
ATOM      1  CA  LIG    1       24.587 -13.639   4.130  0.00  0.00    +0.176 C 
ENDROOT
BRANCH   1   3
ATOM      2  C   LIG    1       26.583 -13.124   2.635  0.00  0.00    +0.024 C 
ATOM      3  C   LIG    1       26.077 -13.977   3.815  0.00  0.00    +0.034 C 
ATOM      4  C   LIG    1       26.246 -15.462   3.459  0.00  0.00    +0.024 C 
BRANCH   3   5
ATOM      5  S   LIG    1       27.183 -13.589   5.253  0.00  0.00    -0.170 S 
ATOM      6  H   LIG    1       27.330 -12.280   4.992  0.00  0.00    +0.102 HD
ENDBRANCH   3   5
ENDBRANCH   1   3
BRANCH   1   7
ATOM      7  N   LIG    1       23.703 -14.833   4.160  0.00  0.00    -0.317 NA
ATOM      8  H1  LIG    1       23.132 -14.850   3.312  0.00  0.00    +0.119 HD
ATOM      9  H2  LIG    1       24.250 -15.692   4.170  0.00  0.00    +0.119 HD
ENDBRANCH   1   7
BRANCH   1  10
ATOM     10  C   LIG    1       23.979 -12.573   3.192  0.00  0.00    +0.323 C 
ATOM     11  O   LIG    1       23.674 -11.447   3.554  0.00  0.00    -0.249 OA
BRANCH  10  12
ATOM     12  OXT LIG    1       23.740 -13.011   1.933  0.00  0.00    -0.479 OA
ATOM     13  HXT LIG    1       24.222 -13.840   1.733  0.00  0.00    +0.295 HD
ENDBRANCH  10  12
ENDBRANCH   1  10
TORSDOF 5
ENDMDL
MODEL 9
REMARK VINA RESULT:      -3.5      2.772      3.465
REMARK  Name = *****
REMARK                            x       y       z     vdW  Elec       q    Type
REMARK                         _______ _______ _______ _____ _____    ______ ____
ROOT
ATOM      1  CA  LIG    1       25.643 -13.671   3.005  0.00  0.00    +0.176 C 
ENDROOT
BRANCH   1   3
ATOM      2  C   LIG    1       27.162 -15.528   3.857  0.00  0.00    +0.024 C 
ATOM      3  C   LIG    1       26.842 -14.024   3.940  0.00  0.00    +0.034 C 
ATOM      4  C   LIG    1       26.529 -13.665   5.401  0.00  0.00    +0.024 C 
BRANCH   3   5
ATOM      5  S   LIG    1       28.387 -13.130   3.434  0.00  0.00    -0.170 S 
ATOM      6  H   LIG    1       27.781 -12.070   2.875  0.00  0.00    +0.102 HD
ENDBRANCH   3   5
ENDBRANCH   1   3
BRANCH   1   7
ATOM      7  N   LIG    1       25.852 -12.428   2.218  0.00  0.00    -0.317 NA
ATOM      8  H1  LIG    1       25.358 -11.657   2.672  0.00  0.00    +0.119 HD
ATOM      9  H2  LIG    1       26.838 -12.176   2.188  0.00  0.00    +0.119 HD
ENDBRANCH   1   7
BRANCH   1  10
ATOM     10  C   LIG    1       24.286 -13.594   3.737  0.00  0.00    +0.323 C 
ATOM     11  O   LIG    1       23.640 -14.575   4.074  0.00  0.00    -0.249 OA
BRANCH  10  12
ATOM     12  OXT LIG    1       23.822 -12.335   3.917  0.00  0.00    -0.479 OA
ATOM     13  HXT LIG    1       22.844 -12.307   3.976  0.00  0.00    +0.295 HD
ENDBRANCH  10  12
ENDBRANCH   1  10
TORSDOF 5
ENDMDL
