MODEL 1
REMARK VINA RESULT:      -5.1      0.000      0.000
REMARK  Name = *****
REMARK                            x       y       z     vdW  Elec       q    Type
REMARK                         _______ _______ _______ _____ _____    ______ ____
ROOT
ATOM      1  C   LIG    1       24.362 -30.134  11.925  0.00  0.00    +0.060 A 
ATOM      2  C   LIG    1       25.026 -29.791  10.716  0.00  0.00    +0.040 A 
ATOM      3  I   LIG    1       26.693 -28.406  10.886  0.00  0.00    -0.042 I 
ATOM      4  C   LIG    1       24.808 -30.508   9.504  0.00  0.00    -0.018 A 
ATOM      5  C   LIG    1       23.967 -31.643   9.596  0.00  0.00    +0.019 A 
ATOM      6  I   LIG    1       23.442 -32.857   7.948  0.00  0.00    -0.043 I 
ATOM      7  C   LIG    1       23.448 -32.082  10.828  0.00  0.00    +0.030 A 
ATOM      8  C   LIG    1       23.657 -31.339  11.985  0.00  0.00    +0.037 A 
ATOM      9  I   LIG    1       22.873 -32.090  13.789  0.00  0.00    -0.042 I 
ENDROOT
BRANCH   1  11
ATOM     10  C   LIG    1       23.356 -28.364  13.271  0.00  0.00    +0.217 C 
ATOM     11  N   LIG    1       24.370 -29.299  13.077  0.00  0.00    -0.284 N 
ATOM     12  H   LIG    1       24.668 -29.754  13.934  0.00  0.00    +0.155 HD
ATOM     13  O   LIG    1       22.438 -28.151  12.486  0.00  0.00    -0.276 OA
BRANCH  10  14
ATOM     14  C   LIG    1       23.502 -27.613  14.584  0.00  0.00    +0.096 C 
BRANCH  14  16
ATOM     15  C   LIG    1       24.968 -25.774  13.638  0.00  0.00    +0.004 C 
ATOM     16  C   LIG    1       23.690 -26.109  14.393  0.00  0.00    +0.006 C 
ENDBRANCH  14  16
ENDBRANCH  10  14
ENDBRANCH   1  11
BRANCH   4  17
ATOM     17  C   LIG    1       25.478 -30.114   8.186  0.00  0.00    +0.052 C 
BRANCH  17  18
ATOM     18  C   LIG    1       24.746 -29.083   7.292  0.00  0.00    +0.102 C 
BRANCH  18  19
ATOM     19  C   LIG    1       24.481 -29.749   5.937  0.00  0.00    +0.308 C 
ATOM     20  O   LIG    1       25.367 -30.205   5.239  0.00  0.00    -0.251 OA
BRANCH  19  21
ATOM     21  O   LIG    1       23.190 -29.741   5.521  0.00  0.00    -0.480 OA
ATOM     22  H   LIG    1       22.522 -29.995   6.178  0.00  0.00    +0.295 HD
ENDBRANCH  19  21
ENDBRANCH  18  19
BRANCH  18  23
ATOM     23  C   LIG    1       25.456 -27.727   7.175  0.00  0.00    +0.011 C 
ATOM     24  C   LIG    1       24.740 -26.723   6.275  0.00  0.00    +0.004 C 
ENDBRANCH  18  23
ENDBRANCH  17  18
ENDBRANCH   4  17
TORSDOF 8
ENDMDL
MODEL 2
REMARK VINA RESULT:      -4.5      9.448     11.381
REMARK  Name = *****
REMARK                            x       y       z     vdW  Elec       q    Type
REMARK                         _______ _______ _______ _____ _____    ______ ____
ROOT
ATOM      1  C   LIG    1       29.594 -19.918   7.392  0.00  0.00    +0.060 A 
ATOM      2  C   LIG    1       28.524 -19.583   6.518  0.00  0.00    +0.040 A 
ATOM      3  I   LIG    1       28.932 -18.051   5.031  0.00  0.00    -0.042 I 
ATOM      4  C   LIG    1       27.346 -20.380   6.425  0.00  0.00    -0.018 A 
ATOM      5  C   LIG    1       27.345 -21.577   7.180  0.00  0.00    +0.019 A 
ATOM      6  I   LIG    1       25.714 -22.918   7.258  0.00  0.00    -0.043 I 
ATOM      7  C   LIG    1       28.472 -21.994   7.910  0.00  0.00    +0.030 A 
ATOM      8  C   LIG    1       29.594 -21.175   8.003  0.00  0.00    +0.037 A 
ATOM      9  I   LIG    1       31.248 -21.894   9.088  0.00  0.00    -0.042 I 
ENDROOT
BRANCH   1  11
ATOM     10  C   LIG    1       30.617 -18.233   8.831  0.00  0.00    +0.217 C 
ATOM     11  N   LIG    1       30.662 -19.025   7.687  0.00  0.00    -0.284 N 
ATOM     12  H   LIG    1       31.589 -19.383   7.481  0.00  0.00    +0.155 HD
ATOM     13  O   LIG    1       29.681 -18.197   9.624  0.00  0.00    -0.276 OA
BRANCH  10  14
ATOM     14  C   LIG    1       31.872 -17.394   9.008  0.00  0.00    +0.096 C 
BRANCH  14  16
ATOM     15  C   LIG    1       33.025 -15.642  10.430  0.00  0.00    +0.004 C 
ATOM     16  C   LIG    1       31.949 -16.717  10.374  0.00  0.00    +0.006 C 
ENDBRANCH  14  16
ENDBRANCH  10  14
ENDBRANCH   1  11
BRANCH   4  17
ATOM     17  C   LIG    1       26.168 -20.000   5.526  0.00  0.00    +0.052 C 
BRANCH  17  18
ATOM     18  C   LIG    1       24.936 -20.938   5.527  0.00  0.00    +0.102 C 
BRANCH  18  19
ATOM     19  C   LIG    1       24.554 -21.206   4.068  0.00  0.00    +0.308 C 
ATOM     20  O   LIG    1       24.609 -20.352   3.202  0.00  0.00    -0.251 OA
BRANCH  19  21
ATOM     21  O   LIG    1       24.078 -22.447   3.803  0.00  0.00    -0.480 OA
ATOM     22  H   LIG    1       24.048 -23.068   4.549  0.00  0.00    +0.295 HD
ENDBRANCH  19  21
ENDBRANCH  18  19
BRANCH  18  23
ATOM     23  C   LIG    1       23.761 -20.442   6.383  0.00  0.00    +0.011 C 
ATOM     24  C   LIG    1       22.643 -19.780   5.584  0.00  0.00    +0.004 C 
ENDBRANCH  18  23
ENDBRANCH  17  18
ENDBRANCH   4  17
TORSDOF 8
ENDMDL
MODEL 3
REMARK VINA RESULT:      -4.3      9.579     12.316
REMARK  Name = *****
REMARK                            x       y       z     vdW  Elec       q    Type
REMARK                         _______ _______ _______ _____ _____    ______ ____
ROOT
ATOM      1  C   LIG    1       27.379 -20.763   6.037  0.00  0.00    +0.060 A 
ATOM      2  C   LIG    1       28.472 -19.857   6.105  0.00  0.00    +0.040 A 
ATOM      3  I   LIG    1       28.208 -17.943   5.110  0.00  0.00    -0.042 I 
ATOM      4  C   LIG    1       29.567 -20.060   6.995  0.00  0.00    -0.018 A 
ATOM      5  C   LIG    1       29.456 -21.162   7.876  0.00  0.00    +0.019 A 
ATOM      6  I   LIG    1       30.950 -21.716   9.265  0.00  0.00    -0.043 I 
ATOM      7  C   LIG    1       28.296 -21.957   7.926  0.00  0.00    +0.030 A 
ATOM      8  C   LIG    1       27.260 -21.748   7.021  0.00  0.00    +0.037 A 
ATOM      9  I   LIG    1       25.549 -22.962   7.191  0.00  0.00    -0.042 I 
ENDROOT
BRANCH   1  11
ATOM     10  C   LIG    1       25.104 -20.309   5.280  0.00  0.00    +0.217 C 
ATOM     11  N   LIG    1       26.404 -20.722   5.002  0.00  0.00    -0.284 N 
ATOM     12  H   LIG    1       26.746 -20.396   4.104  0.00  0.00    +0.155 HD
ATOM     13  O   LIG    1       24.687 -20.004   6.393  0.00  0.00    -0.276 OA
BRANCH  10  14
ATOM     14  C   LIG    1       24.227 -20.270   4.039  0.00  0.00    +0.096 C 
BRANCH  14  16
ATOM     15  C   LIG    1       22.371 -18.612   4.519  0.00  0.00    +0.004 C 
ATOM     16  C   LIG    1       22.747 -20.079   4.360  0.00  0.00    +0.006 C 
ENDBRANCH  14  16
ENDBRANCH  10  14
ENDBRANCH   1  11
BRANCH   4  17
ATOM     17  C   LIG    1       30.772 -19.119   7.040  0.00  0.00    +0.052 C 
BRANCH  17  18
ATOM     18  C   LIG    1       30.702 -17.913   8.009  0.00  0.00    +0.102 C 
BRANCH  18  19
ATOM     19  C   LIG    1       32.075 -17.771   8.675  0.00  0.00    +0.308 C 
ATOM     20  O   LIG    1       32.599 -18.669   9.309  0.00  0.00    -0.251 OA
BRANCH  19  21
ATOM     21  O   LIG    1       32.653 -16.549   8.576  0.00  0.00    -0.480 OA
ATOM     22  H   LIG    1       33.172 -16.252   9.342  0.00  0.00    +0.295 HD
ENDBRANCH  19  21
ENDBRANCH  18  19
BRANCH  18  23
ATOM     23  C   LIG    1       29.542 -17.972   9.013  0.00  0.00    +0.011 C 
ATOM     24  C   LIG    1       29.893 -17.452  10.404  0.00  0.00    +0.004 C 
ENDBRANCH  18  23
ENDBRANCH  17  18
ENDBRANCH   4  17
TORSDOF 8
ENDMDL
MODEL 4
REMARK VINA RESULT:      -4.3      3.529      5.185
REMARK  Name = *****
REMARK                            x       y       z     vdW  Elec       q    Type
REMARK                         _______ _______ _______ _____ _____    ______ ____
ROOT
ATOM      1  C   LIG    1       21.473 -29.427  12.290  0.00  0.00    +0.060 A 
ATOM      2  C   LIG    1       22.502 -30.223  11.716  0.00  0.00    +0.040 A 
ATOM      3  I   LIG    1       21.873 -31.738  10.290  0.00  0.00    -0.042 I 
ATOM      4  C   LIG    1       23.880 -29.882  11.842  0.00  0.00    -0.018 A 
ATOM      5  C   LIG    1       24.160 -28.654  12.487  0.00  0.00    +0.019 A 
ATOM      6  I   LIG    1       26.112 -27.929  12.844  0.00  0.00    -0.043 I 
ATOM      7  C   LIG    1       23.135 -27.784  12.902  0.00  0.00    +0.030 A 
ATOM      8  C   LIG    1       21.801 -28.164  12.790  0.00  0.00    +0.037 A 
ATOM      9  I   LIG    1       20.333 -26.787  13.404  0.00  0.00    -0.042 I 
ENDROOT
BRANCH   1  11
ATOM     10  C   LIG    1       19.727 -30.674  13.453  0.00  0.00    +0.217 C 
ATOM     11  N   LIG    1       20.123 -29.864  12.392  0.00  0.00    -0.284 N 
ATOM     12  H   LIG    1       19.428 -29.170  12.134  0.00  0.00    +0.155 HD
ATOM     13  O   LIG    1       20.475 -31.104  14.325  0.00  0.00    -0.276 OA
BRANCH  10  14
ATOM     14  C   LIG    1       18.239 -30.983  13.425  0.00  0.00    +0.096 C 
BRANCH  14  16
ATOM     15  C   LIG    1       18.170 -32.867  11.731  0.00  0.00    +0.004 C 
ATOM     16  C   LIG    1       17.751 -31.440  12.052  0.00  0.00    +0.006 C 
ENDBRANCH  14  16
ENDBRANCH  10  14
ENDBRANCH   1  11
BRANCH   4  17
ATOM     17  C   LIG    1       24.997 -30.759  11.272  0.00  0.00    +0.052 C 
BRANCH  17  18
ATOM     18  C   LIG    1       25.481 -30.454   9.832  0.00  0.00    +0.102 C 
BRANCH  18  19
ATOM     19  C   LIG    1       26.964 -30.076   9.911  0.00  0.00    +0.308 C 
ATOM     20  O   LIG    1       27.766 -30.683  10.597  0.00  0.00    -0.251 OA
BRANCH  19  21
ATOM     21  O   LIG    1       27.327 -28.969   9.218  0.00  0.00    -0.480 OA
ATOM     22  H   LIG    1       27.848 -29.114   8.411  0.00  0.00    +0.295 HD
ENDBRANCH  19  21
ENDBRANCH  18  19
BRANCH  18  23
ATOM     23  C   LIG    1       24.629 -29.420   9.081  0.00  0.00    +0.011 C 
ATOM     24  C   LIG    1       24.296 -29.812   7.645  0.00  0.00    +0.004 C 
ENDBRANCH  18  23
ENDBRANCH  17  18
ENDBRANCH   4  17
TORSDOF 8
ENDMDL
MODEL 5
REMARK VINA RESULT:      -4.3      3.352      4.350
REMARK  Name = *****
REMARK                            x       y       z     vdW  Elec       q    Type
REMARK                         _______ _______ _______ _____ _____    ______ ____
ROOT
ATOM      1  C   LIG    1       21.573 -30.015  12.700  0.00  0.00    +0.060 A 
ATOM      2  C   LIG    1       22.982 -29.855  12.800  0.00  0.00    +0.040 A 
ATOM      3  I   LIG    1       23.761 -29.342  14.764  0.00  0.00    -0.042 I 
ATOM      4  C   LIG    1       23.865 -30.270  11.762  0.00  0.00    -0.018 A 
ATOM      5  C   LIG    1       23.268 -30.940  10.668  0.00  0.00    +0.019 A 
ATOM      6  I   LIG    1       24.337 -31.621   8.977  0.00  0.00    -0.043 I 
ATOM      7  C   LIG    1       21.896 -31.250  10.649  0.00  0.00    +0.030 A 
ATOM      8  C   LIG    1       21.058 -30.802  11.666  0.00  0.00    +0.037 A 
ATOM      9  I   LIG    1       19.026 -31.343  11.574  0.00  0.00    -0.042 I 
ENDROOT
BRANCH   1  11
ATOM     10  C   LIG    1       20.366 -28.041  13.477  0.00  0.00    +0.217 C 
ATOM     11  N   LIG    1       20.658 -29.398  13.597  0.00  0.00    -0.284 N 
ATOM     12  H   LIG    1       19.851 -29.962  13.842  0.00  0.00    +0.155 HD
ATOM     13  O   LIG    1       20.880 -27.282  12.661  0.00  0.00    -0.276 OA
BRANCH  10  14
ATOM     14  C   LIG    1       19.323 -27.580  14.481  0.00  0.00    +0.096 C 
BRANCH  14  16
ATOM     15  C   LIG    1       17.105 -26.375  14.249  0.00  0.00    +0.004 C 
ATOM     16  C   LIG    1       18.612 -26.296  14.055  0.00  0.00    +0.006 C 
ENDBRANCH  14  16
ENDBRANCH  10  14
ENDBRANCH   1  11
BRANCH   4  17
ATOM     17  C   LIG    1       25.378 -30.055  11.839  0.00  0.00    +0.052 C 
BRANCH  17  18
ATOM     18  C   LIG    1       25.959 -28.801  11.139  0.00  0.00    +0.102 C 
BRANCH  18  19
ATOM     19  C   LIG    1       27.082 -29.267  10.206  0.00  0.00    +0.308 C 
ATOM     20  O   LIG    1       27.929 -30.073  10.542  0.00  0.00    -0.251 OA
BRANCH  19  21
ATOM     21  O   LIG    1       27.121 -28.670   8.989  0.00  0.00    -0.480 OA
ATOM     22  H   LIG    1       26.940 -29.238   8.222  0.00  0.00    +0.295 HD
ENDBRANCH  19  21
ENDBRANCH  18  19
BRANCH  18  23
ATOM     23  C   LIG    1       26.389 -27.681  12.097  0.00  0.00    +0.011 C 
ATOM     24  C   LIG    1       27.273 -28.151  13.249  0.00  0.00    +0.004 C 
ENDBRANCH  18  23
ENDBRANCH  17  18
ENDBRANCH   4  17
TORSDOF 8
ENDMDL
MODEL 6
REMARK VINA RESULT:      -4.3      3.568      5.483
REMARK  Name = *****
REMARK                            x       y       z     vdW  Elec       q    Type
REMARK                         _______ _______ _______ _____ _____    ______ ____
ROOT
ATOM      1  C   LIG    1       21.518 -28.923  12.369  0.00  0.00    +0.060 A 
ATOM      2  C   LIG    1       22.719 -29.571  11.972  0.00  0.00    +0.040 A 
ATOM      3  I   LIG    1       22.542 -31.063  10.400  0.00  0.00    -0.042 I 
ATOM      4  C   LIG    1       24.002 -29.093  12.368  0.00  0.00    -0.018 A 
ATOM      5  C   LIG    1       24.015 -27.880  13.097  0.00  0.00    +0.019 A 
ATOM      6  I   LIG    1       25.772 -26.973  13.843  0.00  0.00    -0.043 I 
ATOM      7  C   LIG    1       22.838 -27.150  13.341  0.00  0.00    +0.030 A 
ATOM      8  C   LIG    1       21.600 -27.663  12.966  0.00  0.00    +0.037 A 
ATOM      9  I   LIG    1       19.895 -26.486  13.340  0.00  0.00    -0.042 I 
ENDROOT
BRANCH   1  11
ATOM     10  C   LIG    1       19.732 -30.392  13.149  0.00  0.00    +0.217 C 
ATOM     11  N   LIG    1       20.231 -29.506  12.198  0.00  0.00    -0.284 N 
ATOM     12  H   LIG    1       19.525 -28.883  11.818  0.00  0.00    +0.155 HD
ATOM     13  O   LIG    1       20.341 -30.770  14.145  0.00  0.00    -0.276 OA
BRANCH  10  14
ATOM     14  C   LIG    1       18.322 -30.859  12.826  0.00  0.00    +0.096 C 
BRANCH  14  16
ATOM     15  C   LIG    1       17.897 -31.513  10.415  0.00  0.00    +0.004 C 
ATOM     16  C   LIG    1       18.289 -31.993  11.805  0.00  0.00    +0.006 C 
ENDBRANCH  14  16
ENDBRANCH  10  14
ENDBRANCH   1  11
BRANCH   4  17
ATOM     17  C   LIG    1       25.298 -29.812  11.989  0.00  0.00    +0.052 C 
BRANCH  17  18
ATOM     18  C   LIG    1       26.024 -29.346  10.702  0.00  0.00    +0.102 C 
BRANCH  18  19
ATOM     19  C   LIG    1       26.303 -30.588   9.850  0.00  0.00    +0.308 C 
ATOM     20  O   LIG    1       26.315 -31.716  10.307  0.00  0.00    -0.251 OA
BRANCH  19  21
ATOM     21  O   LIG    1       26.609 -30.353   8.550  0.00  0.00    -0.480 OA
ATOM     22  H   LIG    1       27.173 -31.011   8.112  0.00  0.00    +0.295 HD
ENDBRANCH  19  21
ENDBRANCH  18  19
BRANCH  18  23
ATOM     23  C   LIG    1       27.273 -28.488  10.954  0.00  0.00    +0.011 C 
ATOM     24  C   LIG    1       28.392 -29.216  11.694  0.00  0.00    +0.004 C 
ENDBRANCH  18  23
ENDBRANCH  17  18
ENDBRANCH   4  17
TORSDOF 8
ENDMDL
MODEL 7
REMARK VINA RESULT:      -4.2      4.307      6.486
REMARK  Name = *****
REMARK                            x       y       z     vdW  Elec       q    Type
REMARK                         _______ _______ _______ _____ _____    ______ ____
ROOT
ATOM      1  C   LIG    1       21.210 -28.569  12.843  0.00  0.00    +0.060 A 
ATOM      2  C   LIG    1       22.483 -28.970  12.352  0.00  0.00    +0.040 A 
ATOM      3  I   LIG    1       22.487 -30.496  10.804  0.00  0.00    -0.042 I 
ATOM      4  C   LIG    1       23.669 -28.236  12.641  0.00  0.00    -0.018 A 
ATOM      5  C   LIG    1       23.495 -27.031  13.363  0.00  0.00    +0.019 A 
ATOM      6  I   LIG    1       25.085 -25.774  13.961  0.00  0.00    -0.043 I 
ATOM      7  C   LIG    1       22.217 -26.548  13.700  0.00  0.00    +0.030 A 
ATOM      8  C   LIG    1       21.083 -27.307  13.428  0.00  0.00    +0.037 A 
ATOM      9  I   LIG    1       19.211 -26.490  13.936  0.00  0.00    -0.042 I 
ENDROOT
BRANCH   1  11
ATOM     10  C   LIG    1       19.846 -30.379  13.749  0.00  0.00    +0.217 C 
ATOM     11  N   LIG    1       20.059 -29.402  12.779  0.00  0.00    -0.284 N 
ATOM     12  H   LIG    1       19.207 -28.934  12.486  0.00  0.00    +0.155 HD
ATOM     13  O   LIG    1       20.615 -30.632  14.670  0.00  0.00    -0.276 OA
BRANCH  10  14
ATOM     14  C   LIG    1       18.536 -31.122  13.548  0.00  0.00    +0.096 C 
BRANCH  14  16
ATOM     15  C   LIG    1       17.568 -31.556  11.246  0.00  0.00    +0.004 C 
ATOM     16  C   LIG    1       18.545 -32.024  12.315  0.00  0.00    +0.006 C 
ENDBRANCH  14  16
ENDBRANCH  10  14
ENDBRANCH   1  11
BRANCH   4  17
ATOM     17  C   LIG    1       25.050 -28.687  12.160  0.00  0.00    +0.052 C 
BRANCH  17  18
ATOM     18  C   LIG    1       25.929 -29.484  13.155  0.00  0.00    +0.102 C 
BRANCH  18  19
ATOM     19  C   LIG    1       27.395 -29.235  12.785  0.00  0.00    +0.308 C 
ATOM     20  O   LIG    1       28.289 -30.012  13.063  0.00  0.00    -0.251 OA
BRANCH  19  21
ATOM     21  O   LIG    1       27.655 -28.049  12.180  0.00  0.00    -0.480 OA
ATOM     22  H   LIG    1       28.100 -27.376  12.720  0.00  0.00    +0.295 HD
ENDBRANCH  19  21
ENDBRANCH  18  19
BRANCH  18  23
ATOM     23  C   LIG    1       25.573 -30.974  13.264  0.00  0.00    +0.011 C 
ATOM     24  C   LIG    1       24.669 -31.315  14.444  0.00  0.00    +0.004 C 
ENDBRANCH  18  23
ENDBRANCH  17  18
ENDBRANCH   4  17
TORSDOF 8
ENDMDL
MODEL 8
REMARK VINA RESULT:      -4.2      3.564      6.686
REMARK  Name = *****
REMARK                            x       y       z     vdW  Elec       q    Type
REMARK                         _______ _______ _______ _____ _____    ______ ____
ROOT
ATOM      1  C   LIG    1       24.306 -29.817  11.480  0.00  0.00    +0.060 A 
ATOM      2  C   LIG    1       25.175 -28.912  12.148  0.00  0.00    +0.040 A 
ATOM      3  I   LIG    1       27.020 -28.401  11.118  0.00  0.00    -0.042 I 
ATOM      4  C   LIG    1       24.756 -28.164  13.286  0.00  0.00    -0.018 A 
ATOM      5  C   LIG    1       23.397 -28.300  13.654  0.00  0.00    +0.019 A 
ATOM      6  I   LIG    1       22.525 -27.340  15.322  0.00  0.00    -0.043 I 
ATOM      7  C   LIG    1       22.496 -29.063  12.889  0.00  0.00    +0.030 A 
ATOM      8  C   LIG    1       22.947 -29.805  11.802  0.00  0.00    +0.037 A 
ATOM      9  I   LIG    1       21.523 -30.889  10.694  0.00  0.00    -0.042 I 
ENDROOT
BRANCH   1  11
ATOM     10  C   LIG    1       25.393 -31.925  10.902  0.00  0.00    +0.217 C 
ATOM     11  N   LIG    1       24.761 -30.749  10.505  0.00  0.00    -0.284 N 
ATOM     12  H   LIG    1       24.142 -30.874   9.710  0.00  0.00    +0.155 HD
ATOM     13  O   LIG    1       25.648 -32.227  12.063  0.00  0.00    -0.276 OA
BRANCH  10  14
ATOM     14  C   LIG    1       25.747 -32.819   9.726  0.00  0.00    +0.096 C 
BRANCH  14  16
ATOM     15  C   LIG    1       26.613 -32.159   7.437  0.00  0.00    +0.004 C 
ATOM     16  C   LIG    1       26.935 -32.300   8.918  0.00  0.00    +0.006 C 
ENDBRANCH  14  16
ENDBRANCH  10  14
ENDBRANCH   1  11
BRANCH   4  17
ATOM     17  C   LIG    1       25.699 -27.226  14.043  0.00  0.00    +0.052 C 
BRANCH  17  18
ATOM     18  C   LIG    1       25.964 -25.829  13.427  0.00  0.00    +0.102 C 
BRANCH  18  19
ATOM     19  C   LIG    1       27.418 -25.454  13.733  0.00  0.00    +0.308 C 
ATOM     20  O   LIG    1       27.897 -24.372  13.446  0.00  0.00    -0.251 OA
BRANCH  19  21
ATOM     21  O   LIG    1       28.173 -26.434  14.288  0.00  0.00    -0.480 OA
ATOM     22  H   LIG    1       29.112 -26.451  14.038  0.00  0.00    +0.295 HD
ENDBRANCH  19  21
ENDBRANCH  18  19
BRANCH  18  23
ATOM     23  C   LIG    1       24.956 -24.749  13.847  0.00  0.00    +0.011 C 
ATOM     24  C   LIG    1       25.095 -24.294  15.296  0.00  0.00    +0.004 C 
ENDBRANCH  18  23
ENDBRANCH  17  18
ENDBRANCH   4  17
TORSDOF 8
ENDMDL
MODEL 9
REMARK VINA RESULT:      -4.0      4.206      5.658
REMARK  Name = *****
REMARK                            x       y       z     vdW  Elec       q    Type
REMARK                         _______ _______ _______ _____ _____    ______ ____
ROOT
ATOM      1  C   LIG    1       21.787 -28.626  13.568  0.00  0.00    +0.060 A 
ATOM      2  C   LIG    1       23.116 -28.126  13.486  0.00  0.00    +0.040 A 
ATOM      3  I   LIG    1       23.799 -26.913  15.156  0.00  0.00    -0.042 I 
ATOM      4  C   LIG    1       24.045 -28.604  12.518  0.00  0.00    -0.018 A 
ATOM      5  C   LIG    1       23.601 -29.675  11.706  0.00  0.00    +0.019 A 
ATOM      6  I   LIG    1       24.757 -30.545  10.166  0.00  0.00    -0.043 I 
ATOM      7  C   LIG    1       22.348 -30.284  11.903  0.00  0.00    +0.030 A 
ATOM      8  C   LIG    1       21.454 -29.770  12.838  0.00  0.00    +0.037 A 
ATOM      9  I   LIG    1       19.617 -30.765  13.091  0.00  0.00    -0.042 I 
ENDROOT
BRANCH   1  11
ATOM     10  C   LIG    1       20.031 -26.951  13.826  0.00  0.00    +0.217 C 
ATOM     11  N   LIG    1       20.774 -28.006  14.351  0.00  0.00    -0.284 N 
ATOM     12  H   LIG    1       20.224 -28.641  14.921  0.00  0.00    +0.155 HD
ATOM     13  O   LIG    1       20.205 -26.452  12.719  0.00  0.00    -0.276 OA
BRANCH  10  14
ATOM     14  C   LIG    1       18.957 -26.463  14.784  0.00  0.00    +0.096 C 
BRANCH  14  16
ATOM     15  C   LIG    1       16.692 -27.517  14.358  0.00  0.00    +0.004 C 
ATOM     16  C   LIG    1       17.590 -26.312  14.120  0.00  0.00    +0.006 C 
ENDBRANCH  14  16
ENDBRANCH  10  14
ENDBRANCH   1  11
BRANCH   4  17
ATOM     17  C   LIG    1       25.460 -28.036  12.388  0.00  0.00    +0.052 C 
BRANCH  17  18
ATOM     18  C   LIG    1       26.534 -28.561  13.373  0.00  0.00    +0.102 C 
BRANCH  18  19
ATOM     19  C   LIG    1       27.360 -27.359  13.844  0.00  0.00    +0.308 C 
ATOM     20  O   LIG    1       27.948 -27.337  14.909  0.00  0.00    -0.251 OA
BRANCH  19  21
ATOM     21  O   LIG    1       27.344 -26.278  13.026  0.00  0.00    -0.480 OA
ATOM     22  H   LIG    1       26.565 -25.701  13.086  0.00  0.00    +0.295 HD
ENDBRANCH  19  21
ENDBRANCH  18  19
BRANCH  18  23
ATOM     23  C   LIG    1       27.391 -29.711  12.824  0.00  0.00    +0.011 C 
ATOM     24  C   LIG    1       28.269 -29.324  11.638  0.00  0.00    +0.004 C 
ENDBRANCH  18  23
ENDBRANCH  17  18
ENDBRANCH   4  17
TORSDOF 8
ENDMDL
