MODEL 1
REMARK VINA RESULT:      58.0      0.000      0.000
REMARK  Name = *****
REMARK                            x       y       z     vdW  Elec       q    Type
REMARK                         _______ _______ _______ _____ _____    ______ ____
ROOT
ATOM      1  C   LIG    1       21.514 -19.840   4.975  0.00  0.00    +0.210 C 
ATOM      2  C   LIG    1       20.782 -18.552   4.447  0.00  0.00    +0.126 C 
ATOM      3  C   LIG    1       20.824 -18.370   2.923  0.00  0.00    +0.048 C 
ATOM      4  C   LIG    1       21.412 -17.303   5.106  0.00  0.00    +0.158 C 
ATOM      5  C   LIG    1       20.990 -15.979   4.447  0.00  0.00    +0.065 C 
ATOM      6  C   LIG    1       19.660 -15.454   4.994  0.00  0.00    +0.016 C 
ATOM      7  C   LIG    1       22.156 -15.011   4.615  0.00  0.00    +0.066 C 
ATOM      8  N   LIG    1       22.104 -14.370   5.745  0.00  0.00    -0.091 NA
ATOM      9  C   LIG    1       23.369 -14.971   3.543  0.00  0.00    +0.037 C 
ATOM     10  C   LIG    1       22.962 -15.365   2.121  0.00  0.00    +0.014 C 
ATOM     11  C   LIG    1       24.552 -15.912   3.953  0.00  0.00    +0.046 C 
ATOM     12  C   LIG    1       26.208 -15.719   3.515  0.00  0.00    +0.090 C 
ATOM     13  C   LIG    1       26.332 -15.917   1.998  0.00  0.00    +0.044 C 
ATOM     14  C   LIG    1       27.659 -16.423   4.366  0.00  0.00    +0.158 C 
ATOM     15  C   LIG    1       27.822 -18.068   4.442  0.00  0.00    +0.047 C 
ATOM     16  C   LIG    1       28.893 -18.401   5.532  0.00  0.00    +0.013 C 
ATOM     17  C   LIG    1       26.669 -19.278   4.734  0.00  0.00    +0.140 C 
ATOM     18  C   LIG    1       25.176 -18.961   4.505  0.00  0.00    +0.124 C 
ATOM     19  C   LIG    1       24.860 -18.963   3.035  0.00  0.00    +0.022 C 
ATOM     20  C   LIG    1       23.941 -19.396   5.441  0.00  0.00    +0.313 C 
ATOM     21  O   LIG    1       23.811 -19.133   6.565  0.00  0.00    -0.250 OA
ATOM     22  O   LIG    1       22.936 -19.863   4.579  0.00  0.00    -0.458 OA
ENDROOT
BRANCH   1  24
ATOM     23  C   LIG    1       20.622 -21.304   2.967  0.00  0.00    +0.007 C 
ATOM     24  C   LIG    1       20.839 -21.143   4.468  0.00  0.00    +0.044 C 
ENDBRANCH   1  24
BRANCH  12  25
ATOM     25  O   LIG    1       26.384 -14.304   3.721  0.00  0.00    -0.386 OA
ATOM     26  H   LIG    1       26.421 -13.893   2.845  0.00  0.00    +0.210 HD
ENDBRANCH  12  25
BRANCH   4  27
ATOM     27  O   LIG    1       21.091 -17.332   6.506  0.00  0.00    -0.388 OA
ATOM     28  H   LIG    1       21.609 -16.625   6.938  0.00  0.00    +0.210 HD
ENDBRANCH   4  27
BRANCH   2  29
ATOM     29  O   LIG    1       19.402 -18.612   4.854  0.00  0.00    -0.383 OA
ATOM     30  H   LIG    1       19.365 -19.332   5.521  0.00  0.00    +0.210 HD
ENDBRANCH   2  29
BRANCH  14  31
ATOM     31  O   LIG    1       28.899 -15.624   4.090  0.00  0.00    -0.342 OA
BRANCH  31  32
ATOM     32  C   LIG    1       28.967 -14.131   4.382  0.00  0.00    +0.281 C 
ATOM     33  C   LIG    1       27.592 -13.570   3.960  0.00  0.00    +0.187 C 
ATOM     34  C   LIG    1       26.754 -12.864   5.097  0.00  0.00    +0.092 C 
ATOM     35  C   LIG    1       27.571 -11.657   5.522  0.00  0.00    +0.053 C 
ATOM     36  C   LIG    1       29.048 -12.059   5.714  0.00  0.00    +0.120 C 
ATOM     37  C   LIG    1       29.467 -11.447   7.055  0.00  0.00    +0.038 C 
ATOM     38  O   LIG    1       29.315 -13.520   5.668  0.00  0.00    -0.346 OA
BRANCH  34  39
ATOM     39  N   LIG    1       26.180 -13.516   6.292  0.00  0.00    -0.303 NA
ATOM     40  C   LIG    1       24.755 -13.766   6.444  0.00  0.00    +0.105 C 
ATOM     41  C   LIG    1       27.070 -14.398   7.045  0.00  0.00    +0.105 C 
ENDBRANCH  34  39
BRANCH  33  42
ATOM     42  O   LIG    1       27.875 -12.556   2.940  0.00  0.00    -0.385 OA
ATOM     43  H   LIG    1       28.275 -11.802   3.403  0.00  0.00    +0.210 HD
ENDBRANCH  33  42
ENDBRANCH  31  32
ENDBRANCH  14  31
BRANCH  17  44
ATOM     44  O   LIG    1       27.131 -20.354   3.848  0.00  0.00    -0.347 OA
BRANCH  44  45
ATOM     45  C   LIG    1       26.363 -20.637   2.677  0.00  0.00    +0.254 C 
ATOM     46  O   LIG    1       25.880 -19.475   2.026  0.00  0.00    -0.346 OA
ATOM     47  C   LIG    1       25.023 -18.691   2.864  0.00  0.00    +0.150 C 
ATOM     48  C   LIG    1       24.280 -17.705   1.982  0.00  0.00    +0.040 C 
ATOM     49  C   LIG    1       24.066 -19.454   3.799  0.00  0.00    +0.175 C 
ATOM     50  C   LIG    1       23.787 -20.859   3.240  0.00  0.00    +0.099 C 
ATOM     51  C   LIG    1       22.890 -20.670   1.991  0.00  0.00    +0.044 C 
ATOM     52  C   LIG    1       25.139 -21.570   2.904  0.00  0.00    +0.098 C 
BRANCH  50  53
ATOM     53  O   LIG    1       22.996 -21.567   4.224  0.00  0.00    -0.374 OA
ATOM     54  C   LIG    1       23.061 -21.079   5.558  0.00  0.00    +0.195 C 
ENDBRANCH  50  53
BRANCH  49  55
ATOM     55  O   LIG    1       24.632 -19.523   5.120  0.00  0.00    -0.386 OA
ATOM     56  H   LIG    1       24.698 -18.607   5.445  0.00  0.00    +0.210 HD
ENDBRANCH  49  55
ENDBRANCH  44  45
ENDBRANCH  17  44
BRANCH   8  57
ATOM     57  O   LIG    1       23.148 -13.482   5.917  0.00  0.00    -0.365 OA
BRANCH  57  58
ATOM     58  C   LIG    1       23.237 -12.617   4.771  0.00  0.00    +0.426 C 
BRANCH  58  59
ATOM     59  O   LIG    1       23.943 -13.246   3.699  0.00  0.00    -0.340 OA
BRANCH  59  60
ATOM     60  C   LIG    1       23.543 -12.792   2.418  0.00  0.00    +0.192 C 
BRANCH  60  61
ATOM     61  C   LIG    1       24.504 -11.850   1.813  0.00  0.00    +0.187 C 
BRANCH  61  62
ATOM     62  O   LIG    1       25.773 -12.482   1.907  0.00  0.00    -0.381 OA
ATOM     63  C   LIG    1       26.689 -11.449   1.814  0.00  0.00    +0.194 C 
ENDBRANCH  61  62
ENDBRANCH  60  61
ENDBRANCH  59  60
ENDBRANCH  58  59
ENDBRANCH  57  58
ENDBRANCH   8  57
TORSDOF 18
ENDMDL
