MODEL 1
REMARK VINA RESULT:     -10.4      0.000      0.000
REMARK  Name = *****
REMARK                            x       y       z     vdW  Elec       q    Type
REMARK                         _______ _______ _______ _____ _____    ______ ____
ROOT
ATOM      1  C   LIG    1       24.631 -21.095   5.771  0.00  0.00    +0.021 C 
ATOM      2  C   LIG    1       25.072 -20.531   4.388  0.00  0.00    +0.016 C 
ATOM      3  C   LIG    1       24.010 -20.502   3.281  0.00  0.00    +0.001 C 
ATOM      4  C   LIG    1       22.717 -19.846   3.720  0.00  0.00    +0.000 C 
ATOM      5  C   LIG    1       22.194 -20.416   5.025  0.00  0.00    +0.001 C 
ATOM      6  C   LIG    1       23.272 -20.403   6.097  0.00  0.00    +0.016 C 
ENDROOT
BRANCH   1  10
ATOM      7  C   LIG    1       23.979 -25.486   5.849  0.00  0.00    +0.122 A 
ATOM      8  C   LIG    1       24.724 -24.951   4.833  0.00  0.00    +0.046 A 
ATOM      9  C   LIG    1       24.911 -23.546   4.768  0.00  0.00    +0.008 A 
ATOM     10  C   LIG    1       24.402 -22.614   5.697  0.00  0.00    -0.037 A 
ATOM     11  C   LIG    1       23.581 -23.176   6.621  0.00  0.00    +0.008 A 
ATOM     12  C   LIG    1       23.393 -24.534   6.642  0.00  0.00    +0.046 A 
BRANCH   7  13
ATOM     13  O   LIG    1       23.878 -26.841   6.030  0.00  0.00    -0.475 OA
BRANCH  13  14
ATOM     14  C   LIG    1       25.082 -27.671   5.972  0.00  0.00    +0.203 C 
ATOM     15  C   LIG    1       26.045 -27.137   4.894  0.00  0.00    +0.068 C 
BRANCH  14  17
ATOM     16  C   LIG    1       25.325 -29.035   8.300  0.00  0.00    +0.008 C 
ATOM     17  C   LIG    1       25.747 -27.919   7.373  0.00  0.00    +0.056 C 
ENDBRANCH  14  17
BRANCH  14  18
ATOM     18  C   LIG    1       24.696 -29.167   5.602  0.00  0.00    +0.349 C 
ATOM     19  O   LIG    1       25.534 -30.037   5.288  0.00  0.00    -0.246 OA
BRANCH  18  20
ATOM     20  O   LIG    1       23.386 -29.481   5.486  0.00  0.00    -0.478 OA
ATOM     21  H   LIG    1       23.039 -29.683   4.603  0.00  0.00    +0.295 HD
ENDBRANCH  18  20
ENDBRANCH  14  18
ENDBRANCH  13  14
ENDBRANCH   7  13
ENDBRANCH   1  10
BRANCH   1  22
ATOM     22  C   LIG    1       25.764 -20.731   6.882  0.00  0.00    -0.033 A 
ATOM     23  C   LIG    1       27.108 -20.359   6.559  0.00  0.00    +0.050 A 
ATOM     24  C   LIG    1       28.166 -20.256   7.456  0.00  0.00    +0.122 A 
ATOM     25  C   LIG    1       27.806 -20.129   8.789  0.00  0.00    +0.045 A 
ATOM     26  C   LIG    1       26.462 -20.287   9.172  0.00  0.00    +0.004 A 
ATOM     27  C   LIG    1       25.467 -20.640   8.241  0.00  0.00    +0.005 A 
BRANCH  24  28
ATOM     28  O   LIG    1       29.494 -20.216   7.134  0.00  0.00    -0.475 OA
BRANCH  28  29
ATOM     29  C   LIG    1       30.582 -19.709   7.969  0.00  0.00    +0.203 C 
ATOM     30  C   LIG    1       31.570 -19.081   6.931  0.00  0.00    +0.068 C 
BRANCH  29  31
ATOM     31  C   LIG    1       31.299 -20.895   8.716  0.00  0.00    +0.349 C 
ATOM     32  O   LIG    1       32.277 -20.767   9.379  0.00  0.00    -0.246 OA
BRANCH  31  33
ATOM     33  O   LIG    1       30.741 -22.142   8.560  0.00  0.00    -0.478 OA
ATOM     34  H   LIG    1       31.061 -22.735   7.875  0.00  0.00    +0.295 HD
ENDBRANCH  31  33
ENDBRANCH  29  31
BRANCH  29  35
ATOM     35  C   LIG    1       30.323 -18.475   8.898  0.00  0.00    +0.056 C 
ATOM     36  C   LIG    1       31.313 -17.371   9.109  0.00  0.00    +0.008 C 
ENDBRANCH  29  35
ENDBRANCH  28  29
ENDBRANCH  24  28
ENDBRANCH   1  22
TORSDOF 12
ENDMDL
MODEL 2
REMARK VINA RESULT:     -10.3      1.339      2.056
REMARK  Name = *****
REMARK                            x       y       z     vdW  Elec       q    Type
REMARK                         _______ _______ _______ _____ _____    ______ ____
ROOT
ATOM      1  C   LIG    1       25.500 -20.914   6.206  0.00  0.00    +0.021 C 
ATOM      2  C   LIG    1       24.996 -20.343   4.847  0.00  0.00    +0.016 C 
ATOM      3  C   LIG    1       23.486 -20.410   4.585  0.00  0.00    +0.001 C 
ATOM      4  C   LIG    1       22.662 -19.843   5.722  0.00  0.00    +0.000 C 
ATOM      5  C   LIG    1       23.054 -20.427   7.066  0.00  0.00    +0.001 C 
ATOM      6  C   LIG    1       24.554 -20.317   7.293  0.00  0.00    +0.016 C 
ENDROOT
BRANCH   1  10
ATOM      7  C   LIG    1       24.882 -25.311   6.167  0.00  0.00    +0.122 A 
ATOM      8  C   LIG    1       25.551 -24.752   7.222  0.00  0.00    +0.046 A 
ATOM      9  C   LIG    1       25.793 -23.353   7.234  0.00  0.00    +0.008 A 
ATOM     10  C   LIG    1       25.376 -22.447   6.237  0.00  0.00    -0.037 A 
ATOM     11  C   LIG    1       24.815 -23.058   5.161  0.00  0.00    +0.008 A 
ATOM     12  C   LIG    1       24.621 -24.415   5.162  0.00  0.00    +0.046 A 
BRANCH   7  13
ATOM     13  O   LIG    1       24.510 -26.630   6.169  0.00  0.00    -0.475 OA
BRANCH  13  14
ATOM     14  C   LIG    1       25.532 -27.671   6.053  0.00  0.00    +0.203 C 
ATOM     15  C   LIG    1       26.581 -27.270   4.998  0.00  0.00    +0.068 C 
BRANCH  14  17
ATOM     16  C   LIG    1       25.391 -29.003   8.407  0.00  0.00    +0.008 C 
ATOM     17  C   LIG    1       26.135 -28.122   7.431  0.00  0.00    +0.056 C 
ENDBRANCH  14  17
BRANCH  14  18
ATOM     18  C   LIG    1       24.867 -29.041   5.602  0.00  0.00    +0.349 C 
ATOM     19  O   LIG    1       25.523 -30.037   5.236  0.00  0.00    -0.246 OA
BRANCH  18  20
ATOM     20  O   LIG    1       23.522 -29.088   5.474  0.00  0.00    -0.478 OA
ATOM     21  H   LIG    1       22.991 -28.439   5.963  0.00  0.00    +0.295 HD
ENDBRANCH  18  20
ENDBRANCH  14  18
ENDBRANCH  13  14
ENDBRANCH   7  13
ENDBRANCH   1  10
BRANCH   1  22
ATOM     22  C   LIG    1       27.042 -20.450   6.441  0.00  0.00    -0.033 A 
ATOM     23  C   LIG    1       27.651 -20.322   7.730  0.00  0.00    +0.050 A 
ATOM     24  C   LIG    1       28.877 -19.724   8.000  0.00  0.00    +0.122 A 
ATOM     25  C   LIG    1       29.728 -19.595   6.913  0.00  0.00    +0.045 A 
ATOM     26  C   LIG    1       29.265 -19.892   5.619  0.00  0.00    +0.004 A 
ATOM     27  C   LIG    1       27.927 -20.257   5.381  0.00  0.00    +0.005 A 
BRANCH  24  28
ATOM     28  O   LIG    1       29.321 -19.315   9.227  0.00  0.00    -0.475 OA
BRANCH  28  29
ATOM     29  C   LIG    1       30.323 -18.285   9.497  0.00  0.00    +0.203 C 
ATOM     30  C   LIG    1       29.829 -17.071   8.640  0.00  0.00    +0.068 C 
BRANCH  29  31
ATOM     31  C   LIG    1       31.737 -18.744   8.980  0.00  0.00    +0.349 C 
ATOM     32  O   LIG    1       32.242 -19.782   9.263  0.00  0.00    -0.246 OA
BRANCH  31  33
ATOM     33  O   LIG    1       32.405 -17.861   8.165  0.00  0.00    -0.478 OA
ATOM     34  H   LIG    1       32.356 -16.915   8.329  0.00  0.00    +0.295 HD
ENDBRANCH  31  33
ENDBRANCH  29  31
BRANCH  29  35
ATOM     35  C   LIG    1       30.380 -17.627  10.918  0.00  0.00    +0.056 C 
ATOM     36  C   LIG    1       31.284 -16.486  11.268  0.00  0.00    +0.008 C 
ENDBRANCH  29  35
ENDBRANCH  28  29
ENDBRANCH  24  28
ENDBRANCH   1  22
TORSDOF 12
ENDMDL
MODEL 3
REMARK VINA RESULT:     -10.3      0.980      7.952
REMARK  Name = *****
REMARK                            x       y       z     vdW  Elec       q    Type
REMARK                         _______ _______ _______ _____ _____    ______ ____
ROOT
ATOM      1  C   LIG    1       24.602 -21.119   5.341  0.00  0.00    +0.021 C 
ATOM      2  C   LIG    1       23.403 -20.181   5.676  0.00  0.00    +0.016 C 
ATOM      3  C   LIG    1       23.462 -18.755   5.114  0.00  0.00    +0.001 C 
ATOM      4  C   LIG    1       23.750 -18.717   3.628  0.00  0.00    +0.000 C 
ATOM      5  C   LIG    1       24.961 -19.549   3.252  0.00  0.00    +0.001 C 
ATOM      6  C   LIG    1       24.848 -20.959   3.810  0.00  0.00    +0.016 C 
ENDROOT
BRANCH   1  10
ATOM      7  C   LIG    1       28.090 -19.742   7.718  0.00  0.00    +0.122 A 
ATOM      8  C   LIG    1       28.159 -19.676   6.353  0.00  0.00    +0.046 A 
ATOM      9  C   LIG    1       27.070 -20.147   5.574  0.00  0.00    +0.008 A 
ATOM     10  C   LIG    1       25.870 -20.678   6.091  0.00  0.00    -0.037 A 
ATOM     11  C   LIG    1       25.890 -20.826   7.441  0.00  0.00    +0.008 A 
ATOM     12  C   LIG    1       26.968 -20.391   8.167  0.00  0.00    +0.046 A 
BRANCH   7  13
ATOM     13  O   LIG    1       29.054 -19.183   8.515  0.00  0.00    -0.475 OA
BRANCH  13  14
ATOM     14  C   LIG    1       30.467 -19.432   8.226  0.00  0.00    +0.203 C 
ATOM     15  C   LIG    1       30.704 -19.445   6.703  0.00  0.00    +0.068 C 
BRANCH  14  17
ATOM     16  C   LIG    1       30.992 -17.566  10.118  0.00  0.00    +0.008 C 
ATOM     17  C   LIG    1       31.451 -18.507   9.028  0.00  0.00    +0.056 C 
ENDBRANCH  14  17
BRANCH  14  18
ATOM     18  C   LIG    1       30.904 -20.842   8.812  0.00  0.00    +0.349 C 
ATOM     19  O   LIG    1       30.107 -21.781   9.015  0.00  0.00    -0.246 OA
BRANCH  18  20
ATOM     20  O   LIG    1       32.177 -20.990   9.243  0.00  0.00    -0.478 OA
ATOM     21  H   LIG    1       32.730 -21.667   8.820  0.00  0.00    +0.295 HD
ENDBRANCH  18  20
ENDBRANCH  14  18
ENDBRANCH  13  14
ENDBRANCH   7  13
ENDBRANCH   1  10
BRANCH   1  22
ATOM     22  C   LIG    1       24.203 -22.651   5.722  0.00  0.00    -0.033 A 
ATOM     23  C   LIG    1       24.997 -23.791   5.380  0.00  0.00    +0.050 A 
ATOM     24  C   LIG    1       24.604 -25.122   5.481  0.00  0.00    +0.122 A 
ATOM     25  C   LIG    1       23.530 -25.362   6.324  0.00  0.00    +0.045 A 
ATOM     26  C   LIG    1       22.808 -24.285   6.868  0.00  0.00    +0.004 A 
ATOM     27  C   LIG    1       23.104 -22.952   6.525  0.00  0.00    +0.005 A 
BRANCH  24  28
ATOM     28  O   LIG    1       25.209 -26.188   4.876  0.00  0.00    -0.475 OA
BRANCH  28  29
ATOM     29  C   LIG    1       25.857 -27.319   5.540  0.00  0.00    +0.203 C 
ATOM     30  C   LIG    1       27.265 -27.377   4.859  0.00  0.00    +0.068 C 
BRANCH  29  31
ATOM     31  C   LIG    1       25.079 -28.653   5.238  0.00  0.00    +0.349 C 
ATOM     32  O   LIG    1       25.602 -29.714   5.116  0.00  0.00    -0.246 OA
BRANCH  31  33
ATOM     33  O   LIG    1       23.715 -28.547   5.101  0.00  0.00    -0.478 OA
ATOM     34  H   LIG    1       23.322 -28.428   4.232  0.00  0.00    +0.295 HD
ENDBRANCH  31  33
ENDBRANCH  29  31
BRANCH  29  35
ATOM     35  C   LIG    1       26.274 -27.186   7.045  0.00  0.00    +0.056 C 
ATOM     36  C   LIG    1       25.860 -28.155   8.109  0.00  0.00    +0.008 C 
ENDBRANCH  29  35
ENDBRANCH  28  29
ENDBRANCH  24  28
ENDBRANCH   1  22
TORSDOF 12
ENDMDL
MODEL 4
REMARK VINA RESULT:      -9.6      3.881      7.808
REMARK  Name = *****
REMARK                            x       y       z     vdW  Elec       q    Type
REMARK                         _______ _______ _______ _____ _____    ______ ____
ROOT
ATOM      1  C   LIG    1       24.540 -21.043   5.750  0.00  0.00    +0.021 C 
ATOM      2  C   LIG    1       24.626 -22.213   4.725  0.00  0.00    +0.016 C 
ATOM      3  C   LIG    1       24.731 -23.631   5.300  0.00  0.00    +0.001 C 
ATOM      4  C   LIG    1       23.668 -23.928   6.337  0.00  0.00    +0.000 C 
ATOM      5  C   LIG    1       23.594 -22.861   7.411  0.00  0.00    +0.001 C 
ATOM      6  C   LIG    1       23.468 -21.475   6.796  0.00  0.00    +0.016 C 
ENDROOT
BRANCH   1  10
ATOM      7  C   LIG    1       28.289 -20.269   8.000  0.00  0.00    +0.122 A 
ATOM      8  C   LIG    1       28.377 -20.630   6.683  0.00  0.00    +0.046 A 
ATOM      9  C   LIG    1       27.192 -20.920   5.957  0.00  0.00    +0.008 A 
ATOM     10  C   LIG    1       25.882 -20.848   6.475  0.00  0.00    -0.037 A 
ATOM     11  C   LIG    1       25.850 -20.593   7.809  0.00  0.00    +0.008 A 
ATOM     12  C   LIG    1       27.012 -20.348   8.493  0.00  0.00    +0.046 A 
BRANCH   7  13
ATOM     13  O   LIG    1       29.387 -19.853   8.706  0.00  0.00    -0.475 OA
BRANCH  13  14
ATOM     14  C   LIG    1       30.093 -18.638   8.299  0.00  0.00    +0.203 C 
ATOM     15  C   LIG    1       29.795 -18.320   6.821  0.00  0.00    +0.068 C 
BRANCH  14  17
ATOM     16  C   LIG    1       30.296 -17.464  10.732  0.00  0.00    +0.008 C 
ATOM     17  C   LIG    1       29.887 -17.427   9.278  0.00  0.00    +0.056 C 
ENDBRANCH  14  17
BRANCH  14  18
ATOM     18  C   LIG    1       31.661 -18.836   8.462  0.00  0.00    +0.349 C 
ATOM     19  O   LIG    1       32.174 -19.807   9.052  0.00  0.00    -0.246 OA
BRANCH  18  20
ATOM     20  O   LIG    1       32.477 -17.835   8.064  0.00  0.00    -0.478 OA
ATOM     21  H   LIG    1       32.539 -17.042   8.622  0.00  0.00    +0.295 HD
ENDBRANCH  18  20
ENDBRANCH  14  18
ENDBRANCH  13  14
ENDBRANCH   7  13
ENDBRANCH   1  10
BRANCH   1  22
ATOM     22  C   LIG    1       24.097 -19.683   4.972  0.00  0.00    -0.033 A 
ATOM     23  C   LIG    1       24.969 -18.927   4.126  0.00  0.00    +0.050 A 
ATOM     24  C   LIG    1       24.719 -17.656   3.620  0.00  0.00    +0.122 A 
ATOM     25  C   LIG    1       23.388 -17.267   3.621  0.00  0.00    +0.045 A 
ATOM     26  C   LIG    1       22.424 -18.060   4.268  0.00  0.00    +0.004 A 
ATOM     27  C   LIG    1       22.782 -19.219   4.982  0.00  0.00    +0.005 A 
BRANCH  24  28
ATOM     28  O   LIG    1       25.646 -16.805   3.086  0.00  0.00    -0.475 OA
BRANCH  28  29
ATOM     29  C   LIG    1       25.927 -15.436   3.515  0.00  0.00    +0.203 C 
ATOM     30  C   LIG    1       25.723 -14.600   2.208  0.00  0.00    +0.068 C 
BRANCH  29  31
ATOM     31  C   LIG    1       27.422 -15.304   3.988  0.00  0.00    +0.349 C 
ATOM     32  O   LIG    1       28.004 -14.271   4.072  0.00  0.00    -0.246 OA
BRANCH  31  33
ATOM     33  O   LIG    1       28.069 -16.476   4.303  0.00  0.00    -0.478 OA
ATOM     34  H   LIG    1       28.697 -16.505   5.030  0.00  0.00    +0.295 HD
ENDBRANCH  31  33
ENDBRANCH  29  31
BRANCH  29  35
ATOM     35  C   LIG    1       24.921 -14.713   4.475  0.00  0.00    +0.056 C 
ATOM     36  C   LIG    1       24.043 -13.575   4.054  0.00  0.00    +0.008 C 
ENDBRANCH  29  35
ENDBRANCH  28  29
ENDBRANCH  24  28
ENDBRANCH   1  22
TORSDOF 12
ENDMDL
MODEL 5
REMARK VINA RESULT:      -9.1      1.825      8.491
REMARK  Name = *****
REMARK                            x       y       z     vdW  Elec       q    Type
REMARK                         _______ _______ _______ _____ _____    ______ ____
ROOT
ATOM      1  C   LIG    1       24.631 -23.130   5.873  0.00  0.00    +0.021 C 
ATOM      2  C   LIG    1       23.375 -23.029   6.789  0.00  0.00    +0.016 C 
ATOM      3  C   LIG    1       22.653 -21.676   6.826  0.00  0.00    +0.001 C 
ATOM      4  C   LIG    1       22.334 -21.137   5.447  0.00  0.00    +0.000 C 
ATOM      5  C   LIG    1       23.545 -21.134   4.533  0.00  0.00    +0.001 C 
ATOM      6  C   LIG    1       24.213 -22.501   4.510  0.00  0.00    +0.016 C 
ENDROOT
BRANCH   1  10
ATOM      7  C   LIG    1       27.867 -20.783   7.805  0.00  0.00    +0.122 A 
ATOM      8  C   LIG    1       27.547 -20.510   6.502  0.00  0.00    +0.046 A 
ATOM      9  C   LIG    1       26.543 -21.276   5.855  0.00  0.00    +0.008 A 
ATOM     10  C   LIG    1       25.800 -22.315   6.453  0.00  0.00    -0.037 A 
ATOM     11  C   LIG    1       26.225 -22.622   7.705  0.00  0.00    +0.008 A 
ATOM     12  C   LIG    1       27.219 -21.886   8.297  0.00  0.00    +0.046 A 
BRANCH   7  13
ATOM     13  O   LIG    1       28.733 -19.991   8.513  0.00  0.00    -0.475 OA
BRANCH  13  14
ATOM     14  C   LIG    1       30.173 -20.096   8.272  0.00  0.00    +0.203 C 
ATOM     15  C   LIG    1       30.660 -21.525   8.580  0.00  0.00    +0.068 C 
BRANCH  14  17
ATOM     16  C   LIG    1       29.945 -18.379   6.190  0.00  0.00    +0.008 C 
ATOM     17  C   LIG    1       30.622 -19.544   6.872  0.00  0.00    +0.056 C 
ENDBRANCH  14  17
BRANCH  14  18
ATOM     18  C   LIG    1       30.959 -19.086   9.212  0.00  0.00    +0.349 C 
ATOM     19  O   LIG    1       32.179 -19.181   9.457  0.00  0.00    -0.246 OA
BRANCH  18  20
ATOM     20  O   LIG    1       30.248 -18.158   9.891  0.00  0.00    -0.478 OA
ATOM     21  H   LIG    1       29.885 -18.402  10.758  0.00  0.00    +0.295 HD
ENDBRANCH  18  20
ENDBRANCH  14  18
ENDBRANCH  13  14
ENDBRANCH   7  13
ENDBRANCH   1  10
BRANCH   1  22
ATOM     22  C   LIG    1       25.043 -24.696   5.703  0.00  0.00    -0.033 A 
ATOM     23  C   LIG    1       25.101 -25.629   6.787  0.00  0.00    +0.050 A 
ATOM     24  C   LIG    1       25.654 -26.905   6.740  0.00  0.00    +0.122 A 
ATOM     25  C   LIG    1       25.803 -27.441   5.471  0.00  0.00    +0.045 A 
ATOM     26  C   LIG    1       25.572 -26.641   4.338  0.00  0.00    +0.004 A 
ATOM     27  C   LIG    1       25.254 -25.275   4.453  0.00  0.00    +0.005 A 
BRANCH  24  28
ATOM     28  O   LIG    1       26.000 -27.673   7.817  0.00  0.00    -0.475 OA
BRANCH  28  29
ATOM     29  C   LIG    1       25.691 -29.087   8.018  0.00  0.00    +0.203 C 
ATOM     30  C   LIG    1       24.174 -29.073   8.404  0.00  0.00    +0.068 C 
BRANCH  29  31
ATOM     31  C   LIG    1       26.526 -29.667   9.220  0.00  0.00    +0.349 C 
ATOM     32  O   LIG    1       27.440 -29.101   9.727  0.00  0.00    -0.246 OA
BRANCH  31  33
ATOM     33  O   LIG    1       26.157 -30.911   9.676  0.00  0.00    -0.478 OA
ATOM     34  H   LIG    1       26.772 -31.442  10.191  0.00  0.00    +0.295 HD
ENDBRANCH  31  33
ENDBRANCH  29  31
BRANCH  29  35
ATOM     35  C   LIG    1       25.662 -30.048   6.780  0.00  0.00    +0.056 C 
ATOM     36  C   LIG    1       24.418 -30.708   6.271  0.00  0.00    +0.008 C 
ENDBRANCH  29  35
ENDBRANCH  28  29
ENDBRANCH  24  28
ENDBRANCH   1  22
TORSDOF 12
ENDMDL
MODEL 6
REMARK VINA RESULT:      -8.5      3.910      9.478
REMARK  Name = *****
REMARK                            x       y       z     vdW  Elec       q    Type
REMARK                         _______ _______ _______ _____ _____    ______ ____
ROOT
ATOM      1  C   LIG    1       25.221 -29.685   8.137  0.00  0.00    +0.021 C 
ATOM      2  C   LIG    1       23.888 -30.483   8.027  0.00  0.00    +0.016 C 
ATOM      3  C   LIG    1       23.615 -31.196   6.696  0.00  0.00    +0.001 C 
ATOM      4  C   LIG    1       24.774 -32.057   6.238  0.00  0.00    +0.000 C 
ATOM      5  C   LIG    1       26.091 -31.305   6.246  0.00  0.00    +0.001 C 
ATOM      6  C   LIG    1       26.329 -30.635   7.590  0.00  0.00    +0.016 C 
ENDROOT
BRANCH   1  10
ATOM      7  C   LIG    1       25.173 -25.886   5.839  0.00  0.00    +0.122 A 
ATOM      8  C   LIG    1       24.269 -26.861   5.514  0.00  0.00    +0.046 A 
ATOM      9  C   LIG    1       24.294 -28.097   6.210  0.00  0.00    +0.008 A 
ATOM     10  C   LIG    1       25.179 -28.423   7.259  0.00  0.00    -0.037 A 
ATOM     11  C   LIG    1       26.126 -27.472   7.472  0.00  0.00    +0.008 A 
ATOM     12  C   LIG    1       26.098 -26.299   6.763  0.00  0.00    +0.046 A 
BRANCH   7  13
ATOM     13  O   LIG    1       25.108 -24.632   5.289  0.00  0.00    -0.475 OA
BRANCH  13  14
ATOM     14  C   LIG    1       24.676 -23.502   6.113  0.00  0.00    +0.203 C 
ATOM     15  C   LIG    1       23.338 -23.828   6.803  0.00  0.00    +0.068 C 
BRANCH  14  17
ATOM     16  C   LIG    1       25.495 -22.059   8.254  0.00  0.00    +0.008 C 
ATOM     17  C   LIG    1       25.791 -22.962   7.079  0.00  0.00    +0.056 C 
ENDBRANCH  14  17
BRANCH  14  18
ATOM     18  C   LIG    1       24.472 -22.213   5.208  0.00  0.00    +0.349 C 
ATOM     19  O   LIG    1       25.404 -21.458   4.865  0.00  0.00    -0.246 OA
BRANCH  18  20
ATOM     20  O   LIG    1       23.210 -21.835   4.908  0.00  0.00    -0.478 OA
ATOM     21  H   LIG    1       22.496 -22.483   5.024  0.00  0.00    +0.295 HD
ENDBRANCH  18  20
ENDBRANCH  14  18
ENDBRANCH  13  14
ENDBRANCH   7  13
ENDBRANCH   1  10
BRANCH   1  22
ATOM     22  C   LIG    1       25.484 -29.300   9.697  0.00  0.00    -0.033 A 
ATOM     23  C   LIG    1       24.611 -29.667  10.769  0.00  0.00    +0.050 A 
ATOM     24  C   LIG    1       24.665 -29.183  12.072  0.00  0.00    +0.122 A 
ATOM     25  C   LIG    1       25.872 -28.610  12.443  0.00  0.00    +0.045 A 
ATOM     26  C   LIG    1       26.872 -28.391  11.479  0.00  0.00    +0.004 A 
ATOM     27  C   LIG    1       26.659 -28.678  10.118  0.00  0.00    +0.005 A 
BRANCH  24  28
ATOM     28  O   LIG    1       23.672 -29.273  13.007  0.00  0.00    -0.475 OA
BRANCH  28  29
ATOM     29  C   LIG    1       22.638 -28.277  13.285  0.00  0.00    +0.203 C 
ATOM     30  C   LIG    1       22.416 -28.410  14.828  0.00  0.00    +0.068 C 
BRANCH  29  31
ATOM     31  C   LIG    1       21.305 -28.645  12.535  0.00  0.00    +0.349 C 
ATOM     32  O   LIG    1       21.131 -29.666  11.950  0.00  0.00    -0.246 OA
BRANCH  31  33
ATOM     33  O   LIG    1       20.305 -27.701  12.567  0.00  0.00    -0.478 OA
ATOM     34  H   LIG    1       19.429 -27.932  12.887  0.00  0.00    +0.295 HD
ENDBRANCH  31  33
ENDBRANCH  29  31
BRANCH  29  35
ATOM     35  C   LIG    1       22.994 -26.755  13.178  0.00  0.00    +0.056 C 
ATOM     36  C   LIG    1       23.839 -26.027  14.178  0.00  0.00    +0.008 C 
ENDBRANCH  29  35
ENDBRANCH  28  29
ENDBRANCH  24  28
ENDBRANCH   1  22
TORSDOF 12
ENDMDL
MODEL 7
REMARK VINA RESULT:      -8.3      2.914      4.959
REMARK  Name = *****
REMARK                            x       y       z     vdW  Elec       q    Type
REMARK                         _______ _______ _______ _____ _____    ______ ____
ROOT
ATOM      1  C   LIG    1       25.417 -20.993   6.257  0.00  0.00    +0.021 C 
ATOM      2  C   LIG    1       25.091 -20.584   7.724  0.00  0.00    +0.016 C 
ATOM      3  C   LIG    1       25.916 -21.257   8.829  0.00  0.00    +0.001 C 
ATOM      4  C   LIG    1       27.409 -21.173   8.587  0.00  0.00    +0.000 C 
ATOM      5  C   LIG    1       27.795 -21.639   7.197  0.00  0.00    +0.001 C 
ATOM      6  C   LIG    1       26.970 -20.930   6.134  0.00  0.00    +0.016 C 
ENDROOT
BRANCH   1  10
ATOM      7  C   LIG    1       24.174 -25.222   5.718  0.00  0.00    +0.122 A 
ATOM      8  C   LIG    1       24.734 -24.563   4.658  0.00  0.00    +0.046 A 
ATOM      9  C   LIG    1       25.102 -23.199   4.798  0.00  0.00    +0.008 A 
ATOM     10  C   LIG    1       24.960 -22.435   5.975  0.00  0.00    -0.037 A 
ATOM     11  C   LIG    1       24.302 -23.095   6.963  0.00  0.00    +0.008 A 
ATOM     12  C   LIG    1       23.929 -24.403   6.790  0.00  0.00    +0.046 A 
BRANCH   7  13
ATOM     13  O   LIG    1       23.922 -26.569   5.676  0.00  0.00    -0.475 OA
BRANCH  13  14
ATOM     14  C   LIG    1       25.032 -27.516   5.789  0.00  0.00    +0.203 C 
ATOM     15  C   LIG    1       26.169 -27.119   4.828  0.00  0.00    +0.068 C 
BRANCH  14  17
ATOM     16  C   LIG    1       25.059 -28.988   8.063  0.00  0.00    +0.008 C 
ATOM     17  C   LIG    1       25.492 -27.779   7.267  0.00  0.00    +0.056 C 
ENDBRANCH  14  17
BRANCH  14  18
ATOM     18  C   LIG    1       24.542 -28.978   5.408  0.00  0.00    +0.349 C 
ATOM     19  O   LIG    1       25.313 -29.891   5.049  0.00  0.00    -0.246 OA
BRANCH  18  20
ATOM     20  O   LIG    1       23.212 -29.209   5.335  0.00  0.00    -0.478 OA
ATOM     21  H   LIG    1       22.768 -29.069   4.483  0.00  0.00    +0.295 HD
ENDBRANCH  18  20
ENDBRANCH  14  18
ENDBRANCH  13  14
ENDBRANCH   7  13
ENDBRANCH   1  10
BRANCH   1  22
ATOM     22  C   LIG    1       24.697 -19.946   5.239  0.00  0.00    -0.033 A 
ATOM     23  C   LIG    1       25.407 -19.106   4.324  0.00  0.00    +0.050 A 
ATOM     24  C   LIG    1       24.869 -18.047   3.599  0.00  0.00    +0.122 A 
ATOM     25  C   LIG    1       23.489 -18.059   3.465  0.00  0.00    +0.045 A 
ATOM     26  C   LIG    1       22.721 -18.990   4.186  0.00  0.00    +0.004 A 
ATOM     27  C   LIG    1       23.311 -19.881   5.102  0.00  0.00    +0.005 A 
BRANCH  24  28
ATOM     28  O   LIG    1       25.576 -17.055   2.978  0.00  0.00    -0.475 OA
BRANCH  28  29
ATOM     29  C   LIG    1       25.828 -15.709   3.490  0.00  0.00    +0.203 C 
ATOM     30  C   LIG    1       25.679 -14.808   2.219  0.00  0.00    +0.068 C 
BRANCH  29  31
ATOM     31  C   LIG    1       27.299 -15.596   4.037  0.00  0.00    +0.349 C 
ATOM     32  O   LIG    1       27.831 -14.566   4.303  0.00  0.00    -0.246 OA
BRANCH  31  33
ATOM     33  O   LIG    1       27.986 -16.777   4.192  0.00  0.00    -0.478 OA
ATOM     34  H   LIG    1       27.735 -17.398   4.883  0.00  0.00    +0.295 HD
ENDBRANCH  31  33
ENDBRANCH  29  31
BRANCH  29  35
ATOM     35  C   LIG    1       24.774 -15.041   4.438  0.00  0.00    +0.056 C 
ATOM     36  C   LIG    1       23.972 -13.832   4.067  0.00  0.00    +0.008 C 
ENDBRANCH  29  35
ENDBRANCH  28  29
ENDBRANCH  24  28
ENDBRANCH   1  22
TORSDOF 12
ENDMDL
MODEL 8
REMARK VINA RESULT:      -8.3      4.332      9.234
REMARK  Name = *****
REMARK                            x       y       z     vdW  Elec       q    Type
REMARK                         _______ _______ _______ _____ _____    ______ ____
ROOT
ATOM      1  C   LIG    1       24.978 -30.583   8.568  0.00  0.00    +0.021 C 
ATOM      2  C   LIG    1       26.466 -30.923   8.880  0.00  0.00    +0.016 C 
ATOM      3  C   LIG    1       26.729 -32.184   9.712  0.00  0.00    +0.001 C 
ATOM      4  C   LIG    1       26.020 -33.408   9.169  0.00  0.00    +0.000 C 
ATOM      5  C   LIG    1       24.544 -33.160   8.924  0.00  0.00    +0.001 C 
ATOM      6  C   LIG    1       24.334 -31.915   8.077  0.00  0.00    +0.016 C 
ENDROOT
BRANCH   1  10
ATOM      7  C   LIG    1       23.087 -29.343  12.389  0.00  0.00    +0.122 A 
ATOM      8  C   LIG    1       22.289 -29.830  11.390  0.00  0.00    +0.046 A 
ATOM      9  C   LIG    1       22.869 -30.194  10.147  0.00  0.00    +0.008 A 
ATOM     10  C   LIG    1       24.243 -30.121   9.838  0.00  0.00    -0.037 A 
ATOM     11  C   LIG    1       24.979 -29.533  10.816  0.00  0.00    +0.008 A 
ATOM     12  C   LIG    1       24.388 -29.161  11.996  0.00  0.00    +0.046 A 
BRANCH   7  13
ATOM     13  O   LIG    1       22.598 -29.100  13.647  0.00  0.00    -0.475 OA
BRANCH  13  14
ATOM     14  C   LIG    1       22.056 -27.780  13.971  0.00  0.00    +0.203 C 
ATOM     15  C   LIG    1       21.881 -27.637  15.495  0.00  0.00    +0.068 C 
BRANCH  14  17
ATOM     16  C   LIG    1       24.079 -25.981  13.879  0.00  0.00    +0.008 C 
ATOM     17  C   LIG    1       22.830 -26.594  13.291  0.00  0.00    +0.056 C 
ENDBRANCH  14  17
BRANCH  14  18
ATOM     18  C   LIG    1       20.637 -27.589  13.284  0.00  0.00    +0.349 C 
ATOM     19  O   LIG    1       20.271 -26.526  12.742  0.00  0.00    -0.246 OA
BRANCH  18  20
ATOM     20  O   LIG    1       19.725 -28.579  13.412  0.00  0.00    -0.478 OA
ATOM     21  H   LIG    1       20.034 -29.498  13.362  0.00  0.00    +0.295 HD
ENDBRANCH  18  20
ENDBRANCH  14  18
ENDBRANCH  13  14
ENDBRANCH   7  13
ENDBRANCH   1  10
BRANCH   1  22
ATOM     22  C   LIG    1       24.923 -29.435   7.415  0.00  0.00    -0.033 A 
ATOM     23  C   LIG    1       25.543 -28.151   7.536  0.00  0.00    +0.050 A 
ATOM     24  C   LIG    1       25.345 -27.063   6.692  0.00  0.00    +0.122 A 
ATOM     25  C   LIG    1       24.819 -27.367   5.446  0.00  0.00    +0.045 A 
ATOM     26  C   LIG    1       24.362 -28.669   5.173  0.00  0.00    +0.004 A 
ATOM     27  C   LIG    1       24.361 -29.671   6.162  0.00  0.00    +0.005 A 
BRANCH  24  28
ATOM     28  O   LIG    1       25.669 -25.763   6.963  0.00  0.00    -0.475 OA
BRANCH  28  29
ATOM     29  C   LIG    1       24.978 -24.569   6.479  0.00  0.00    +0.203 C 
ATOM     30  C   LIG    1       25.079 -24.701   4.923  0.00  0.00    +0.068 C 
BRANCH  29  31
ATOM     31  C   LIG    1       25.735 -23.270   6.941  0.00  0.00    +0.349 C 
ATOM     32  O   LIG    1       26.126 -23.087   8.049  0.00  0.00    -0.246 OA
BRANCH  31  33
ATOM     33  O   LIG    1       25.928 -22.302   5.983  0.00  0.00    -0.478 OA
ATOM     34  H   LIG    1       26.126 -22.550   5.075  0.00  0.00    +0.295 HD
ENDBRANCH  31  33
ENDBRANCH  29  31
BRANCH  29  35
ATOM     35  C   LIG    1       23.424 -24.461   6.655  0.00  0.00    +0.056 C 
ATOM     36  C   LIG    1       22.705 -23.172   6.904  0.00  0.00    +0.008 C 
ENDBRANCH  29  35
ENDBRANCH  28  29
ENDBRANCH  24  28
ENDBRANCH   1  22
TORSDOF 12
ENDMDL
MODEL 9
REMARK VINA RESULT:      -8.2      4.284      9.256
REMARK  Name = *****
REMARK                            x       y       z     vdW  Elec       q    Type
REMARK                         _______ _______ _______ _____ _____    ______ ____
ROOT
ATOM      1  C   LIG    1       25.238 -30.096   8.887  0.00  0.00    +0.021 C 
ATOM      2  C   LIG    1       26.273 -31.214   8.563  0.00  0.00    +0.016 C 
ATOM      3  C   LIG    1       26.311 -32.418   9.513  0.00  0.00    +0.001 C 
ATOM      4  C   LIG    1       24.946 -33.028   9.750  0.00  0.00    +0.000 C 
ATOM      5  C   LIG    1       23.912 -31.994  10.151  0.00  0.00    +0.001 C 
ATOM      6  C   LIG    1       23.893 -30.832   9.169  0.00  0.00    +0.016 C 
ENDROOT
BRANCH   1  10
ATOM      7  C   LIG    1       26.681 -27.984  12.517  0.00  0.00    +0.122 A 
ATOM      8  C   LIG    1       25.367 -28.363  12.457  0.00  0.00    +0.046 A 
ATOM      9  C   LIG    1       24.877 -29.004  11.289  0.00  0.00    +0.008 A 
ATOM     10  C   LIG    1       25.647 -29.319  10.150  0.00  0.00    -0.037 A 
ATOM     11  C   LIG    1       26.912 -28.829  10.209  0.00  0.00    +0.008 A 
ATOM     12  C   LIG    1       27.351 -28.186  11.338  0.00  0.00    +0.046 A 
BRANCH   7  13
ATOM     13  O   LIG    1       27.233 -27.482  13.666  0.00  0.00    -0.475 OA
BRANCH  13  14
ATOM     14  C   LIG    1       26.853 -26.146  14.128  0.00  0.00    +0.203 C 
ATOM     15  C   LIG    1       26.275 -25.324  12.960  0.00  0.00    +0.068 C 
BRANCH  14  17
ATOM     16  C   LIG    1       24.554 -25.608  15.455  0.00  0.00    +0.008 C 
ATOM     17  C   LIG    1       25.963 -26.153  15.422  0.00  0.00    +0.056 C 
ENDBRANCH  14  17
BRANCH  14  18
ATOM     18  C   LIG    1       28.126 -25.383  14.696  0.00  0.00    +0.349 C 
ATOM     19  O   LIG    1       28.172 -24.147  14.856  0.00  0.00    -0.246 OA
BRANCH  18  20
ATOM     20  O   LIG    1       29.264 -26.088  14.884  0.00  0.00    -0.478 OA
ATOM     21  H   LIG    1       30.109 -25.662  14.670  0.00  0.00    +0.295 HD
ENDBRANCH  18  20
ENDBRANCH  14  18
ENDBRANCH  13  14
ENDBRANCH   7  13
ENDBRANCH   1  10
BRANCH   1  22
ATOM     22  C   LIG    1       25.112 -29.098   7.607  0.00  0.00    -0.033 A 
ATOM     23  C   LIG    1       25.754 -27.822   7.523  0.00  0.00    +0.050 A 
ATOM     24  C   LIG    1       25.507 -26.843   6.566  0.00  0.00    +0.122 A 
ATOM     25  C   LIG    1       24.888 -27.287   5.407  0.00  0.00    +0.045 A 
ATOM     26  C   LIG    1       24.398 -28.603   5.332  0.00  0.00    +0.004 A 
ATOM     27  C   LIG    1       24.457 -29.475   6.435  0.00  0.00    +0.005 A 
BRANCH  24  28
ATOM     28  O   LIG    1       25.865 -25.526   6.649  0.00  0.00    -0.475 OA
BRANCH  28  29
ATOM     29  C   LIG    1       25.012 -24.369   6.382  0.00  0.00    +0.203 C 
ATOM     30  C   LIG    1       24.958 -24.315   4.819  0.00  0.00    +0.068 C 
BRANCH  29  31
ATOM     31  C   LIG    1       25.685 -23.053   6.924  0.00  0.00    +0.349 C 
ATOM     32  O   LIG    1       25.951 -22.865   8.067  0.00  0.00    -0.246 OA
BRANCH  31  33
ATOM     33  O   LIG    1       25.957 -22.078   5.993  0.00  0.00    -0.478 OA
ATOM     34  H   LIG    1       25.759 -21.157   6.182  0.00  0.00    +0.295 HD
ENDBRANCH  31  33
ENDBRANCH  29  31
BRANCH  29  35
ATOM     35  C   LIG    1       23.484 -24.451   6.718  0.00  0.00    +0.056 C 
ATOM     36  C   LIG    1       22.570 -23.265   6.723  0.00  0.00    +0.008 C 
ENDBRANCH  29  35
ENDBRANCH  28  29
ENDBRANCH  24  28
ENDBRANCH   1  22
TORSDOF 12
ENDMDL
