MODEL 1
REMARK VINA RESULT:      -7.8      0.000      0.000
REMARK  Name = *****
REMARK                            x       y       z     vdW  Elec       q    Type
REMARK                         _______ _______ _______ _____ _____    ______ ____
ROOT
ATOM      1  C   LIG    1       25.730 -20.612   7.171  0.00  0.00    +0.090 C 
ATOM      2  C   LIG    1       25.702 -20.388   5.669  0.00  0.00    +0.270 C 
ATOM      3  O   LIG    1       24.649 -20.423   5.038  0.00  0.00    -0.266 OA
ATOM      4  N   LIG    1       26.909 -20.119   5.072  0.00  0.00    -0.327 N 
ATOM      5  H   LIG    1       26.879 -19.982   4.069  0.00  0.00    +0.168 HD
ATOM      6  C   LIG    1       28.096 -20.021   5.750  0.00  0.00    +0.094 C 
ATOM      7  C   LIG    1       28.146 -20.186   7.084  0.00  0.00    +0.000 C 
ATOM      8  C   LIG    1       26.913 -20.488   7.795  0.00  0.00    +0.038 C 
ENDROOT
BRANCH   7   9
ATOM      9  C   LIG    1       29.449 -20.074   7.761  0.00  0.00    -0.014 A 
ATOM     10  C   LIG    1       30.060 -21.195   8.325  0.00  0.00    +0.028 A 
ATOM     11  C   LIG    1       31.289 -21.033   8.942  0.00  0.00    +0.111 A 
ATOM     12  N   LIG    1       31.934 -19.850   9.029  0.00  0.00    -0.263 NA
ATOM     13  C   LIG    1       31.326 -18.781   8.473  0.00  0.00    +0.111 A 
ATOM     14  C   LIG    1       30.099 -18.841   7.834  0.00  0.00    +0.028 A 
ENDBRANCH   7   9
BRANCH   1  15
ATOM     15  N   LIG    1       24.529 -20.904   7.796  0.00  0.00    -0.354 N 
ATOM     16  H   LIG    1       24.603 -21.781   8.320  0.00  0.00    +0.142 HD
ATOM     17  H   LIG    1       23.729 -20.877   7.174  0.00  0.00    +0.142 HD
ENDBRANCH   1  15
TORSDOF 2
ENDMDL
MODEL 2
REMARK VINA RESULT:      -7.4      2.639      5.569
REMARK  Name = *****
REMARK                            x       y       z     vdW  Elec       q    Type
REMARK                         _______ _______ _______ _____ _____    ______ ____
ROOT
ATOM      1  C   LIG    1       30.318 -18.934   8.459  0.00  0.00    +0.090 C 
ATOM      2  C   LIG    1       31.079 -20.225   8.705  0.00  0.00    +0.270 C 
ATOM      3  O   LIG    1       32.204 -20.218   9.198  0.00  0.00    -0.266 OA
ATOM      4  N   LIG    1       30.428 -21.387   8.376  0.00  0.00    -0.327 N 
ATOM      5  H   LIG    1       30.949 -22.241   8.535  0.00  0.00    +0.168 HD
ATOM      6  C   LIG    1       29.153 -21.438   7.873  0.00  0.00    +0.094 C 
ATOM      7  C   LIG    1       28.445 -20.312   7.671  0.00  0.00    +0.000 C 
ATOM      8  C   LIG    1       29.066 -19.033   7.982  0.00  0.00    +0.038 C 
ENDROOT
BRANCH   7   9
ATOM      9  C   LIG    1       27.081 -20.424   7.125  0.00  0.00    -0.014 A 
ATOM     10  C   LIG    1       26.845 -20.278   5.758  0.00  0.00    +0.028 A 
ATOM     11  C   LIG    1       25.544 -20.401   5.299  0.00  0.00    +0.111 A 
ATOM     12  N   LIG    1       24.487 -20.657   6.100  0.00  0.00    -0.263 NA
ATOM     13  C   LIG    1       24.742 -20.798   7.418  0.00  0.00    +0.111 A 
ATOM     14  C   LIG    1       26.006 -20.694   7.974  0.00  0.00    +0.028 A 
ENDBRANCH   7   9
BRANCH   1  15
ATOM     15  N   LIG    1       30.959 -17.745   8.764  0.00  0.00    -0.354 N 
ATOM     16  H   LIG    1       31.849 -17.929   9.235  0.00  0.00    +0.142 HD
ATOM     17  H   LIG    1       30.374 -17.083   9.262  0.00  0.00    +0.142 HD
ENDBRANCH   1  15
TORSDOF 2
ENDMDL
MODEL 3
REMARK VINA RESULT:      -7.4      2.646      5.497
REMARK  Name = *****
REMARK                            x       y       z     vdW  Elec       q    Type
REMARK                         _______ _______ _______ _____ _____    ______ ____
ROOT
ATOM      1  C   LIG    1       30.701 -21.166   8.498  0.00  0.00    +0.090 C 
ATOM      2  C   LIG    1       31.141 -19.746   8.809  0.00  0.00    +0.270 C 
ATOM      3  O   LIG    1       32.273 -19.506   9.219  0.00  0.00    -0.266 OA
ATOM      4  N   LIG    1       30.217 -18.758   8.578  0.00  0.00    -0.327 N 
ATOM      5  H   LIG    1       30.519 -17.817   8.798  0.00  0.00    +0.168 HD
ATOM      6  C   LIG    1       28.963 -18.983   8.072  0.00  0.00    +0.094 C 
ATOM      7  C   LIG    1       28.556 -20.226   7.760  0.00  0.00    +0.000 C 
ATOM      8  C   LIG    1       29.470 -21.336   7.987  0.00  0.00    +0.038 C 
ENDROOT
BRANCH   7   9
ATOM      9  C   LIG    1       27.196 -20.411   7.224  0.00  0.00    -0.014 A 
ATOM     10  C   LIG    1       26.129 -20.715   8.070  0.00  0.00    +0.028 A 
ATOM     11  C   LIG    1       24.871 -20.869   7.512  0.00  0.00    +0.111 A 
ATOM     12  N   LIG    1       24.615 -20.742   6.192  0.00  0.00    -0.263 NA
ATOM     13  C   LIG    1       25.663 -20.443   5.395  0.00  0.00    +0.111 A 
ATOM     14  C   LIG    1       26.957 -20.269   5.856  0.00  0.00    +0.028 A 
ENDBRANCH   7   9
BRANCH   1  15
ATOM     15  N   LIG    1       31.607 -22.185   8.740  0.00  0.00    -0.354 N 
ATOM     16  H   LIG    1       32.519 -21.798   8.996  0.00  0.00    +0.142 HD
ATOM     17  H   LIG    1       31.658 -22.870   7.994  0.00  0.00    +0.142 HD
ENDBRANCH   1  15
TORSDOF 2
ENDMDL
MODEL 4
REMARK VINA RESULT:      -7.4      0.683      2.165
REMARK  Name = *****
REMARK                            x       y       z     vdW  Elec       q    Type
REMARK                         _______ _______ _______ _____ _____    ______ ____
ROOT
ATOM      1  C   LIG    1       26.386 -20.245   5.437  0.00  0.00    +0.090 C 
ATOM      2  C   LIG    1       25.249 -20.527   6.403  0.00  0.00    +0.270 C 
ATOM      3  O   LIG    1       24.099 -20.691   6.004  0.00  0.00    -0.266 OA
ATOM      4  N   LIG    1       25.587 -20.617   7.731  0.00  0.00    -0.327 N 
ATOM      5  H   LIG    1       24.820 -20.795   8.366  0.00  0.00    +0.168 HD
ATOM      6  C   LIG    1       26.867 -20.491   8.208  0.00  0.00    +0.094 C 
ATOM      7  C   LIG    1       27.897 -20.270   7.372  0.00  0.00    +0.000 C 
ATOM      8  C   LIG    1       27.625 -20.148   5.947  0.00  0.00    +0.038 C 
ENDROOT
BRANCH   7   9
ATOM      9  C   LIG    1       29.250 -20.139   7.938  0.00  0.00    -0.014 A 
ATOM     10  C   LIG    1       29.825 -18.882   8.133  0.00  0.00    +0.028 A 
ATOM     11  C   LIG    1       31.097 -18.819   8.677  0.00  0.00    +0.111 A 
ATOM     12  N   LIG    1       31.816 -19.906   9.033  0.00  0.00    -0.263 NA
ATOM     13  C   LIG    1       31.237 -21.110   8.839  0.00  0.00    +0.111 A 
ATOM     14  C   LIG    1       29.971 -21.278   8.303  0.00  0.00    +0.028 A 
ENDBRANCH   7   9
BRANCH   1  15
ATOM     15  N   LIG    1       26.070 -20.130   4.093  0.00  0.00    -0.354 N 
ATOM     16  H   LIG    1       26.840 -19.690   3.581  0.00  0.00    +0.142 HD
ATOM     17  H   LIG    1       25.173 -19.689   3.922  0.00  0.00    +0.142 HD
ENDBRANCH   1  15
TORSDOF 2
ENDMDL
MODEL 5
REMARK VINA RESULT:      -7.2      1.496      2.128
REMARK  Name = *****
REMARK                            x       y       z     vdW  Elec       q    Type
REMARK                         _______ _______ _______ _____ _____    ______ ____
ROOT
ATOM      1  C   LIG    1       25.145 -20.671   5.849  0.00  0.00    +0.090 C 
ATOM      2  C   LIG    1       24.388 -20.827   7.156  0.00  0.00    +0.270 C 
ATOM      3  O   LIG    1       23.180 -21.053   7.170  0.00  0.00    -0.266 OA
ATOM      4  N   LIG    1       25.132 -20.731   8.305  0.00  0.00    -0.327 N 
ATOM      5  H   LIG    1       24.614 -20.827   9.170  0.00  0.00    +0.168 HD
ATOM      6  C   LIG    1       26.488 -20.532   8.328  0.00  0.00    +0.094 C 
ATOM      7  C   LIG    1       27.189 -20.420   7.186  0.00  0.00    +0.000 C 
ATOM      8  C   LIG    1       26.476 -20.496   5.920  0.00  0.00    +0.038 C 
ENDROOT
BRANCH   7   9
ATOM      9  C   LIG    1       28.644 -20.203   7.268  0.00  0.00    -0.014 A 
ATOM     10  C   LIG    1       29.435 -20.977   8.118  0.00  0.00    +0.028 A 
ATOM     11  C   LIG    1       30.798 -20.735   8.148  0.00  0.00    +0.111 A 
ATOM     12  N   LIG    1       31.409 -19.791   7.400  0.00  0.00    -0.263 NA
ATOM     13  C   LIG    1       30.623 -19.058   6.583  0.00  0.00    +0.111 A 
ATOM     14  C   LIG    1       29.252 -19.224   6.481  0.00  0.00    +0.028 A 
ENDBRANCH   7   9
BRANCH   1  15
ATOM     15  N   LIG    1       24.416 -20.744   4.674  0.00  0.00    -0.354 N 
ATOM     16  H   LIG    1       25.028 -20.612   3.864  0.00  0.00    +0.142 HD
ATOM     17  H   LIG    1       23.602 -20.140   4.662  0.00  0.00    +0.142 HD
ENDBRANCH   1  15
TORSDOF 2
ENDMDL
MODEL 6
REMARK VINA RESULT:      -7.2      1.469      2.411
REMARK  Name = *****
REMARK                            x       y       z     vdW  Elec       q    Type
REMARK                         _______ _______ _______ _____ _____    ______ ____
ROOT
ATOM      1  C   LIG    1       25.167 -20.652   5.829  0.00  0.00    +0.090 C 
ATOM      2  C   LIG    1       24.403 -20.818   7.131  0.00  0.00    +0.270 C 
ATOM      3  O   LIG    1       23.194 -21.034   7.137  0.00  0.00    -0.266 OA
ATOM      4  N   LIG    1       25.143 -20.742   8.285  0.00  0.00    -0.327 N 
ATOM      5  H   LIG    1       24.621 -20.844   9.146  0.00  0.00    +0.168 HD
ATOM      6  C   LIG    1       26.500 -20.553   8.315  0.00  0.00    +0.094 C 
ATOM      7  C   LIG    1       27.207 -20.432   7.178  0.00  0.00    +0.000 C 
ATOM      8  C   LIG    1       26.498 -20.487   5.908  0.00  0.00    +0.038 C 
ENDROOT
BRANCH   7   9
ATOM      9  C   LIG    1       28.663 -20.227   7.268  0.00  0.00    -0.014 A 
ATOM     10  C   LIG    1       29.290 -19.221   6.532  0.00  0.00    +0.028 A 
ATOM     11  C   LIG    1       30.660 -19.068   6.663  0.00  0.00    +0.111 A 
ATOM     12  N   LIG    1       31.428 -19.837   7.466  0.00  0.00    -0.263 NA
ATOM     13  C   LIG    1       30.797 -20.800   8.171  0.00  0.00    +0.111 A 
ATOM     14  C   LIG    1       29.433 -21.031   8.110  0.00  0.00    +0.028 A 
ENDBRANCH   7   9
BRANCH   1  15
ATOM     15  N   LIG    1       24.442 -20.705   4.650  0.00  0.00    -0.354 N 
ATOM     16  H   LIG    1       25.069 -20.662   3.843  0.00  0.00    +0.142 HD
ATOM     17  H   LIG    1       23.687 -20.029   4.606  0.00  0.00    +0.142 HD
ENDBRANCH   1  15
TORSDOF 2
ENDMDL
MODEL 7
REMARK VINA RESULT:      -7.2      2.534      5.453
REMARK  Name = *****
REMARK                            x       y       z     vdW  Elec       q    Type
REMARK                         _______ _______ _______ _____ _____    ______ ____
ROOT
ATOM      1  C   LIG    1       29.958 -20.846   7.827  0.00  0.00    +0.090 C 
ATOM      2  C   LIG    1       30.651 -19.746   7.042  0.00  0.00    +0.270 C 
ATOM      3  O   LIG    1       31.858 -19.545   7.156  0.00  0.00    -0.266 OA
ATOM      4  N   LIG    1       29.862 -19.020   6.185  0.00  0.00    -0.327 N 
ATOM      5  H   LIG    1       30.333 -18.284   5.674  0.00  0.00    +0.168 HD
ATOM      6  C   LIG    1       28.524 -19.250   5.992  0.00  0.00    +0.094 C 
ATOM      7  C   LIG    1       27.890 -20.235   6.653  0.00  0.00    +0.000 C 
ATOM      8  C   LIG    1       28.650 -21.046   7.593  0.00  0.00    +0.038 C 
ENDROOT
BRANCH   7   9
ATOM      9  C   LIG    1       26.451 -20.435   6.412  0.00  0.00    -0.014 A 
ATOM     10  C   LIG    1       25.923 -20.345   5.123  0.00  0.00    +0.028 A 
ATOM     11  C   LIG    1       24.564 -20.552   4.954  0.00  0.00    +0.111 A 
ATOM     12  N   LIG    1       23.717 -20.837   5.966  0.00  0.00    -0.263 NA
ATOM     13  C   LIG    1       24.252 -20.923   7.202  0.00  0.00    +0.111 A 
ATOM     14  C   LIG    1       25.597 -20.735   7.474  0.00  0.00    +0.028 A 
ENDBRANCH   7   9
BRANCH   1  15
ATOM     15  N   LIG    1       30.727 -21.581   8.714  0.00  0.00    -0.354 N 
ATOM     16  H   LIG    1       30.130 -22.054   9.398  0.00  0.00    +0.142 HD
ATOM     17  H   LIG    1       31.478 -21.049   9.139  0.00  0.00    +0.142 HD
ENDBRANCH   1  15
TORSDOF 2
ENDMDL
MODEL 8
REMARK VINA RESULT:      -7.1      2.629      5.573
REMARK  Name = *****
REMARK                            x       y       z     vdW  Elec       q    Type
REMARK                         _______ _______ _______ _____ _____    ______ ____
ROOT
ATOM      1  C   LIG    1       28.871 -19.324   5.884  0.00  0.00    +0.090 C 
ATOM      2  C   LIG    1       29.958 -19.877   6.790  0.00  0.00    +0.270 C 
ATOM      3  O   LIG    1       31.083 -19.383   6.811  0.00  0.00    -0.266 OA
ATOM      4  N   LIG    1       29.602 -20.930   7.595  0.00  0.00    -0.327 N 
ATOM      5  H   LIG    1       30.338 -21.296   8.187  0.00  0.00    +0.168 HD
ATOM      6  C   LIG    1       28.344 -21.474   7.636  0.00  0.00    +0.094 C 
ATOM      7  C   LIG    1       27.355 -20.986   6.867  0.00  0.00    +0.000 C 
ATOM      8  C   LIG    1       27.650 -19.876   5.972  0.00  0.00    +0.038 C 
ENDROOT
BRANCH   7   9
ATOM      9  C   LIG    1       26.023 -21.611   6.948  0.00  0.00    -0.014 A 
ATOM     10  C   LIG    1       24.884 -20.838   7.180  0.00  0.00    +0.028 A 
ATOM     11  C   LIG    1       23.658 -21.478   7.238  0.00  0.00    +0.111 A 
ATOM     12  N   LIG    1       23.498 -22.810   7.081  0.00  0.00    -0.263 NA
ATOM     13  C   LIG    1       24.613 -23.535   6.854  0.00  0.00    +0.111 A 
ATOM     14  C   LIG    1       25.884 -22.989   6.778  0.00  0.00    +0.028 A 
ENDBRANCH   7   9
BRANCH   1  15
ATOM     15  N   LIG    1       29.209 -18.273   5.047  0.00  0.00    -0.354 N 
ATOM     16  H   LIG    1       28.942 -17.380   5.469  0.00  0.00    +0.142 HD
ATOM     17  H   LIG    1       28.869 -18.384   4.098  0.00  0.00    +0.142 HD
ENDBRANCH   1  15
TORSDOF 2
ENDMDL
MODEL 9
REMARK VINA RESULT:      -6.7      4.873      6.682
REMARK  Name = *****
REMARK                            x       y       z     vdW  Elec       q    Type
REMARK                         _______ _______ _______ _____ _____    ______ ____
ROOT
ATOM      1  C   LIG    1       26.319 -26.508   5.668  0.00  0.00    +0.090 C 
ATOM      2  C   LIG    1       25.033 -27.260   5.374  0.00  0.00    +0.270 C 
ATOM      3  O   LIG    1       25.051 -28.410   4.943  0.00  0.00    -0.266 OA
ATOM      4  N   LIG    1       23.864 -26.594   5.646  0.00  0.00    -0.327 N 
ATOM      5  H   LIG    1       23.013 -27.102   5.436  0.00  0.00    +0.168 HD
ATOM      6  C   LIG    1       23.804 -25.331   6.175  0.00  0.00    +0.094 C 
ATOM      7  C   LIG    1       24.927 -24.653   6.472  0.00  0.00    +0.000 C 
ATOM      8  C   LIG    1       26.212 -25.281   6.204  0.00  0.00    +0.038 C 
ENDROOT
BRANCH   7   9
ATOM      9  C   LIG    1       24.805 -23.297   7.036  0.00  0.00    -0.014 A 
ATOM     10  C   LIG    1       23.635 -22.556   6.868  0.00  0.00    +0.028 A 
ATOM     11  C   LIG    1       23.574 -21.290   7.427  0.00  0.00    +0.111 A 
ATOM     12  N   LIG    1       24.583 -20.730   8.129  0.00  0.00    -0.263 NA
ATOM     13  C   LIG    1       25.702 -21.469   8.281  0.00  0.00    +0.111 A 
ATOM     14  C   LIG    1       25.861 -22.743   7.762  0.00  0.00    +0.028 A 
ENDBRANCH   7   9
BRANCH   1  15
ATOM     15  N   LIG    1       27.514 -27.150   5.386  0.00  0.00    -0.354 N 
ATOM     16  H   LIG    1       27.746 -27.052   4.394  0.00  0.00    +0.142 HD
ATOM     17  H   LIG    1       27.547 -28.109   5.711  0.00  0.00    +0.142 HD
ENDBRANCH   1  15
TORSDOF 2
ENDMDL
