MODEL 1
REMARK VINA RESULT:      -4.8      0.000      0.000
REMARK  Name = *****
REMARK                            x       y       z     vdW  Elec       q    Type
REMARK                         _______ _______ _______ _____ _____    ______ ____
ROOT
ATOM      1  C   LIG    1       24.670 -31.560  10.704  0.00  0.00    +0.147 C 
ATOM      2  C   LIG    1       23.656 -30.478  11.133  0.00  0.00    +0.068 C 
ATOM      3  C   LIG    1       22.441 -30.900  11.967  0.00  0.00    +0.141 C 
ATOM      4  O   LIG    1       22.889 -31.187  13.292  0.00  0.00    -0.344 OA
ATOM      5  C   LIG    1       21.872 -31.537  14.216  0.00  0.00    +0.172 C 
ATOM      6  C   LIG    1       20.465 -31.597  13.615  0.00  0.00    +0.097 C 
ATOM      7  C   LIG    1       20.463 -32.424  12.325  0.00  0.00    +0.136 C 
ATOM      8  C   LIG    1       21.972 -30.649  15.471  0.00  0.00    +0.096 C 
ATOM      9  C   LIG    1       22.211 -29.127  15.325  0.00  0.00    +0.122 C 
ATOM     10  C   LIG    1       20.985 -28.213  15.500  0.00  0.00    +0.066 C 
ATOM     11  C   LIG    1       20.286 -27.807  14.231  0.00  0.00    +0.154 C 
ATOM     12  C   LIG    1       20.560 -26.515  13.469  0.00  0.00    +0.171 C 
ATOM     13  C   LIG    1       21.771 -25.751  13.784  0.00  0.00    +0.014 C 
ATOM     14  C   LIG    1       22.969 -25.930  13.207  0.00  0.00    +0.090 C 
ATOM     15  C   LIG    1       24.167 -25.332  13.828  0.00  0.00    +0.332 C 
ATOM     16  O   LIG    1       24.162 -24.500  14.710  0.00  0.00    -0.246 OA
ATOM     17  O   LIG    1       25.248 -25.998  13.343  0.00  0.00    -0.458 OA
ATOM     18  C   LIG    1       26.434 -25.921  14.160  0.00  0.00    +0.177 C 
ATOM     19  C   LIG    1       27.206 -24.651  13.815  0.00  0.00    +0.052 C 
ATOM     20  C   LIG    1       27.301 -27.160  13.867  0.00  0.00    +0.071 C 
ATOM     21  C   LIG    1       26.580 -28.469  14.073  0.00  0.00    -0.023 C 
ATOM     22  C   LIG    1       27.115 -29.541  14.677  0.00  0.00    -0.004 C 
ATOM     23  C   LIG    1       26.450 -30.824  14.689  0.00  0.00    -0.000 C 
ATOM     24  C   LIG    1       27.129 -31.975  14.790  0.00  0.00    +0.000 C 
ATOM     25  C   LIG    1       26.578 -33.303  14.655  0.00  0.00    +0.000 C 
ATOM     26  C   LIG    1       25.778 -33.819  13.707  0.00  0.00    -0.000 C 
ATOM     27  C   LIG    1       25.111 -33.228  12.562  0.00  0.00    -0.002 C 
ATOM     28  O   LIG    1       19.471 -26.637  14.397  0.00  0.00    -0.364 OA
ATOM     29  C   LIG    1       21.624 -32.064  11.392  0.00  0.00    +0.155 C 
ATOM     30  C   LIG    1       25.451 -32.130  11.867  0.00  0.00    +0.004 C 
ENDROOT
BRANCH   7  31
ATOM     31  O   LIG    1       20.547 -33.824  12.618  0.00  0.00    -0.391 OA
ATOM     32  H   LIG    1       19.641 -34.120  12.859  0.00  0.00    +0.210 HD
ENDBRANCH   7  31
BRANCH   5  33
ATOM     33  O   LIG    1       22.172 -32.886  14.598  0.00  0.00    -0.364 OA
ATOM     34  H   LIG    1       21.899 -32.950  15.532  0.00  0.00    +0.213 HD
ENDBRANCH   5  33
BRANCH   9  35
ATOM     35  O   LIG    1       22.943 -28.777  14.164  0.00  0.00    -0.392 OA
ATOM     36  H   LIG    1       23.787 -29.266  14.191  0.00  0.00    +0.210 HD
ENDBRANCH   9  35
BRANCH  29  37
ATOM     37  C   LIG    1       21.043 -31.699  10.046  0.00  0.00    +0.313 C 
ATOM     38  O   LIG    1       20.386 -30.690   9.834  0.00  0.00    -0.251 OA
BRANCH  37  39
ATOM     39  O   LIG    1       21.296 -32.610   9.083  0.00  0.00    -0.480 OA
ATOM     40  H   LIG    1       21.633 -32.234   8.244  0.00  0.00    +0.295 HD
ENDBRANCH  37  39
ENDBRANCH  29  37
BRANCH   1  41
ATOM     41  O   LIG    1       25.650 -30.996   9.808  0.00  0.00    -0.341 OA
BRANCH  41  47
ATOM     42  C   LIG    1       26.066 -31.976   5.220  0.00  0.00    +0.040 C 
ATOM     43  C   LIG    1       25.285 -31.111   6.201  0.00  0.00    +0.148 C 
ATOM     44  C   LIG    1       25.388 -29.618   5.843  0.00  0.00    +0.162 C 
ATOM     45  C   LIG    1       24.713 -28.759   6.935  0.00  0.00    +0.116 C 
ATOM     46  C   LIG    1       25.278 -29.121   8.317  0.00  0.00    +0.189 C 
ATOM     47  C   LIG    1       25.129 -30.643   8.522  0.00  0.00    +0.281 C 
ATOM     48  O   LIG    1       25.822 -31.361   7.507  0.00  0.00    -0.343 OA
BRANCH  45  49
ATOM     49  N   LIG    1       24.892 -27.324   6.606  0.00  0.00    -0.323 NA
ATOM     50  H   LIG    1       23.987 -26.857   6.691  0.00  0.00    +0.119 HD
ATOM     51  H   LIG    1       25.439 -26.922   7.379  0.00  0.00    +0.119 HD
ENDBRANCH  45  49
BRANCH  44  52
ATOM     52  O   LIG    1       24.757 -29.346   4.591  0.00  0.00    -0.388 OA
ATOM     53  H   LIG    1       25.501 -29.234   3.964  0.00  0.00    +0.210 HD
ENDBRANCH  44  52
BRANCH  46  54
ATOM     54  O   LIG    1       26.657 -28.718   8.384  0.00  0.00    -0.385 OA
ATOM     55  H   LIG    1       27.174 -29.499   8.101  0.00  0.00    +0.210 HD
ENDBRANCH  46  54
ENDBRANCH  41  47
ENDBRANCH   1  41
TORSDOF 10
ENDMDL
MODEL 2
REMARK VINA RESULT:      -4.6      2.304      4.759
REMARK  Name = *****
REMARK                            x       y       z     vdW  Elec       q    Type
REMARK                         _______ _______ _______ _____ _____    ______ ____
ROOT
ATOM      1  C   LIG    1       24.470 -29.829   9.520  0.00  0.00    +0.147 C 
ATOM      2  C   LIG    1       23.448 -30.640  10.346  0.00  0.00    +0.068 C 
ATOM      3  C   LIG    1       23.965 -31.749  11.268  0.00  0.00    +0.141 C 
ATOM      4  O   LIG    1       24.583 -31.134  12.399  0.00  0.00    -0.344 OA
ATOM      5  C   LIG    1       25.066 -32.027  13.390  0.00  0.00    +0.172 C 
ATOM      6  C   LIG    1       24.885 -33.509  13.048  0.00  0.00    +0.097 C 
ATOM      7  C   LIG    1       25.388 -33.802  11.629  0.00  0.00    +0.136 C 
ATOM      8  C   LIG    1       24.503 -31.638  14.770  0.00  0.00    +0.096 C 
ATOM      9  C   LIG    1       23.010 -31.261  14.918  0.00  0.00    +0.122 C 
ATOM     10  C   LIG    1       22.077 -32.338  15.500  0.00  0.00    +0.066 C 
ATOM     11  C   LIG    1       21.339 -33.178  14.494  0.00  0.00    +0.154 C 
ATOM     12  C   LIG    1       19.928 -32.887  13.994  0.00  0.00    +0.171 C 
ATOM     13  C   LIG    1       19.345 -31.566  14.249  0.00  0.00    +0.014 C 
ATOM     14  C   LIG    1       19.469 -30.498  13.445  0.00  0.00    +0.090 C 
ATOM     15  C   LIG    1       19.119 -29.161  13.961  0.00  0.00    +0.332 C 
ATOM     16  O   LIG    1       18.515 -28.938  14.989  0.00  0.00    -0.246 OA
ATOM     17  O   LIG    1       19.728 -28.247  13.160  0.00  0.00    -0.458 OA
ATOM     18  C   LIG    1       19.926 -26.947  13.752  0.00  0.00    +0.177 C 
ATOM     19  C   LIG    1       18.669 -26.105  13.561  0.00  0.00    +0.052 C 
ATOM     20  C   LIG    1       21.122 -26.277  13.049  0.00  0.00    +0.071 C 
ATOM     21  C   LIG    1       22.388 -27.094  13.090  0.00  0.00    -0.023 C 
ATOM     22  C   LIG    1       23.606 -26.591  13.343  0.00  0.00    -0.004 C 
ATOM     23  C   LIG    1       24.807 -27.382  13.193  0.00  0.00    -0.000 C 
ATOM     24  C   LIG    1       25.995 -26.824  12.920  0.00  0.00    +0.000 C 
ATOM     25  C   LIG    1       27.213 -27.530  12.600  0.00  0.00    +0.000 C 
ATOM     26  C   LIG    1       27.436 -28.519  11.718  0.00  0.00    -0.000 C 
ATOM     27  C   LIG    1       26.550 -29.288  10.865  0.00  0.00    -0.002 C 
ATOM     28  O   LIG    1       20.185 -33.825  15.050  0.00  0.00    -0.364 OA
ATOM     29  C   LIG    1       24.904 -32.768  10.607  0.00  0.00    +0.155 C 
ATOM     30  C   LIG    1       25.347 -28.942  10.375  0.00  0.00    +0.004 C 
ENDROOT
BRANCH   7  31
ATOM     31  O   LIG    1       26.820 -33.825  11.592  0.00  0.00    -0.391 OA
ATOM     32  H   LIG    1       27.098 -34.716  11.901  0.00  0.00    +0.210 HD
ENDBRANCH   7  31
BRANCH   5  33
ATOM     33  O   LIG    1       26.484 -31.820  13.410  0.00  0.00    -0.364 OA
ATOM     34  H   LIG    1       26.849 -32.615  13.842  0.00  0.00    +0.213 HD
ENDBRANCH   5  33
BRANCH   9  35
ATOM     35  O   LIG    1       22.452 -30.684  13.750  0.00  0.00    -0.392 OA
ATOM     36  H   LIG    1       21.695 -31.240  13.483  0.00  0.00    +0.210 HD
ENDBRANCH   9  35
BRANCH  29  37
ATOM     37  C   LIG    1       24.196 -33.507   9.497  0.00  0.00    +0.313 C 
ATOM     38  O   LIG    1       23.015 -33.824   9.528  0.00  0.00    -0.251 OA
BRANCH  37  39
ATOM     39  O   LIG    1       24.998 -33.816   8.456  0.00  0.00    -0.480 OA
ATOM     40  H   LIG    1       24.643 -34.504   7.856  0.00  0.00    +0.295 HD
ENDBRANCH  37  39
ENDBRANCH  29  37
BRANCH   1  41
ATOM     41  O   LIG    1       23.783 -28.944   8.610  0.00  0.00    -0.341 OA
BRANCH  41  47
ATOM     42  C   LIG    1       24.354 -25.255   5.737  0.00  0.00    +0.040 C 
ATOM     43  C   LIG    1       24.948 -26.614   6.086  0.00  0.00    +0.148 C 
ATOM     44  C   LIG    1       25.028 -27.528   4.851  0.00  0.00    +0.162 C 
ATOM     45  C   LIG    1       25.494 -28.942   5.262  0.00  0.00    +0.116 C 
ATOM     46  C   LIG    1       24.608 -29.483   6.395  0.00  0.00    +0.189 C 
ATOM     47  C   LIG    1       24.605 -28.454   7.545  0.00  0.00    +0.281 C 
ATOM     48  O   LIG    1       24.113 -27.194   7.097  0.00  0.00    -0.343 OA
BRANCH  45  49
ATOM     49  N   LIG    1       25.490 -29.823   4.068  0.00  0.00    -0.323 NA
ATOM     50  H   LIG    1       25.195 -30.757   4.358  0.00  0.00    +0.119 HD
ATOM     51  H   LIG    1       24.710 -29.500   3.480  0.00  0.00    +0.119 HD
ENDBRANCH  45  49
BRANCH  44  52
ATOM     52  O   LIG    1       25.943 -27.007   3.885  0.00  0.00    -0.388 OA
ATOM     53  H   LIG    1       26.230 -27.792   3.376  0.00  0.00    +0.210 HD
ENDBRANCH  44  52
BRANCH  46  54
ATOM     54  O   LIG    1       23.279 -29.705   5.890  0.00  0.00    -0.385 OA
ATOM     55  H   LIG    1       22.696 -29.122   6.417  0.00  0.00    +0.210 HD
ENDBRANCH  46  54
ENDBRANCH  41  47
ENDBRANCH   1  41
TORSDOF 10
ENDMDL
MODEL 3
REMARK VINA RESULT:      -4.5      2.278      5.027
REMARK  Name = *****
REMARK                            x       y       z     vdW  Elec       q    Type
REMARK                         _______ _______ _______ _____ _____    ______ ____
ROOT
ATOM      1  C   LIG    1       26.192 -28.874   9.242  0.00  0.00    +0.147 C 
ATOM      2  C   LIG    1       24.882 -29.687   9.333  0.00  0.00    +0.068 C 
ATOM      3  C   LIG    1       24.972 -31.202   9.541  0.00  0.00    +0.141 C 
ATOM      4  O   LIG    1       25.364 -31.443  10.893  0.00  0.00    -0.344 OA
ATOM      5  C   LIG    1       25.436 -32.807  11.273  0.00  0.00    +0.172 C 
ATOM      6  C   LIG    1       25.128 -33.795  10.145  0.00  0.00    +0.097 C 
ATOM      7  C   LIG    1       25.928 -33.443   8.885  0.00  0.00    +0.136 C 
ATOM      8  C   LIG    1       24.603 -33.044  12.547  0.00  0.00    +0.096 C 
ATOM      9  C   LIG    1       23.196 -32.414  12.681  0.00  0.00    +0.122 C 
ATOM     10  C   LIG    1       21.994 -33.342  12.435  0.00  0.00    +0.066 C 
ATOM     11  C   LIG    1       21.421 -33.318  11.044  0.00  0.00    +0.154 C 
ATOM     12  C   LIG    1       20.246 -32.449  10.609  0.00  0.00    +0.171 C 
ATOM     13  C   LIG    1       19.824 -31.344  11.476  0.00  0.00    +0.014 C 
ATOM     14  C   LIG    1       20.310 -30.094  11.426  0.00  0.00    +0.090 C 
ATOM     15  C   LIG    1       20.044 -29.171  12.547  0.00  0.00    +0.332 C 
ATOM     16  O   LIG    1       19.238 -29.354  13.434  0.00  0.00    -0.246 OA
ATOM     17  O   LIG    1       20.969 -28.177  12.479  0.00  0.00    -0.458 OA
ATOM     18  C   LIG    1       21.203 -27.471  13.714  0.00  0.00    +0.177 C 
ATOM     19  C   LIG    1       20.178 -26.350  13.859  0.00  0.00    +0.052 C 
ATOM     20  C   LIG    1       22.626 -26.882  13.669  0.00  0.00    +0.071 C 
ATOM     21  C   LIG    1       23.701 -27.909  13.417  0.00  0.00    -0.023 C 
ATOM     22  C   LIG    1       24.875 -27.952  14.065  0.00  0.00    -0.004 C 
ATOM     23  C   LIG    1       25.940 -28.841  13.661  0.00  0.00    -0.000 C 
ATOM     24  C   LIG    1       27.228 -28.563  13.906  0.00  0.00    +0.000 C 
ATOM     25  C   LIG    1       28.367 -29.300  13.412  0.00  0.00    +0.000 C 
ATOM     26  C   LIG    1       28.657 -29.717  12.168  0.00  0.00    -0.000 C 
ATOM     27  C   LIG    1       27.914 -29.674  10.923  0.00  0.00    -0.002 C 
ATOM     28  O   LIG    1       20.079 -33.823  10.988  0.00  0.00    -0.364 OA
ATOM     29  C   LIG    1       25.884 -31.947   8.557  0.00  0.00    +0.155 C 
ATOM     30  C   LIG    1       26.944 -28.821  10.554  0.00  0.00    +0.004 C 
ENDROOT
BRANCH   7  31
ATOM     31  O   LIG    1       27.300 -33.825   9.031  0.00  0.00    -0.391 OA
ATOM     32  H   LIG    1       27.747 -33.099   9.523  0.00  0.00    +0.210 HD
ENDBRANCH   7  31
BRANCH   5  33
ATOM     33  O   LIG    1       26.816 -33.026  11.594  0.00  0.00    -0.364 OA
ATOM     34  H   LIG    1       26.806 -33.688  12.311  0.00  0.00    +0.213 HD
ENDBRANCH   5  33
BRANCH   9  35
ATOM     35  O   LIG    1       23.050 -31.197  11.969  0.00  0.00    -0.392 OA
ATOM     36  H   LIG    1       22.359 -31.334  11.294  0.00  0.00    +0.210 HD
ENDBRANCH   9  35
BRANCH  29  37
ATOM     37  C   LIG    1       25.381 -31.795   7.141  0.00  0.00    +0.313 C 
ATOM     38  O   LIG    1       24.216 -31.955   6.806  0.00  0.00    -0.251 OA
BRANCH  37  39
ATOM     39  O   LIG    1       26.351 -31.485   6.254  0.00  0.00    -0.480 OA
ATOM     40  H   LIG    1       26.140 -31.708   5.324  0.00  0.00    +0.295 HD
ENDBRANCH  37  39
ENDBRANCH  29  37
BRANCH   1  41
ATOM     41  O   LIG    1       25.904 -27.503   8.897  0.00  0.00    -0.341 OA
BRANCH  41  47
ATOM     42  C   LIG    1       25.493 -24.025   5.747  0.00  0.00    +0.040 C 
ATOM     43  C   LIG    1       25.951 -25.471   5.893  0.00  0.00    +0.148 C 
ATOM     44  C   LIG    1       25.229 -26.394   4.897  0.00  0.00    +0.162 C 
ATOM     45  C   LIG    1       25.603 -27.869   5.167  0.00  0.00    +0.116 C 
ATOM     46  C   LIG    1       25.359 -28.214   6.644  0.00  0.00    +0.189 C 
ATOM     47  C   LIG    1       26.121 -27.193   7.516  0.00  0.00    +0.281 C 
ATOM     48  O   LIG    1       25.681 -25.867   7.244  0.00  0.00    -0.343 OA
BRANCH  45  49
ATOM     49  N   LIG    1       24.837 -28.743   4.245  0.00  0.00    -0.323 NA
ATOM     50  H   LIG    1       25.490 -29.383   3.790  0.00  0.00    +0.119 HD
ATOM     51  H   LIG    1       24.276 -29.363   4.844  0.00  0.00    +0.119 HD
ENDBRANCH  45  49
BRANCH  44  52
ATOM     52  O   LIG    1       25.581 -26.072   3.550  0.00  0.00    -0.388 OA
ATOM     53  H   LIG    1       25.493 -26.920   3.068  0.00  0.00    +0.210 HD
ENDBRANCH  44  52
BRANCH  46  54
ATOM     54  O   LIG    1       23.946 -28.176   6.911  0.00  0.00    -0.385 OA
ATOM     55  H   LIG    1       23.849 -28.425   7.853  0.00  0.00    +0.210 HD
ENDBRANCH  46  54
ENDBRANCH  41  47
ENDBRANCH   1  41
TORSDOF 10
ENDMDL
MODEL 4
REMARK VINA RESULT:      -4.5      2.750      7.970
REMARK  Name = *****
REMARK                            x       y       z     vdW  Elec       q    Type
REMARK                         _______ _______ _______ _____ _____    ______ ____
ROOT
ATOM      1  C   LIG    1       22.034 -29.692  13.492  0.00  0.00    +0.147 C 
ATOM      2  C   LIG    1       22.716 -29.054  12.262  0.00  0.00    +0.068 C 
ATOM      3  C   LIG    1       24.076 -28.373  12.449  0.00  0.00    +0.141 C 
ATOM      4  O   LIG    1       25.062 -29.392  12.627  0.00  0.00    -0.344 OA
ATOM      5  C   LIG    1       26.397 -28.931  12.754  0.00  0.00    +0.172 C 
ATOM      6  C   LIG    1       26.546 -27.408  12.729  0.00  0.00    +0.097 C 
ATOM      7  C   LIG    1       25.553 -26.752  13.696  0.00  0.00    +0.136 C 
ATOM      8  C   LIG    1       27.303 -29.657  11.741  0.00  0.00    +0.096 C 
ATOM      9  C   LIG    1       26.829 -29.858  10.283  0.00  0.00    +0.122 C 
ATOM     10  C   LIG    1       27.415 -28.905   9.226  0.00  0.00    +0.066 C 
ATOM     11  C   LIG    1       26.579 -27.699   8.896  0.00  0.00    +0.154 C 
ATOM     12  C   LIG    1       25.588 -27.624   7.740  0.00  0.00    +0.171 C 
ATOM     13  C   LIG    1       25.174 -28.867   7.081  0.00  0.00    +0.014 C 
ATOM     14  C   LIG    1       24.137 -29.632   7.456  0.00  0.00    +0.090 C 
ATOM     15  C   LIG    1       24.022 -31.004   6.925  0.00  0.00    +0.332 C 
ATOM     16  O   LIG    1       24.662 -31.457   5.999  0.00  0.00    -0.246 OA
ATOM     17  O   LIG    1       23.195 -31.690   7.757  0.00  0.00    -0.458 OA
ATOM     18  C   LIG    1       23.336 -33.125   7.715  0.00  0.00    +0.177 C 
ATOM     19  C   LIG    1       22.477 -33.687   6.586  0.00  0.00    +0.052 C 
ATOM     20  C   LIG    1       22.865 -33.694   9.067  0.00  0.00    +0.071 C 
ATOM     21  C   LIG    1       23.586 -33.110  10.256  0.00  0.00    -0.023 C 
ATOM     22  C   LIG    1       24.025 -33.825  11.302  0.00  0.00    -0.004 C 
ATOM     23  C   LIG    1       24.546 -33.197  12.495  0.00  0.00    -0.000 C 
ATOM     24  C   LIG    1       24.493 -33.794  13.694  0.00  0.00    +0.000 C 
ATOM     25  C   LIG    1       24.840 -33.194  14.960  0.00  0.00    +0.000 C 
ATOM     26  C   LIG    1       24.472 -32.016  15.492  0.00  0.00    -0.000 C 
ATOM     27  C   LIG    1       23.699 -30.905  14.969  0.00  0.00    -0.002 C 
ATOM     28  O   LIG    1       26.925 -27.112   7.633  0.00  0.00    -0.364 OA
ATOM     29  C   LIG    1       24.141 -27.334  13.576  0.00  0.00    +0.155 C 
ATOM     30  C   LIG    1       22.765 -30.913  14.004  0.00  0.00    +0.004 C 
ENDROOT
BRANCH   7  31
ATOM     31  O   LIG    1       25.985 -26.910  15.053  0.00  0.00    -0.391 OA
ATOM     32  H   LIG    1       25.240 -26.617  15.624  0.00  0.00    +0.210 HD
ENDBRANCH   7  31
BRANCH   5  33
ATOM     33  O   LIG    1       26.796 -29.324  14.074  0.00  0.00    -0.364 OA
ATOM     34  H   LIG    1       26.378 -28.672  14.667  0.00  0.00    +0.213 HD
ENDBRANCH   5  33
BRANCH   9  35
ATOM     35  O   LIG    1       25.421 -29.955  10.152  0.00  0.00    -0.392 OA
ATOM     36  H   LIG    1       25.082 -30.392  10.956  0.00  0.00    +0.210 HD
ENDBRANCH   9  35
BRANCH  29  37
ATOM     37  C   LIG    1       23.188 -26.194  13.309  0.00  0.00    +0.313 C 
ATOM     38  O   LIG    1       22.034 -26.338  12.933  0.00  0.00    -0.251 OA
BRANCH  37  39
ATOM     39  O   LIG    1       23.736 -24.975  13.502  0.00  0.00    -0.480 OA
ATOM     40  H   LIG    1       23.262 -24.240  13.063  0.00  0.00    +0.295 HD
ENDBRANCH  37  39
ENDBRANCH  29  37
BRANCH   1  41
ATOM     41  O   LIG    1       20.707 -30.143  13.146  0.00  0.00    -0.341 OA
BRANCH  41  47
ATOM     42  C   LIG    1       16.042 -30.169  13.793  0.00  0.00    +0.040 C 
ATOM     43  C   LIG    1       17.338 -29.639  14.392  0.00  0.00    +0.148 C 
ATOM     44  C   LIG    1       17.303 -28.109  14.547  0.00  0.00    +0.162 C 
ATOM     45  C   LIG    1       18.679 -27.587  15.016  0.00  0.00    +0.116 C 
ATOM     46  C   LIG    1       19.787 -28.106  14.085  0.00  0.00    +0.189 C 
ATOM     47  C   LIG    1       19.680 -29.644  14.010  0.00  0.00    +0.281 C 
ATOM     48  O   LIG    1       18.403 -30.040  13.520  0.00  0.00    -0.343 OA
BRANCH  45  49
ATOM     49  N   LIG    1       18.642 -26.106  15.083  0.00  0.00    -0.323 NA
ATOM     50  H   LIG    1       18.406 -25.747  14.157  0.00  0.00    +0.119 HD
ATOM     51  H   LIG    1       17.816 -25.868  15.647  0.00  0.00    +0.119 HD
ENDBRANCH  45  49
BRANCH  44  52
ATOM     52  O   LIG    1       16.314 -27.711  15.499  0.00  0.00    -0.388 OA
ATOM     53  H   LIG    1       16.401 -26.737  15.544  0.00  0.00    +0.210 HD
ENDBRANCH  44  52
BRANCH  46  54
ATOM     54  O   LIG    1       19.631 -27.508  12.786  0.00  0.00    -0.385 OA
ATOM     55  H   LIG    1       18.800 -26.994  12.830  0.00  0.00    +0.210 HD
ENDBRANCH  46  54
ENDBRANCH  41  47
ENDBRANCH   1  41
TORSDOF 10
ENDMDL
MODEL 5
REMARK VINA RESULT:      -3.8      2.454      5.256
REMARK  Name = *****
REMARK                            x       y       z     vdW  Elec       q    Type
REMARK                         _______ _______ _______ _____ _____    ______ ____
ROOT
ATOM      1  C   LIG    1       26.050 -28.585   8.746  0.00  0.00    +0.147 C 
ATOM      2  C   LIG    1       24.760 -29.431   8.818  0.00  0.00    +0.068 C 
ATOM      3  C   LIG    1       24.885 -30.958   8.855  0.00  0.00    +0.141 C 
ATOM      4  O   LIG    1       25.356 -31.334  10.150  0.00  0.00    -0.344 OA
ATOM      5  C   LIG    1       25.470 -32.730  10.374  0.00  0.00    +0.172 C 
ATOM      6  C   LIG    1       25.115 -33.596   9.163  0.00  0.00    +0.097 C 
ATOM      7  C   LIG    1       25.838 -33.094   7.908  0.00  0.00    +0.136 C 
ATOM      8  C   LIG    1       24.713 -33.121  11.658  0.00  0.00    +0.096 C 
ATOM      9  C   LIG    1       23.307 -32.539  11.935  0.00  0.00    +0.122 C 
ATOM     10  C   LIG    1       22.108 -33.462  11.655  0.00  0.00    +0.066 C 
ATOM     11  C   LIG    1       21.458 -33.300  10.308  0.00  0.00    +0.154 C 
ATOM     12  C   LIG    1       20.247 -32.414  10.034  0.00  0.00    +0.171 C 
ATOM     13  C   LIG    1       19.856 -31.419  11.037  0.00  0.00    +0.014 C 
ATOM     14  C   LIG    1       20.318 -30.161  11.098  0.00  0.00    +0.090 C 
ATOM     15  C   LIG    1       20.102 -29.370  12.325  0.00  0.00    +0.332 C 
ATOM     16  O   LIG    1       19.349 -29.665  13.229  0.00  0.00    -0.246 OA
ATOM     17  O   LIG    1       21.006 -28.355  12.316  0.00  0.00    -0.458 OA
ATOM     18  C   LIG    1       21.297 -27.781  13.607  0.00  0.00    +0.177 C 
ATOM     19  C   LIG    1       20.265 -26.704  13.927  0.00  0.00    +0.052 C 
ATOM     20  C   LIG    1       22.706 -27.160  13.549  0.00  0.00    +0.071 C 
ATOM     21  C   LIG    1       23.781 -28.130  13.129  0.00  0.00    -0.023 C 
ATOM     22  C   LIG    1       24.990 -28.217  13.704  0.00  0.00    -0.004 C 
ATOM     23  C   LIG    1       26.045 -29.035  13.149  0.00  0.00    -0.000 C 
ATOM     24  C   LIG    1       27.340 -28.756  13.353  0.00  0.00    +0.000 C 
ATOM     25  C   LIG    1       28.461 -29.412  12.721  0.00  0.00    +0.000 C 
ATOM     26  C   LIG    1       28.688 -29.686  11.425  0.00  0.00    -0.000 C 
ATOM     27  C   LIG    1       27.876 -29.524  10.234  0.00  0.00    -0.002 C 
ATOM     28  O   LIG    1       20.123 -33.825  10.268  0.00  0.00    -0.364 OA
ATOM     29  C   LIG    1       25.752 -31.572   7.748  0.00  0.00    +0.155 C 
ATOM     30  C   LIG    1       26.873 -28.657  10.013  0.00  0.00    +0.004 C 
ENDROOT
BRANCH   7  31
ATOM     31  O   LIG    1       27.222 -33.459   7.937  0.00  0.00    -0.391 OA
ATOM     32  H   LIG    1       27.562 -33.215   8.828  0.00  0.00    +0.210 HD
ENDBRANCH   7  31
BRANCH   5  33
ATOM     33  O   LIG    1       26.870 -32.952  10.594  0.00  0.00    -0.364 OA
ATOM     34  H   LIG    1       27.298 -32.711   9.752  0.00  0.00    +0.213 HD
ENDBRANCH   5  33
BRANCH   9  35
ATOM     35  O   LIG    1       23.102 -31.256  11.369  0.00  0.00    -0.392 OA
ATOM     36  H   LIG    1       23.961 -30.949  11.021  0.00  0.00    +0.210 HD
ENDBRANCH   9  35
BRANCH  29  37
ATOM     37  C   LIG    1       25.169 -31.279   6.386  0.00  0.00    +0.313 C 
ATOM     38  O   LIG    1       24.152 -31.799   5.949  0.00  0.00    -0.251 OA
BRANCH  37  39
ATOM     39  O   LIG    1       25.892 -30.395   5.667  0.00  0.00    -0.480 OA
ATOM     40  H   LIG    1       26.633 -29.980   6.156  0.00  0.00    +0.295 HD
ENDBRANCH  37  39
ENDBRANCH  29  37
BRANCH   1  41
ATOM     41  O   LIG    1       25.721 -27.191   8.568  0.00  0.00    -0.341 OA
BRANCH  41  47
ATOM     42  C   LIG    1       26.929 -27.393   4.020  0.00  0.00    +0.040 C 
ATOM     43  C   LIG    1       25.802 -26.961   4.949  0.00  0.00    +0.148 C 
ATOM     44  C   LIG    1       25.430 -25.484   4.736  0.00  0.00    +0.162 C 
ATOM     45  C   LIG    1       24.391 -25.037   5.788  0.00  0.00    +0.116 C 
ATOM     46  C   LIG    1       24.895 -25.367   7.202  0.00  0.00    +0.189 C 
ATOM     47  C   LIG    1       25.250 -26.868   7.255  0.00  0.00    +0.281 C 
ATOM     48  O   LIG    1       26.250 -27.186   6.292  0.00  0.00    -0.343 OA
BRANCH  45  49
ATOM     49  N   LIG    1       24.107 -23.592   5.610  0.00  0.00    -0.323 NA
ATOM     50  H   LIG    1       24.678 -23.244   4.838  0.00  0.00    +0.119 HD
ATOM     51  H   LIG    1       23.149 -23.535   5.240  0.00  0.00    +0.119 HD
ENDBRANCH  45  49
BRANCH  44  52
ATOM     52  O   LIG    1       24.881 -25.275   3.434  0.00  0.00    -0.388 OA
ATOM     53  H   LIG    1       25.009 -26.132   2.978  0.00  0.00    +0.210 HD
ENDBRANCH  44  52
BRANCH  46  54
ATOM     54  O   LIG    1       26.041 -24.549   7.499  0.00  0.00    -0.385 OA
ATOM     55  H   LIG    1       26.047 -23.847   6.817  0.00  0.00    +0.210 HD
ENDBRANCH  46  54
ENDBRANCH  41  47
ENDBRANCH   1  41
TORSDOF 10
ENDMDL
MODEL 6
REMARK VINA RESULT:      -2.3      2.214      3.077
REMARK  Name = *****
REMARK                            x       y       z     vdW  Elec       q    Type
REMARK                         _______ _______ _______ _____ _____    ______ ____
ROOT
ATOM      1  C   LIG    1       21.746 -31.004   9.998  0.00  0.00    +0.147 C 
ATOM      2  C   LIG    1       20.703 -30.093  10.681  0.00  0.00    +0.068 C 
ATOM      3  C   LIG    1       19.532 -30.746  11.423  0.00  0.00    +0.141 C 
ATOM      4  O   LIG    1       20.031 -31.302  12.640  0.00  0.00    -0.344 OA
ATOM      5  C   LIG    1       19.058 -31.896  13.482  0.00  0.00    +0.172 C 
ATOM      6  C   LIG    1       17.637 -31.884  12.913  0.00  0.00    +0.097 C 
ATOM      7  C   LIG    1       17.628 -32.401  11.470  0.00  0.00    +0.136 C 
ATOM      8  C   LIG    1       19.160 -31.307  14.902  0.00  0.00    +0.096 C 
ATOM      9  C   LIG    1       19.334 -29.783  15.098  0.00  0.00    +0.122 C 
ATOM     10  C   LIG    1       18.079 -28.988  15.499  0.00  0.00    +0.066 C 
ATOM     11  C   LIG    1       17.325 -28.340  14.369  0.00  0.00    +0.154 C 
ATOM     12  C   LIG    1       17.524 -26.899  13.912  0.00  0.00    +0.171 C 
ATOM     13  C   LIG    1       18.713 -26.171  14.365  0.00  0.00    +0.014 C 
ATOM     14  C   LIG    1       19.899 -26.161  13.738  0.00  0.00    +0.090 C 
ATOM     15  C   LIG    1       21.091 -25.664  14.453  0.00  0.00    +0.332 C 
ATOM     16  O   LIG    1       21.080 -25.051  15.499  0.00  0.00    -0.246 OA
ATOM     17  O   LIG    1       22.182 -26.154  13.807  0.00  0.00    -0.458 OA
ATOM     18  C   LIG    1       23.388 -26.207  14.596  0.00  0.00    +0.177 C 
ATOM     19  C   LIG    1       24.099 -24.859  14.530  0.00  0.00    +0.052 C 
ATOM     20  C   LIG    1       24.294 -27.309  14.014  0.00  0.00    +0.071 C 
ATOM     21  C   LIG    1       23.633 -28.662  13.936  0.00  0.00    -0.023 C 
ATOM     22  C   LIG    1       24.228 -29.817  14.272  0.00  0.00    -0.004 C 
ATOM     23  C   LIG    1       23.616 -31.099  14.008  0.00  0.00    -0.000 C 
ATOM     24  C   LIG    1       24.343 -32.211  13.834  0.00  0.00    +0.000 C 
ATOM     25  C   LIG    1       23.842 -33.499  13.415  0.00  0.00    +0.000 C 
ATOM     26  C   LIG    1       23.034 -33.825  12.392  0.00  0.00    -0.000 C 
ATOM     27  C   LIG    1       22.310 -33.024  11.424  0.00  0.00    -0.002 C 
ATOM     28  O   LIG    1       16.470 -27.275  14.811  0.00  0.00    -0.364 OA
ATOM     29  C   LIG    1       18.744 -31.788  10.618  0.00  0.00    +0.155 C 
ATOM     30  C   LIG    1       22.585 -31.783  10.986  0.00  0.00    +0.004 C 
ENDROOT
BRANCH   7  31
ATOM     31  O   LIG    1       17.777 -33.825  11.439  0.00  0.00    -0.391 OA
ATOM     32  H   LIG    1       17.312 -34.177  12.230  0.00  0.00    +0.210 HD
ENDBRANCH   7  31
BRANCH   5  33
ATOM     33  O   LIG    1       19.423 -33.281  13.544  0.00  0.00    -0.364 OA
ATOM     34  H   LIG    1       20.292 -33.332  13.104  0.00  0.00    +0.213 HD
ENDBRANCH   5  33
BRANCH   9  35
ATOM     35  O   LIG    1       20.016 -29.148  14.030  0.00  0.00    -0.392 OA
ATOM     36  H   LIG    1       19.908 -28.185  14.146  0.00  0.00    +0.210 HD
ENDBRANCH   9  35
BRANCH  29  37
ATOM     37  C   LIG    1       18.109 -31.158   9.401  0.00  0.00    +0.313 C 
ATOM     38  O   LIG    1       17.618 -31.791   8.478  0.00  0.00    -0.251 OA
BRANCH  37  39
ATOM     39  O   LIG    1       18.150 -29.809   9.409  0.00  0.00    -0.480 OA
ATOM     40  H   LIG    1       18.603 -29.418  10.183  0.00  0.00    +0.295 HD
ENDBRANCH  37  39
ENDBRANCH  29  37
BRANCH   1  41
ATOM     41  O   LIG    1       22.675 -30.210   9.232  0.00  0.00    -0.341 OA
BRANCH  41  47
ATOM     42  C   LIG    1       27.174 -31.484   9.799  0.00  0.00    +0.040 C 
ATOM     43  C   LIG    1       25.982 -31.655   8.866  0.00  0.00    +0.148 C 
ATOM     44  C   LIG    1       26.330 -31.243   7.426  0.00  0.00    +0.162 C 
ATOM     45  C   LIG    1       25.067 -31.287   6.538  0.00  0.00    +0.116 C 
ATOM     46  C   LIG    1       23.940 -30.461   7.179  0.00  0.00    +0.189 C 
ATOM     47  C   LIG    1       23.724 -30.969   8.620  0.00  0.00    +0.281 C 
ATOM     48  O   LIG    1       24.918 -30.846   9.386  0.00  0.00    -0.343 OA
BRANCH  45  49
ATOM     49  N   LIG    1       25.412 -30.814   5.175  0.00  0.00    -0.323 NA
ATOM     50  H   LIG    1       25.395 -29.792   5.175  0.00  0.00    +0.119 HD
ATOM     51  H   LIG    1       26.408 -31.034   5.042  0.00  0.00    +0.119 HD
ENDBRANCH  45  49
BRANCH  44  52
ATOM     52  O   LIG    1       27.313 -32.116   6.866  0.00  0.00    -0.388 OA
ATOM     53  H   LIG    1       28.063 -31.525   6.647  0.00  0.00    +0.210 HD
ENDBRANCH  44  52
BRANCH  46  54
ATOM     54  O   LIG    1       24.307 -29.071   7.166  0.00  0.00    -0.385 OA
ATOM     55  H   LIG    1       24.157 -28.749   8.077  0.00  0.00    +0.210 HD
ENDBRANCH  46  54
ENDBRANCH  41  47
ENDBRANCH   1  41
TORSDOF 10
ENDMDL
