MODEL 1
REMARK VINA RESULT:       5.8      0.000      0.000
REMARK  Name = *****
REMARK                            x       y       z     vdW  Elec       q    Type
REMARK                         _______ _______ _______ _____ _____    ______ ____
ROOT
ATOM      1  N   LIG    1       24.660 -21.571   6.153  0.00  0.00    -0.302 NA
ATOM      2  C   LIG    1       23.420 -20.881   6.507  0.00  0.00    +0.085 C 
ATOM      3  C   LIG    1       23.501 -19.357   6.417  0.00  0.00    +0.022 C 
ATOM      4  C   LIG    1       24.186 -18.776   5.144  0.00  0.00    +0.032 C 
ATOM      5  C   LIG    1       25.215 -19.750   4.518  0.00  0.00    +0.022 C 
ATOM      6  C   LIG    1       24.973 -21.238   4.761  0.00  0.00    +0.085 C 
ENDROOT
BRANCH   1   7
ATOM      7  C   LIG    1       25.793 -21.337   7.062  0.00  0.00    +0.084 C 
BRANCH   7   8
ATOM      8  C   LIG    1       27.173 -21.440   6.386  0.00  0.00    +0.018 C 
BRANCH   8   9
ATOM      9  C   LIG    1       27.921 -20.103   6.478  0.00  0.00    +0.037 C 
BRANCH   9  10
ATOM     10  C   LIG    1       28.586 -19.662   5.160  0.00  0.00    +0.144 C 
BRANCH  10  14
ATOM     11  C   LIG    1       27.664 -15.478   4.210  0.00  0.00    -0.042 A 
ATOM     12  C   LIG    1       27.106 -16.548   3.492  0.00  0.00    +0.004 A 
ATOM     13  C   LIG    1       27.391 -17.883   3.808  0.00  0.00    +0.006 A 
ATOM     14  C   LIG    1       28.270 -18.207   4.846  0.00  0.00    -0.019 A 
ATOM     15  C   LIG    1       28.832 -17.148   5.569  0.00  0.00    +0.006 A 
ATOM     16  C   LIG    1       28.539 -15.809   5.258  0.00  0.00    +0.004 A 
BRANCH  11  18
ATOM     17  C   LIG    1       28.608 -13.142   3.911  0.00  0.00    +0.015 C 
ATOM     18  C   LIG    1       27.328 -14.009   3.890  0.00  0.00    -0.013 C 
ATOM     19  C   LIG    1       26.689 -13.870   2.492  0.00  0.00    +0.015 C 
ATOM     20  C   LIG    1       26.338 -13.404   4.911  0.00  0.00    +0.015 C 
ENDBRANCH  11  18
ENDBRANCH  10  14
BRANCH  10  21
ATOM     21  O   LIG    1       28.133 -20.498   4.095  0.00  0.00    -0.387 OA
ATOM     22  H   LIG    1       27.704 -21.274   4.492  0.00  0.00    +0.210 HD
ENDBRANCH  10  21
ENDBRANCH   9  10
ENDBRANCH   8   9
ENDBRANCH   7   8
ENDBRANCH   1   7
BRANCH   4  23
ATOM     23  C   LIG    1       23.204 -18.074   4.119  0.00  0.00    +0.119 C 
BRANCH  23  24
ATOM     24  C   LIG    1       23.070 -16.572   4.438  0.00  0.00    -0.011 A 
ATOM     25  C   LIG    1       22.307 -16.143   5.537  0.00  0.00    +0.007 A 
ATOM     26  C   LIG    1       22.196 -14.793   5.863  0.00  0.00    +0.000 A 
ATOM     27  C   LIG    1       22.856 -13.839   5.093  0.00  0.00    +0.000 A 
ATOM     28  C   LIG    1       23.606 -14.237   3.990  0.00  0.00    +0.000 A 
ATOM     29  C   LIG    1       23.706 -15.591   3.656  0.00  0.00    +0.007 A 
ENDBRANCH  23  24
BRANCH  23  30
ATOM     30  C   LIG    1       21.818 -18.753   3.920  0.00  0.00    -0.011 A 
ATOM     31  C   LIG    1       20.731 -18.128   3.270  0.00  0.00    +0.007 A 
ATOM     32  C   LIG    1       19.518 -18.798   3.070  0.00  0.00    +0.000 A 
ATOM     33  C   LIG    1       19.351 -20.097   3.507  0.00  0.00    +0.000 A 
ATOM     34  C   LIG    1       20.402 -20.744   4.162  0.00  0.00    +0.000 A 
ATOM     35  C   LIG    1       21.611 -20.069   4.375  0.00  0.00    +0.007 A 
ENDBRANCH  23  30
BRANCH  23  36
ATOM     36  O   LIG    1       23.838 -18.199   2.823  0.00  0.00    -0.379 OA
ATOM     37  H   LIG    1       23.184 -17.925   2.161  0.00  0.00    +0.211 HD
ENDBRANCH  23  36
ENDBRANCH   4  23
TORSDOF 11
ENDMDL
