MODEL 1
REMARK VINA RESULT:      -4.1      0.000      0.000
REMARK  Name = *****
REMARK                            x       y       z     vdW  Elec       q    Type
REMARK                         _______ _______ _______ _____ _____    ______ ____
ROOT
ATOM      1  N   LIG    1       24.989 -18.181   3.882  0.00  0.00    -0.290 NA
ENDROOT
BRANCH   1   2
ATOM      2  C   LIG    1       25.873 -17.101   3.354  0.00  0.00    +0.100 C 
BRANCH   2   3
ATOM      3  C   LIG    1       25.426 -15.595   3.478  0.00  0.00    +0.101 C 
BRANCH   3   4
ATOM      4  N   LIG    1       26.294 -14.598   2.778  0.00  0.00    -0.281 NA
BRANCH   4   5
ATOM      5  C   LIG    1       27.671 -14.583   3.322  0.00  0.00    +0.206 C 
BRANCH   5   6
ATOM      6  C   LIG    1       28.069 -13.266   3.979  0.00  0.00    +0.319 C 
ATOM      7  O   LIG    1       27.633 -12.847   5.034  0.00  0.00    -0.250 OA
BRANCH   6   8
ATOM      8  O   LIG    1       29.040 -12.606   3.309  0.00  0.00    -0.480 OA
ATOM      9  H   LIG    1       28.685 -11.710   3.138  0.00  0.00    +0.295 HD
ENDBRANCH   6   8
ENDBRANCH   5   6
ENDBRANCH   4   5
BRANCH   4  10
ATOM     10  C   LIG    1       25.645 -13.255   2.684  0.00  0.00    +0.206 C 
BRANCH  10  11
ATOM     11  C   LIG    1       24.301 -13.120   3.378  0.00  0.00    +0.319 C 
ATOM     12  O   LIG    1       24.155 -12.697   4.528  0.00  0.00    -0.250 OA
BRANCH  11  13
ATOM     13  O   LIG    1       23.239 -13.522   2.634  0.00  0.00    -0.480 OA
ATOM     14  H   LIG    1       23.376 -14.386   2.177  0.00  0.00    +0.295 HD
ENDBRANCH  11  13
ENDBRANCH  10  11
ENDBRANCH   4  10
ENDBRANCH   3   4
ENDBRANCH   2   3
ENDBRANCH   1   2
BRANCH   1  15
ATOM     15  C   LIG    1       25.499 -19.554   3.637  0.00  0.00    +0.100 C 
BRANCH  15  16
ATOM     16  C   LIG    1       26.553 -20.068   4.672  0.00  0.00    +0.101 C 
BRANCH  16  17
ATOM     17  N   LIG    1       26.108 -20.388   6.046  0.00  0.00    -0.281 NA
BRANCH  17  18
ATOM     18  C   LIG    1       25.192 -21.559   6.188  0.00  0.00    +0.206 C 
BRANCH  18  19
ATOM     19  C   LIG    1       23.675 -21.356   6.123  0.00  0.00    +0.319 C 
ATOM     20  O   LIG    1       23.038 -20.887   7.062  0.00  0.00    -0.250 OA
BRANCH  19  21
ATOM     21  O   LIG    1       23.063 -21.570   4.944  0.00  0.00    -0.480 OA
ATOM     22  H   LIG    1       22.097 -21.545   4.993  0.00  0.00    +0.295 HD
ENDBRANCH  19  21
ENDBRANCH  18  19
ENDBRANCH  17  18
BRANCH  17  23
ATOM     23  C   LIG    1       27.189 -20.362   7.058  0.00  0.00    +0.206 C 
BRANCH  23  24
ATOM     24  C   LIG    1       28.589 -20.156   6.478  0.00  0.00    +0.319 C 
ATOM     25  O   LIG    1       29.093 -19.081   6.207  0.00  0.00    -0.250 OA
BRANCH  24  26
ATOM     26  O   LIG    1       29.277 -21.296   6.247  0.00  0.00    -0.480 OA
ATOM     27  H   LIG    1       29.986 -21.276   6.926  0.00  0.00    +0.295 HD
ENDBRANCH  24  26
ENDBRANCH  23  24
ENDBRANCH  17  23
ENDBRANCH  16  17
ENDBRANCH  15  16
ENDBRANCH   1  15
BRANCH   1  28
ATOM     28  C   LIG    1       23.589 -17.972   3.402  0.00  0.00    +0.205 C 
BRANCH  28  30
ATOM     29  O   LIG    1       22.175 -16.567   4.891  0.00  0.00    -0.250 OA
ATOM     30  C   LIG    1       22.538 -17.635   4.478  0.00  0.00    +0.319 C 
BRANCH  30  31
ATOM     31  O   LIG    1       22.069 -18.769   5.083  0.00  0.00    -0.480 OA
ATOM     32  H   LIG    1       22.721 -18.916   5.802  0.00  0.00    +0.295 HD
ENDBRANCH  30  31
ENDBRANCH  28  30
ENDBRANCH   1  28
TORSDOF 21
ENDMDL
MODEL 2
REMARK VINA RESULT:      -3.7      0.746      6.719
REMARK  Name = *****
REMARK                            x       y       z     vdW  Elec       q    Type
REMARK                         _______ _______ _______ _____ _____    ______ ____
ROOT
ATOM      1  N   LIG    1       24.995 -18.148   3.355  0.00  0.00    -0.290 NA
ENDROOT
BRANCH   1   2
ATOM      2  C   LIG    1       25.485 -19.529   3.636  0.00  0.00    +0.100 C 
BRANCH   2   3
ATOM      3  C   LIG    1       26.591 -19.756   4.736  0.00  0.00    +0.101 C 
BRANCH   3   4
ATOM      4  N   LIG    1       26.101 -20.239   6.063  0.00  0.00    -0.281 NA
BRANCH   4   5
ATOM      5  C   LIG    1       27.197 -20.343   7.054  0.00  0.00    +0.206 C 
BRANCH   5   6
ATOM      6  C   LIG    1       28.594 -20.246   6.454  0.00  0.00    +0.319 C 
ATOM      7  O   LIG    1       28.981 -19.363   5.713  0.00  0.00    -0.250 OA
BRANCH   6   8
ATOM      8  O   LIG    1       29.431 -21.217   6.885  0.00  0.00    -0.480 OA
ATOM      9  H   LIG    1       29.088 -21.495   7.760  0.00  0.00    +0.295 HD
ENDBRANCH   6   8
ENDBRANCH   5   6
ENDBRANCH   4   5
BRANCH   4  10
ATOM     10  C   LIG    1       25.254 -21.464   5.940  0.00  0.00    +0.206 C 
BRANCH  10  11
ATOM     11  C   LIG    1       23.755 -21.245   6.050  0.00  0.00    +0.319 C 
ATOM     12  O   LIG    1       23.190 -20.822   7.062  0.00  0.00    -0.250 OA
BRANCH  11  13
ATOM     13  O   LIG    1       23.054 -21.571   4.934  0.00  0.00    -0.480 OA
ATOM     14  H   LIG    1       22.316 -22.207   5.097  0.00  0.00    +0.295 HD
ENDBRANCH  11  13
ENDBRANCH  10  11
ENDBRANCH   4  10
ENDBRANCH   3   4
ENDBRANCH   2   3
ENDBRANCH   1   2
BRANCH   1  15
ATOM     15  C   LIG    1       26.078 -17.146   3.185  0.00  0.00    +0.100 C 
BRANCH  15  16
ATOM     16  C   LIG    1       25.610 -15.653   3.180  0.00  0.00    +0.101 C 
BRANCH  16  17
ATOM     17  N   LIG    1       26.621 -14.588   3.005  0.00  0.00    -0.281 NA
BRANCH  17  18
ATOM     18  C   LIG    1       26.098 -13.226   2.687  0.00  0.00    +0.206 C 
BRANCH  18  19
ATOM     19  C   LIG    1       24.711 -12.804   3.183  0.00  0.00    +0.319 C 
ATOM     20  O   LIG    1       24.559 -12.100   4.177  0.00  0.00    -0.250 OA
BRANCH  19  21
ATOM     21  O   LIG    1       23.650 -13.107   2.413  0.00  0.00    -0.480 OA
ATOM     22  H   LIG    1       22.847 -12.620   2.642  0.00  0.00    +0.295 HD
ENDBRANCH  19  21
ENDBRANCH  18  19
ENDBRANCH  17  18
BRANCH  17  23
ATOM     23  C   LIG    1       27.685 -14.583   4.036  0.00  0.00    +0.206 C 
BRANCH  23  24
ATOM     24  C   LIG    1       27.701 -13.333   4.916  0.00  0.00    +0.319 C 
ATOM     25  O   LIG    1       28.512 -12.427   4.847  0.00  0.00    -0.250 OA
BRANCH  24  26
ATOM     26  O   LIG    1       26.721 -13.285   5.846  0.00  0.00    -0.480 OA
ATOM     27  H   LIG    1       27.180 -12.948   6.645  0.00  0.00    +0.295 HD
ENDBRANCH  24  26
ENDBRANCH  23  24
ENDBRANCH  17  23
ENDBRANCH  16  17
ENDBRANCH  15  16
ENDBRANCH   1  15
BRANCH   1  28
ATOM     28  C   LIG    1       23.973 -17.753   4.372  0.00  0.00    +0.205 C 
BRANCH  28  30
ATOM     29  O   LIG    1       21.744 -18.020   3.301  0.00  0.00    -0.250 OA
ATOM     30  C   LIG    1       22.545 -18.291   4.154  0.00  0.00    +0.319 C 
BRANCH  30  31
ATOM     31  O   LIG    1       22.163 -19.111   5.181  0.00  0.00    -0.480 OA
ATOM     32  H   LIG    1       21.793 -19.888   4.710  0.00  0.00    +0.295 HD
ENDBRANCH  30  31
ENDBRANCH  28  30
ENDBRANCH   1  28
TORSDOF 21
ENDMDL
MODEL 3
REMARK VINA RESULT:      -3.5      1.315      7.279
REMARK  Name = *****
REMARK                            x       y       z     vdW  Elec       q    Type
REMARK                         _______ _______ _______ _____ _____    ______ ____
ROOT
ATOM      1  N   LIG    1       26.756 -18.178   4.334  0.00  0.00    -0.290 NA
ENDROOT
BRANCH   1   2
ATOM      2  C   LIG    1       26.247 -19.557   4.082  0.00  0.00    +0.100 C 
BRANCH   2   3
ATOM      3  C   LIG    1       24.890 -19.759   3.306  0.00  0.00    +0.101 C 
BRANCH   3   4
ATOM      4  N   LIG    1       23.716 -20.161   4.139  0.00  0.00    -0.281 NA
BRANCH   4   5
ATOM      5  C   LIG    1       23.250 -19.058   5.009  0.00  0.00    +0.206 C 
BRANCH   5   6
ATOM      6  C   LIG    1       22.168 -18.184   4.386  0.00  0.00    +0.319 C 
ATOM      7  O   LIG    1       21.239 -18.588   3.713  0.00  0.00    -0.250 OA
BRANCH   6   8
ATOM      8  O   LIG    1       22.280 -16.877   4.715  0.00  0.00    -0.480 OA
ATOM      9  H   LIG    1       23.144 -16.789   5.168  0.00  0.00    +0.295 HD
ENDBRANCH   6   8
ENDBRANCH   5   6
ENDBRANCH   4   5
BRANCH   4  10
ATOM     10  C   LIG    1       23.945 -21.458   4.846  0.00  0.00    +0.206 C 
BRANCH  10  11
ATOM     11  C   LIG    1       24.084 -21.373   6.356  0.00  0.00    +0.319 C 
ATOM     12  O   LIG    1       25.149 -21.156   6.942  0.00  0.00    -0.250 OA
BRANCH  11  13
ATOM     13  O   LIG    1       22.930 -21.572   7.042  0.00  0.00    -0.480 OA
ATOM     14  H   LIG    1       22.733 -22.522   7.226  0.00  0.00    +0.295 HD
ENDBRANCH  11  13
ENDBRANCH  10  11
ENDBRANCH   4  10
ENDBRANCH   3   4
ENDBRANCH   2   3
ENDBRANCH   1   2
BRANCH   1  15
ATOM     15  C   LIG    1       26.270 -17.167   3.360  0.00  0.00    +0.100 C 
BRANCH  15  16
ATOM     16  C   LIG    1       26.773 -15.707   3.607  0.00  0.00    +0.101 C 
BRANCH  16  17
ATOM     17  N   LIG    1       26.122 -14.594   2.881  0.00  0.00    -0.281 NA
BRANCH  17  18
ATOM     18  C   LIG    1       24.729 -14.257   3.299  0.00  0.00    +0.206 C 
BRANCH  18  19
ATOM     19  C   LIG    1       24.370 -12.816   3.674  0.00  0.00    +0.319 C 
ATOM     20  O   LIG    1       23.572 -12.150   3.020  0.00  0.00    -0.250 OA
BRANCH  19  21
ATOM     21  O   LIG    1       24.845 -12.332   4.836  0.00  0.00    -0.480 OA
ATOM     22  H   LIG    1       25.276 -11.470   4.755  0.00  0.00    +0.295 HD
ENDBRANCH  19  21
ENDBRANCH  18  19
ENDBRANCH  17  18
BRANCH  17  23
ATOM     23  C   LIG    1       26.984 -13.403   2.694  0.00  0.00    +0.206 C 
BRANCH  23  24
ATOM     24  C   LIG    1       28.084 -13.251   3.745  0.00  0.00    +0.319 C 
ATOM     25  O   LIG    1       27.908 -13.004   4.924  0.00  0.00    -0.250 OA
BRANCH  24  26
ATOM     26  O   LIG    1       29.341 -13.394   3.271  0.00  0.00    -0.480 OA
ATOM     27  H   LIG    1       29.659 -12.470   3.180  0.00  0.00    +0.295 HD
ENDBRANCH  24  26
ENDBRANCH  23  24
ENDBRANCH  17  23
ENDBRANCH  16  17
ENDBRANCH  15  16
ENDBRANCH   1  15
BRANCH   1  28
ATOM     28  C   LIG    1       28.244 -18.202   4.473  0.00  0.00    +0.205 C 
BRANCH  28  30
ATOM     29  O   LIG    1       28.663 -20.137   5.979  0.00  0.00    -0.250 OA
ATOM     30  C   LIG    1       28.809 -18.984   5.675  0.00  0.00    +0.319 C 
BRANCH  30  31
ATOM     31  O   LIG    1       29.474 -18.155   6.536  0.00  0.00    -0.480 OA
ATOM     32  H   LIG    1       28.848 -17.408   6.644  0.00  0.00    +0.295 HD
ENDBRANCH  30  31
ENDBRANCH  28  30
ENDBRANCH   1  28
TORSDOF 21
ENDMDL
MODEL 4
REMARK VINA RESULT:      -3.5      0.758      2.366
REMARK  Name = *****
REMARK                            x       y       z     vdW  Elec       q    Type
REMARK                         _______ _______ _______ _____ _____    ______ ____
ROOT
ATOM      1  N   LIG    1       25.140 -18.439   3.850  0.00  0.00    -0.290 NA
ENDROOT
BRANCH   1   2
ATOM      2  C   LIG    1       25.718 -17.135   3.413  0.00  0.00    +0.100 C 
BRANCH   2   3
ATOM      3  C   LIG    1       24.874 -15.814   3.574  0.00  0.00    +0.101 C 
BRANCH   3   4
ATOM      4  N   LIG    1       25.661 -14.550   3.713  0.00  0.00    -0.281 NA
BRANCH   4   5
ATOM      5  C   LIG    1       25.262 -13.534   2.713  0.00  0.00    +0.206 C 
BRANCH   5   6
ATOM      6  C   LIG    1       24.343 -12.447   3.258  0.00  0.00    +0.319 C 
ATOM      7  O   LIG    1       23.909 -11.508   2.618  0.00  0.00    -0.250 OA
BRANCH   6   8
ATOM      8  O   LIG    1       23.969 -12.655   4.540  0.00  0.00    -0.480 OA
ATOM      9  H   LIG    1       23.384 -13.440   4.524  0.00  0.00    +0.295 HD
ENDBRANCH   6   8
ENDBRANCH   5   6
ENDBRANCH   4   5
BRANCH   4  10
ATOM     10  C   LIG    1       27.132 -14.808   3.786  0.00  0.00    +0.206 C 
BRANCH  10  11
ATOM     11  C   LIG    1       27.988 -13.636   4.234  0.00  0.00    +0.319 C 
ATOM     12  O   LIG    1       29.019 -13.274   3.662  0.00  0.00    -0.250 OA
BRANCH  11  13
ATOM     13  O   LIG    1       27.539 -13.003   5.348  0.00  0.00    -0.480 OA
ATOM     14  H   LIG    1       27.661 -13.523   6.179  0.00  0.00    +0.295 HD
ENDBRANCH  11  13
ENDBRANCH  10  11
ENDBRANCH   4  10
ENDBRANCH   3   4
ENDBRANCH   2   3
ENDBRANCH   1   2
BRANCH   1  15
ATOM     15  C   LIG    1       26.017 -19.608   3.585  0.00  0.00    +0.100 C 
BRANCH  15  16
ATOM     16  C   LIG    1       26.064 -20.679   4.724  0.00  0.00    +0.101 C 
BRANCH  16  17
ATOM     17  N   LIG    1       25.963 -20.231   6.130  0.00  0.00    -0.281 NA
BRANCH  17  18
ATOM     18  C   LIG    1       24.828 -20.792   6.922  0.00  0.00    +0.206 C 
BRANCH  18  19
ATOM     19  C   LIG    1       23.575 -21.305   6.204  0.00  0.00    +0.319 C 
ATOM     20  O   LIG    1       22.480 -21.354   6.756  0.00  0.00    -0.250 OA
BRANCH  19  21
ATOM     21  O   LIG    1       23.670 -21.572   4.889  0.00  0.00    -0.480 OA
ATOM     22  H   LIG    1       23.022 -22.215   4.571  0.00  0.00    +0.295 HD
ENDBRANCH  19  21
ENDBRANCH  18  19
ENDBRANCH  17  18
BRANCH  17  23
ATOM     23  C   LIG    1       27.249 -20.234   6.864  0.00  0.00    +0.206 C 
BRANCH  23  24
ATOM     24  C   LIG    1       28.455 -19.817   6.021  0.00  0.00    +0.319 C 
ATOM     25  O   LIG    1       28.597 -18.741   5.470  0.00  0.00    -0.250 OA
BRANCH  24  26
ATOM     26  O   LIG    1       29.409 -20.766   5.893  0.00  0.00    -0.480 OA
ATOM     27  H   LIG    1       29.896 -20.493   5.086  0.00  0.00    +0.295 HD
ENDBRANCH  24  26
ENDBRANCH  23  24
ENDBRANCH  17  23
ENDBRANCH  16  17
ENDBRANCH  15  16
ENDBRANCH   1  15
BRANCH   1  28
ATOM     28  C   LIG    1       23.759 -18.594   3.301  0.00  0.00    +0.205 C 
BRANCH  28  30
ATOM     29  O   LIG    1       22.302 -17.264   4.817  0.00  0.00    -0.250 OA
ATOM     30  C   LIG    1       22.598 -18.291   4.268  0.00  0.00    +0.319 C 
BRANCH  30  31
ATOM     31  O   LIG    1       21.908 -19.429   4.586  0.00  0.00    -0.480 OA
ATOM     32  H   LIG    1       21.567 -19.725   3.715  0.00  0.00    +0.295 HD
ENDBRANCH  30  31
ENDBRANCH  28  30
ENDBRANCH   1  28
TORSDOF 21
ENDMDL
MODEL 5
REMARK VINA RESULT:      -2.6      1.209      7.537
REMARK  Name = *****
REMARK                            x       y       z     vdW  Elec       q    Type
REMARK                         _______ _______ _______ _____ _____    ______ ____
ROOT
ATOM      1  N   LIG    1       27.189 -18.077   4.504  0.00  0.00    -0.290 NA
ENDROOT
BRANCH   1   2
ATOM      2  C   LIG    1       26.522 -19.409   4.446  0.00  0.00    +0.100 C 
BRANCH   2   3
ATOM      3  C   LIG    1       25.531 -19.737   3.266  0.00  0.00    +0.101 C 
BRANCH   3   4
ATOM      4  N   LIG    1       24.082 -19.804   3.631  0.00  0.00    -0.281 NA
BRANCH   4   5
ATOM      5  C   LIG    1       23.680 -18.685   4.513  0.00  0.00    +0.206 C 
BRANCH   5   6
ATOM      6  C   LIG    1       22.257 -18.189   4.286  0.00  0.00    +0.319 C 
ATOM      7  O   LIG    1       21.304 -18.892   4.009  0.00  0.00    -0.250 OA
BRANCH   6   8
ATOM      8  O   LIG    1       22.112 -16.862   4.499  0.00  0.00    -0.480 OA
ATOM      9  H   LIG    1       22.713 -16.643   5.240  0.00  0.00    +0.295 HD
ENDBRANCH   6   8
ENDBRANCH   5   6
ENDBRANCH   4   5
BRANCH   4  10
ATOM     10  C   LIG    1       23.688 -21.159   4.124  0.00  0.00    +0.206 C 
BRANCH  10  11
ATOM     11  C   LIG    1       23.797 -21.374   5.624  0.00  0.00    +0.319 C 
ATOM     12  O   LIG    1       24.860 -21.568   6.220  0.00  0.00    -0.250 OA
BRANCH  11  13
ATOM     13  O   LIG    1       22.611 -21.354   6.285  0.00  0.00    -0.480 OA
ATOM     14  H   LIG    1       22.219 -22.249   6.429  0.00  0.00    +0.295 HD
ENDBRANCH  11  13
ENDBRANCH  10  11
ENDBRANCH   4  10
ENDBRANCH   3   4
ENDBRANCH   2   3
ENDBRANCH   1   2
BRANCH   1  15
ATOM     15  C   LIG    1       26.885 -17.198   3.346  0.00  0.00    +0.100 C 
BRANCH  15  16
ATOM     16  C   LIG    1       25.852 -16.057   3.627  0.00  0.00    +0.101 C 
BRANCH  16  17
ATOM     17  N   LIG    1       26.345 -14.674   3.804  0.00  0.00    -0.281 NA
BRANCH  17  18
ATOM     18  C   LIG    1       27.809 -14.464   3.602  0.00  0.00    +0.206 C 
BRANCH  18  19
ATOM     19  C   LIG    1       28.459 -13.143   4.029  0.00  0.00    +0.319 C 
ATOM     20  O   LIG    1       28.177 -12.589   5.088  0.00  0.00    -0.250 OA
BRANCH  19  21
ATOM     21  O   LIG    1       29.467 -12.667   3.277  0.00  0.00    -0.480 OA
ATOM     22  H   LIG    1       29.322 -12.755   2.325  0.00  0.00    +0.295 HD
ENDBRANCH  19  21
ENDBRANCH  18  19
ENDBRANCH  17  18
BRANCH  17  23
ATOM     23  C   LIG    1       25.507 -13.640   3.153  0.00  0.00    +0.206 C 
BRANCH  23  24
ATOM     24  C   LIG    1       24.251 -13.263   3.939  0.00  0.00    +0.319 C 
ATOM     25  O   LIG    1       24.150 -12.322   4.705  0.00  0.00    -0.250 OA
BRANCH  24  26
ATOM     26  O   LIG    1       23.196 -14.085   3.744  0.00  0.00    -0.480 OA
ATOM     27  H   LIG    1       23.373 -14.834   4.353  0.00  0.00    +0.295 HD
ENDBRANCH  24  26
ENDBRANCH  23  24
ENDBRANCH  17  23
ENDBRANCH  16  17
ENDBRANCH  15  16
ENDBRANCH   1  15
BRANCH   1  28
ATOM     28  C   LIG    1       28.653 -18.249   4.751  0.00  0.00    +0.205 C 
BRANCH  28  30
ATOM     29  O   LIG    1       29.469 -18.755   7.046  0.00  0.00    -0.250 OA
ATOM     30  C   LIG    1       29.046 -19.099   5.975  0.00  0.00    +0.319 C 
BRANCH  30  31
ATOM     31  O   LIG    1       28.981 -20.436   5.691  0.00  0.00    -0.480 OA
ATOM     32  H   LIG    1       29.912 -20.726   5.803  0.00  0.00    +0.295 HD
ENDBRANCH  30  31
ENDBRANCH  28  30
ENDBRANCH   1  28
TORSDOF 21
ENDMDL
MODEL 6
REMARK VINA RESULT:      -2.6      1.005      3.808
REMARK  Name = *****
REMARK                            x       y       z     vdW  Elec       q    Type
REMARK                         _______ _______ _______ _____ _____    ______ ____
ROOT
ATOM      1  N   LIG    1       25.045 -17.404   4.022  0.00  0.00    -0.290 NA
ENDROOT
BRANCH   1   2
ATOM      2  C   LIG    1       26.184 -16.669   3.401  0.00  0.00    +0.100 C 
BRANCH   2   3
ATOM      3  C   LIG    1       25.955 -15.223   2.817  0.00  0.00    +0.101 C 
BRANCH   3   4
ATOM      4  N   LIG    1       26.138 -14.094   3.780  0.00  0.00    -0.281 NA
BRANCH   4   5
ATOM      5  C   LIG    1       25.899 -12.779   3.145  0.00  0.00    +0.206 C 
BRANCH   5   6
ATOM      6  C   LIG    1       24.429 -12.384   3.057  0.00  0.00    +0.319 C 
ATOM      7  O   LIG    1       23.778 -11.893   3.960  0.00  0.00    -0.250 OA
BRANCH   6   8
ATOM      8  O   LIG    1       23.900 -12.560   1.826  0.00  0.00    -0.480 OA
ATOM      9  H   LIG    1       23.380 -13.388   1.874  0.00  0.00    +0.295 HD
ENDBRANCH   6   8
ENDBRANCH   5   6
ENDBRANCH   4   5
BRANCH   4  10
ATOM     10  C   LIG    1       27.426 -14.198   4.531  0.00  0.00    +0.206 C 
BRANCH  10  11
ATOM     11  C   LIG    1       28.381 -13.028   4.372  0.00  0.00    +0.319 C 
ATOM     12  O   LIG    1       28.596 -12.186   5.248  0.00  0.00    -0.250 OA
BRANCH  11  13
ATOM     13  O   LIG    1       28.989 -12.957   3.160  0.00  0.00    -0.480 OA
ATOM     14  H   LIG    1       29.830 -12.440   3.165  0.00  0.00    +0.295 HD
ENDBRANCH  11  13
ENDBRANCH  10  11
ENDBRANCH   4  10
ENDBRANCH   3   4
ENDBRANCH   2   3
ENDBRANCH   1   2
BRANCH   1  15
ATOM     15  C   LIG    1       24.976 -18.840   3.647  0.00  0.00    +0.100 C 
BRANCH  15  16
ATOM     16  C   LIG    1       26.054 -19.756   4.313  0.00  0.00    +0.101 C 
BRANCH  16  17
ATOM     17  N   LIG    1       25.686 -20.534   5.517  0.00  0.00    -0.281 NA
BRANCH  17  18
ATOM     18  C   LIG    1       26.544 -20.331   6.722  0.00  0.00    +0.206 C 
BRANCH  18  19
ATOM     19  C   LIG    1       28.068 -20.288   6.577  0.00  0.00    +0.319 C 
ATOM     20  O   LIG    1       28.732 -19.322   6.942  0.00  0.00    -0.250 OA
BRANCH  19  21
ATOM     21  O   LIG    1       28.692 -21.407   6.167  0.00  0.00    -0.480 OA
ATOM     22  H   LIG    1       28.409 -22.207   6.632  0.00  0.00    +0.295 HD
ENDBRANCH  19  21
ENDBRANCH  18  19
ENDBRANCH  17  18
BRANCH  17  23
ATOM     23  C   LIG    1       24.236 -20.535   5.821  0.00  0.00    +0.206 C 
BRANCH  23  24
ATOM     24  C   LIG    1       23.366 -21.165   4.732  0.00  0.00    +0.319 C 
ATOM     25  O   LIG    1       23.762 -21.568   3.654  0.00  0.00    -0.250 OA
BRANCH  24  26
ATOM     26  O   LIG    1       22.051 -21.241   5.035  0.00  0.00    -0.480 OA
ATOM     27  H   LIG    1       21.650 -20.526   4.495  0.00  0.00    +0.295 HD
ENDBRANCH  24  26
ENDBRANCH  23  24
ENDBRANCH  17  23
ENDBRANCH  16  17
ENDBRANCH  15  16
ENDBRANCH   1  15
BRANCH   1  28
ATOM     28  C   LIG    1       23.768 -16.665   3.780  0.00  0.00    +0.205 C 
BRANCH  28  30
ATOM     29  O   LIG    1       21.942 -18.234   4.406  0.00  0.00    -0.250 OA
ATOM     30  C   LIG    1       22.522 -17.188   4.520  0.00  0.00    +0.319 C 
BRANCH  30  31
ATOM     31  O   LIG    1       21.988 -16.225   5.333  0.00  0.00    -0.480 OA
ATOM     32  H   LIG    1       22.781 -15.852   5.775  0.00  0.00    +0.295 HD
ENDBRANCH  30  31
ENDBRANCH  28  30
ENDBRANCH   1  28
TORSDOF 21
ENDMDL
MODEL 7
REMARK VINA RESULT:      -2.3      1.432      4.547
REMARK  Name = *****
REMARK                            x       y       z     vdW  Elec       q    Type
REMARK                         _______ _______ _______ _____ _____    ______ ____
ROOT
ATOM      1  N   LIG    1       27.881 -18.262   4.535  0.00  0.00    -0.290 NA
ENDROOT
BRANCH   1   2
ATOM      2  C   LIG    1       28.018 -16.828   4.147  0.00  0.00    +0.100 C 
BRANCH   2   3
ATOM      3  C   LIG    1       26.848 -16.115   3.369  0.00  0.00    +0.101 C 
BRANCH   3   4
ATOM      4  N   LIG    1       26.745 -14.635   3.561  0.00  0.00    -0.281 NA
BRANCH   4   5
ATOM      5  C   LIG    1       26.164 -13.962   2.377  0.00  0.00    +0.206 C 
BRANCH   5   6
ATOM      6  C   LIG    1       24.983 -13.051   2.691  0.00  0.00    +0.319 C 
ATOM      7  O   LIG    1       24.215 -13.193   3.623  0.00  0.00    -0.250 OA
BRANCH   6   8
ATOM      8  O   LIG    1       24.894 -11.985   1.864  0.00  0.00    -0.480 OA
ATOM      9  H   LIG    1       25.810 -11.796   1.573  0.00  0.00    +0.295 HD
ENDBRANCH   6   8
ENDBRANCH   5   6
ENDBRANCH   4   5
BRANCH   4  10
ATOM     10  C   LIG    1       28.025 -14.040   4.050  0.00  0.00    +0.206 C 
BRANCH  10  11
ATOM     11  C   LIG    1       27.887 -12.905   5.050  0.00  0.00    +0.319 C 
ATOM     12  O   LIG    1       28.747 -12.040   5.238  0.00  0.00    -0.250 OA
BRANCH  11  13
ATOM     13  O   LIG    1       26.727 -12.912   5.756  0.00  0.00    -0.480 OA
ATOM     14  H   LIG    1       26.068 -13.573   5.433  0.00  0.00    +0.295 HD
ENDBRANCH  11  13
ENDBRANCH  10  11
ENDBRANCH   4  10
ENDBRANCH   3   4
ENDBRANCH   2   3
ENDBRANCH   1   2
BRANCH   1  15
ATOM     15  C   LIG    1       26.520 -18.636   4.999  0.00  0.00    +0.100 C 
BRANCH  15  16
ATOM     16  C   LIG    1       25.651 -19.413   3.957  0.00  0.00    +0.101 C 
BRANCH  16  17
ATOM     17  N   LIG    1       24.247 -19.736   4.296  0.00  0.00    -0.281 NA
BRANCH  17  18
ATOM     18  C   LIG    1       23.199 -19.111   3.435  0.00  0.00    +0.206 C 
BRANCH  18  19
ATOM     19  C   LIG    1       22.066 -18.303   4.075  0.00  0.00    +0.319 C 
ATOM     20  O   LIG    1       22.281 -17.321   4.779  0.00  0.00    -0.250 OA
BRANCH  19  21
ATOM     21  O   LIG    1       20.802 -18.609   3.727  0.00  0.00    -0.480 OA
ATOM     22  H   LIG    1       20.388 -17.959   3.142  0.00  0.00    +0.295 HD
ENDBRANCH  19  21
ENDBRANCH  18  19
ENDBRANCH  17  18
BRANCH  17  23
ATOM     23  C   LIG    1       24.002 -21.170   4.573  0.00  0.00    +0.206 C 
BRANCH  23  24
ATOM     24  C   LIG    1       22.873 -21.434   5.570  0.00  0.00    +0.319 C 
ATOM     25  O   LIG    1       21.696 -21.572   5.289  0.00  0.00    -0.250 OA
BRANCH  24  26
ATOM     26  O   LIG    1       23.264 -21.492   6.863  0.00  0.00    -0.480 OA
ATOM     27  H   LIG    1       22.493 -21.893   7.318  0.00  0.00    +0.295 HD
ENDBRANCH  24  26
ENDBRANCH  23  24
ENDBRANCH  17  23
ENDBRANCH  16  17
ENDBRANCH  15  16
ENDBRANCH   1  15
BRANCH   1  28
ATOM     28  C   LIG    1       28.961 -18.634   5.500  0.00  0.00    +0.205 C 
BRANCH  28  30
ATOM     29  O   LIG    1       29.475 -20.501   7.062  0.00  0.00    -0.250 OA
ATOM     30  C   LIG    1       28.842 -20.022   6.160  0.00  0.00    +0.319 C 
BRANCH  30  31
ATOM     31  O   LIG    1       27.937 -20.808   5.500  0.00  0.00    -0.480 OA
ATOM     32  H   LIG    1       27.563 -20.193   4.833  0.00  0.00    +0.295 HD
ENDBRANCH  30  31
ENDBRANCH  28  30
ENDBRANCH   1  28
TORSDOF 21
ENDMDL
MODEL 8
REMARK VINA RESULT:      -2.1      1.653      7.632
REMARK  Name = *****
REMARK                            x       y       z     vdW  Elec       q    Type
REMARK                         _______ _______ _______ _____ _____    ______ ____
ROOT
ATOM      1  N   LIG    1       26.584 -15.101   3.470  0.00  0.00    -0.290 NA
ENDROOT
BRANCH   1   2
ATOM      2  C   LIG    1       26.462 -16.573   3.264  0.00  0.00    +0.100 C 
BRANCH   2   3
ATOM      3  C   LIG    1       27.054 -17.564   4.337  0.00  0.00    +0.101 C 
BRANCH   3   4
ATOM      4  N   LIG    1       26.711 -19.008   4.150  0.00  0.00    -0.281 NA
BRANCH   4   5
ATOM      5  C   LIG    1       25.408 -19.184   3.470  0.00  0.00    +0.206 C 
BRANCH   5   6
ATOM      6  C   LIG    1       24.382 -19.971   4.278  0.00  0.00    +0.319 C 
ATOM      7  O   LIG    1       23.541 -19.485   5.010  0.00  0.00    -0.250 OA
BRANCH   6   8
ATOM      8  O   LIG    1       24.430 -21.303   4.051  0.00  0.00    -0.480 OA
ATOM      9  H   LIG    1       25.324 -21.481   3.693  0.00  0.00    +0.295 HD
ENDBRANCH   6   8
ENDBRANCH   5   6
ENDBRANCH   4   5
BRANCH   4  10
ATOM     10  C   LIG    1       26.867 -19.792   5.413  0.00  0.00    +0.206 C 
BRANCH  10  11
ATOM     11  C   LIG    1       28.294 -20.011   5.884  0.00  0.00    +0.319 C 
ATOM     12  O   LIG    1       29.173 -19.145   5.856  0.00  0.00    -0.250 OA
BRANCH  11  13
ATOM     13  O   LIG    1       28.553 -21.265   6.336  0.00  0.00    -0.480 OA
ATOM     14  H   LIG    1       27.742 -21.786   6.553  0.00  0.00    +0.295 HD
ENDBRANCH  11  13
ENDBRANCH  10  11
ENDBRANCH   4  10
ENDBRANCH   3   4
ENDBRANCH   2   3
ENDBRANCH   1   2
BRANCH   1  15
ATOM     15  C   LIG    1       26.458 -14.304   2.224  0.00  0.00    +0.100 C 
BRANCH  15  16
ATOM     16  C   LIG    1       25.333 -13.217   2.239  0.00  0.00    +0.101 C 
BRANCH  16  17
ATOM     17  N   LIG    1       24.373 -13.197   3.365  0.00  0.00    -0.281 NA
BRANCH  17  18
ATOM     18  C   LIG    1       23.915 -11.850   3.818  0.00  0.00    +0.206 C 
BRANCH  18  19
ATOM     19  C   LIG    1       23.851 -11.528   5.315  0.00  0.00    +0.319 C 
ATOM     20  O   LIG    1       22.787 -11.462   5.924  0.00  0.00    -0.250 OA
BRANCH  19  21
ATOM     21  O   LIG    1       25.011 -11.459   5.992  0.00  0.00    -0.480 OA
ATOM     22  H   LIG    1       25.356 -10.561   6.090  0.00  0.00    +0.295 HD
ENDBRANCH  19  21
ENDBRANCH  18  19
ENDBRANCH  17  18
BRANCH  17  23
ATOM     23  C   LIG    1       23.274 -14.182   3.246  0.00  0.00    +0.206 C 
BRANCH  23  24
ATOM     24  C   LIG    1       23.163 -15.146   4.428  0.00  0.00    +0.319 C 
ATOM     25  O   LIG    1       23.304 -14.849   5.601  0.00  0.00    -0.250 OA
BRANCH  24  26
ATOM     26  O   LIG    1       22.902 -16.428   4.089  0.00  0.00    -0.480 OA
ATOM     27  H   LIG    1       23.671 -16.921   4.447  0.00  0.00    +0.295 HD
ENDBRANCH  24  26
ENDBRANCH  23  24
ENDBRANCH  17  23
ENDBRANCH  16  17
ENDBRANCH  15  16
ENDBRANCH   1  15
BRANCH   1  28
ATOM     28  C   LIG    1       27.825 -14.797   4.247  0.00  0.00    +0.205 C 
BRANCH  28  30
ATOM     29  O   LIG    1       28.914 -12.582   3.932  0.00  0.00    -0.250 OA
ATOM     30  C   LIG    1       28.134 -13.307   4.489  0.00  0.00    +0.319 C 
BRANCH  30  31
ATOM     31  O   LIG    1       27.463 -12.834   5.584  0.00  0.00    -0.480 OA
ATOM     32  H   LIG    1       28.187 -12.474   6.142  0.00  0.00    +0.295 HD
ENDBRANCH  30  31
ENDBRANCH  28  30
ENDBRANCH   1  28
TORSDOF 21
ENDMDL
MODEL 9
REMARK VINA RESULT:      -2.1      1.544      3.530
REMARK  Name = *****
REMARK                            x       y       z     vdW  Elec       q    Type
REMARK                         _______ _______ _______ _____ _____    ______ ____
ROOT
ATOM      1  N   LIG    1       27.811 -17.585   4.189  0.00  0.00    -0.290 NA
ENDROOT
BRANCH   1   2
ATOM      2  C   LIG    1       28.019 -16.134   3.915  0.00  0.00    +0.100 C 
BRANCH   2   3
ATOM      3  C   LIG    1       26.825 -15.264   3.365  0.00  0.00    +0.101 C 
BRANCH   3   4
ATOM      4  N   LIG    1       27.181 -13.889   2.897  0.00  0.00    -0.281 NA
BRANCH   4   5
ATOM      5  C   LIG    1       28.361 -13.350   3.611  0.00  0.00    +0.206 C 
BRANCH   5   6
ATOM      6  C   LIG    1       28.068 -12.861   5.025  0.00  0.00    +0.319 C 
ATOM      7  O   LIG    1       27.227 -13.329   5.770  0.00  0.00    -0.250 OA
BRANCH   6   8
ATOM      8  O   LIG    1       28.898 -11.877   5.434  0.00  0.00    -0.480 OA
ATOM      9  H   LIG    1       29.425 -12.258   6.167  0.00  0.00    +0.295 HD
ENDBRANCH   6   8
ENDBRANCH   5   6
ENDBRANCH   4   5
BRANCH   4  10
ATOM     10  C   LIG    1       25.997 -12.978   2.873  0.00  0.00    +0.206 C 
BRANCH  10  11
ATOM     11  C   LIG    1       24.815 -13.407   3.726  0.00  0.00    +0.319 C 
ATOM     12  O   LIG    1       24.071 -14.353   3.452  0.00  0.00    -0.250 OA
BRANCH  11  13
ATOM     13  O   LIG    1       24.614 -12.648   4.834  0.00  0.00    -0.480 OA
ATOM     14  H   LIG    1       25.436 -12.225   5.182  0.00  0.00    +0.295 HD
ENDBRANCH  11  13
ENDBRANCH  10  11
ENDBRANCH   4  10
ENDBRANCH   3   4
ENDBRANCH   2   3
ENDBRANCH   1   2
BRANCH   1  15
ATOM     15  C   LIG    1       26.419 -17.936   4.568  0.00  0.00    +0.100 C 
BRANCH  15  16
ATOM     16  C   LIG    1       25.774 -19.095   3.740  0.00  0.00    +0.101 C 
BRANCH  16  17
ATOM     17  N   LIG    1       24.525 -19.717   4.233  0.00  0.00    -0.281 NA
BRANCH  17  18
ATOM     18  C   LIG    1       23.280 -19.387   3.478  0.00  0.00    +0.206 C 
BRANCH  18  19
ATOM     19  C   LIG    1       21.916 -19.503   4.166  0.00  0.00    +0.319 C 
ATOM     20  O   LIG    1       21.670 -20.383   4.986  0.00  0.00    -0.250 OA
BRANCH  19  21
ATOM     21  O   LIG    1       21.023 -18.518   3.959  0.00  0.00    -0.480 OA
ATOM     22  H   LIG    1       20.525 -18.607   3.135  0.00  0.00    +0.295 HD
ENDBRANCH  19  21
ENDBRANCH  18  19
ENDBRANCH  17  18
BRANCH  17  23
ATOM     23  C   LIG    1       24.650 -21.156   4.561  0.00  0.00    +0.206 C 
BRANCH  23  24
ATOM     24  C   LIG    1       24.937 -21.442   6.036  0.00  0.00    +0.319 C 
ATOM     25  O   LIG    1       24.100 -21.541   6.915  0.00  0.00    -0.250 OA
BRANCH  24  26
ATOM     26  O   LIG    1       26.247 -21.571   6.341  0.00  0.00    -0.480 OA
ATOM     27  H   LIG    1       26.530 -20.651   6.533  0.00  0.00    +0.295 HD
ENDBRANCH  24  26
ENDBRANCH  23  24
ENDBRANCH  17  23
ENDBRANCH  16  17
ENDBRANCH  15  16
ENDBRANCH   1  15
BRANCH   1  28
ATOM     28  C   LIG    1       28.834 -18.070   5.166  0.00  0.00    +0.205 C 
BRANCH  28  30
ATOM     29  O   LIG    1       28.473 -19.648   7.054  0.00  0.00    -0.250 OA
ATOM     30  C   LIG    1       28.523 -19.400   5.880  0.00  0.00    +0.319 C 
BRANCH  30  31
ATOM     31  O   LIG    1       28.403 -20.427   4.984  0.00  0.00    -0.480 OA
ATOM     32  H   LIG    1       29.337 -20.623   4.753  0.00  0.00    +0.295 HD
ENDBRANCH  30  31
ENDBRANCH  28  30
ENDBRANCH   1  28
TORSDOF 21
ENDMDL
