MODEL 1
REMARK VINA RESULT:      -5.5      0.000      0.000
REMARK  Name = *****
REMARK                            x       y       z     vdW  Elec       q    Type
REMARK                         _______ _______ _______ _____ _____    ______ ____
ROOT
ATOM      1  C   LIG    1       23.161 -20.011   4.453  0.00  0.00    +0.121 A 
ATOM      2  C   LIG    1       24.378 -20.355   3.853  0.00  0.00    +0.049 A 
ATOM      3  C   LIG    1       25.218 -19.356   3.361  0.00  0.00    +0.049 A 
ATOM      4  C   LIG    1       24.854 -18.018   3.473  0.00  0.00    +0.121 A 
ATOM      5  C   LIG    1       23.614 -17.676   4.023  0.00  0.00    +0.049 A 
ATOM      6  C   LIG    1       22.778 -18.673   4.520  0.00  0.00    +0.049 A 
ENDROOT
BRANCH   1   7
ATOM      7  O   LIG    1       22.278 -20.891   5.011  0.00  0.00    -0.492 OA
BRANCH   7   8
ATOM      8  C   LIG    1       22.696 -21.571   6.184  0.00  0.00    +0.229 C 
BRANCH   8   9
ATOM      9  C   LIG    1       23.727 -20.718   6.915  0.00  0.00    +0.041 C 
BRANCH   9  11
ATOM     10  C   LIG    1       26.232 -20.482   7.053  0.00  0.00    +0.004 C 
ATOM     11  C   LIG    1       25.062 -21.450   7.062  0.00  0.00    +0.000 C 
ENDBRANCH   9  11
ENDBRANCH   8   9
ENDBRANCH   7   8
ENDBRANCH   1   7
BRANCH   4  12
ATOM     12  O   LIG    1       25.758 -17.104   3.004  0.00  0.00    -0.492 OA
BRANCH  12  13
ATOM     13  C   LIG    1       27.000 -17.075   3.707  0.00  0.00    +0.230 C 
BRANCH  13  14
ATOM     14  C   LIG    1       27.304 -15.642   4.106  0.00  0.00    +0.056 C 
BRANCH  14  15
ATOM     15  C   LIG    1       27.037 -14.662   2.952  0.00  0.00    +0.088 C 
BRANCH  15  16
ATOM     16  N   LIG    1       26.594 -13.345   3.438  0.00  0.00    -0.298 NA
ATOM     17  C   LIG    1       25.978 -12.519   2.374  0.00  0.00    +0.112 C 
ATOM     18  C   LIG    1       24.585 -12.999   1.941  0.00  0.00    +0.175 C 
ATOM     19  O   LIG    1       23.687 -13.052   3.055  0.00  0.00    -0.377 OA
ATOM     20  C   LIG    1       24.202 -13.913   4.078  0.00  0.00    +0.175 C 
ATOM     21  C   LIG    1       25.604 -13.469   4.536  0.00  0.00    +0.112 C 
ENDBRANCH  15  16
ENDBRANCH  14  15
ENDBRANCH  13  14
ENDBRANCH  12  13
ENDBRANCH   4  12
TORSDOF 9
ENDMDL
MODEL 2
REMARK VINA RESULT:      -5.1      1.803      2.813
REMARK  Name = *****
REMARK                            x       y       z     vdW  Elec       q    Type
REMARK                         _______ _______ _______ _____ _____    ______ ____
ROOT
ATOM      1  C   LIG    1       23.492 -19.794   4.082  0.00  0.00    +0.121 A 
ATOM      2  C   LIG    1       22.258 -19.336   4.556  0.00  0.00    +0.049 A 
ATOM      3  C   LIG    1       21.990 -17.967   4.589  0.00  0.00    +0.049 A 
ATOM      4  C   LIG    1       22.943 -17.057   4.144  0.00  0.00    +0.121 A 
ATOM      5  C   LIG    1       24.197 -17.511   3.722  0.00  0.00    +0.049 A 
ATOM      6  C   LIG    1       24.462 -18.878   3.682  0.00  0.00    +0.049 A 
ENDROOT
BRANCH   1   7
ATOM      7  O   LIG    1       23.853 -21.106   3.958  0.00  0.00    -0.492 OA
BRANCH   7   8
ATOM      8  C   LIG    1       24.919 -21.563   4.775  0.00  0.00    +0.229 C 
BRANCH   8   9
ATOM      9  C   LIG    1       24.521 -21.422   6.241  0.00  0.00    +0.041 C 
BRANCH   9  11
ATOM     10  C   LIG    1       26.848 -20.454   6.213  0.00  0.00    +0.004 C 
ATOM     11  C   LIG    1       25.623 -20.749   7.061  0.00  0.00    +0.000 C 
ENDBRANCH   9  11
ENDBRANCH   8   9
ENDBRANCH   7   8
ENDBRANCH   1   7
BRANCH   4  12
ATOM     12  O   LIG    1       22.580 -15.738   4.171  0.00  0.00    -0.492 OA
BRANCH  12  13
ATOM     13  C   LIG    1       23.593 -14.848   4.640  0.00  0.00    +0.230 C 
BRANCH  13  14
ATOM     14  C   LIG    1       23.818 -13.767   3.598  0.00  0.00    +0.056 C 
BRANCH  14  15
ATOM     15  C   LIG    1       25.229 -13.167   3.697  0.00  0.00    +0.088 C 
BRANCH  15  16
ATOM     16  N   LIG    1       26.214 -14.150   4.180  0.00  0.00    -0.298 NA
ATOM     17  C   LIG    1       27.268 -14.443   3.182  0.00  0.00    +0.112 C 
ATOM     18  C   LIG    1       28.276 -13.301   2.984  0.00  0.00    +0.175 C 
ATOM     19  O   LIG    1       28.904 -12.948   4.222  0.00  0.00    -0.377 OA
ATOM     20  C   LIG    1       27.925 -12.570   5.197  0.00  0.00    +0.175 C 
ATOM     21  C   LIG    1       26.888 -13.688   5.418  0.00  0.00    +0.112 C 
ENDBRANCH  15  16
ENDBRANCH  14  15
ENDBRANCH  13  14
ENDBRANCH  12  13
ENDBRANCH   4  12
TORSDOF 9
ENDMDL
MODEL 3
REMARK VINA RESULT:      -5.0      1.462      2.680
REMARK  Name = *****
REMARK                            x       y       z     vdW  Elec       q    Type
REMARK                         _______ _______ _______ _____ _____    ______ ____
ROOT
ATOM      1  C   LIG    1       25.364 -20.295   4.252  0.00  0.00    +0.121 A 
ATOM      2  C   LIG    1       25.063 -19.254   3.368  0.00  0.00    +0.049 A 
ATOM      3  C   LIG    1       25.869 -18.116   3.333  0.00  0.00    +0.049 A 
ATOM      4  C   LIG    1       26.977 -18.017   4.168  0.00  0.00    +0.121 A 
ATOM      5  C   LIG    1       27.247 -19.034   5.091  0.00  0.00    +0.049 A 
ATOM      6  C   LIG    1       26.445 -20.173   5.122  0.00  0.00    +0.049 A 
ENDROOT
BRANCH   1   7
ATOM      7  O   LIG    1       24.680 -21.474   4.348  0.00  0.00    -0.492 OA
BRANCH   7   8
ATOM      8  C   LIG    1       23.693 -21.570   5.362  0.00  0.00    +0.229 C 
BRANCH   8   9
ATOM      9  C   LIG    1       22.439 -20.827   4.909  0.00  0.00    +0.041 C 
BRANCH   9  11
ATOM     10  C   LIG    1       21.826 -18.428   4.441  0.00  0.00    +0.004 C 
ATOM     11  C   LIG    1       22.402 -19.400   5.457  0.00  0.00    +0.000 C 
ENDBRANCH   9  11
ENDBRANCH   8   9
ENDBRANCH   7   8
ENDBRANCH   1   7
BRANCH   4  12
ATOM     12  O   LIG    1       27.736 -16.887   4.036  0.00  0.00    -0.492 OA
BRANCH  12  13
ATOM     13  C   LIG    1       27.109 -15.827   3.313  0.00  0.00    +0.230 C 
BRANCH  13  14
ATOM     14  C   LIG    1       27.542 -14.501   3.913  0.00  0.00    +0.056 C 
BRANCH  14  15
ATOM     15  C   LIG    1       26.713 -13.330   3.360  0.00  0.00    +0.088 C 
BRANCH  15  16
ATOM     16  N   LIG    1       25.329 -13.730   3.054  0.00  0.00    -0.298 NA
ATOM     17  C   LIG    1       24.421 -13.587   4.215  0.00  0.00    +0.112 C 
ATOM     18  C   LIG    1       24.086 -12.130   4.569  0.00  0.00    +0.175 C 
ATOM     19  O   LIG    1       23.507 -11.448   3.450  0.00  0.00    -0.377 OA
ATOM     20  C   LIG    1       24.392 -11.484   2.324  0.00  0.00    +0.175 C 
ATOM     21  C   LIG    1       24.760 -12.930   1.941  0.00  0.00    +0.112 C 
ENDBRANCH  15  16
ENDBRANCH  14  15
ENDBRANCH  13  14
ENDBRANCH  12  13
ENDBRANCH   4  12
TORSDOF 9
ENDMDL
MODEL 4
REMARK VINA RESULT:      -4.7      1.766      2.880
REMARK  Name = *****
REMARK                            x       y       z     vdW  Elec       q    Type
REMARK                         _______ _______ _______ _____ _____    ______ ____
ROOT
ATOM      1  C   LIG    1       24.405 -20.398   5.002  0.00  0.00    +0.121 A 
ATOM      2  C   LIG    1       25.089 -19.588   4.090  0.00  0.00    +0.049 A 
ATOM      3  C   LIG    1       24.524 -18.384   3.668  0.00  0.00    +0.049 A 
ATOM      4  C   LIG    1       23.286 -17.983   4.157  0.00  0.00    +0.121 A 
ATOM      5  C   LIG    1       22.576 -18.819   5.026  0.00  0.00    +0.049 A 
ATOM      6  C   LIG    1       23.143 -20.017   5.453  0.00  0.00    +0.049 A 
ENDROOT
BRANCH   1   7
ATOM      7  O   LIG    1       24.872 -21.571   5.524  0.00  0.00    -0.492 OA
BRANCH   7   8
ATOM      8  C   LIG    1       26.195 -21.570   6.036  0.00  0.00    +0.229 C 
BRANCH   8   9
ATOM      9  C   LIG    1       26.423 -20.284   6.825  0.00  0.00    +0.041 C 
BRANCH   9  11
ATOM     10  C   LIG    1       28.458 -19.388   5.639  0.00  0.00    +0.004 C 
ATOM     11  C   LIG    1       27.911 -19.951   6.940  0.00  0.00    +0.000 C 
ENDBRANCH   9  11
ENDBRANCH   8   9
ENDBRANCH   7   8
ENDBRANCH   1   7
BRANCH   4  12
ATOM     12  O   LIG    1       22.827 -16.769   3.723  0.00  0.00    -0.492 OA
BRANCH  12  13
ATOM     13  C   LIG    1       22.400 -15.886   4.760  0.00  0.00    +0.230 C 
BRANCH  13  14
ATOM     14  C   LIG    1       23.437 -14.789   4.928  0.00  0.00    +0.056 C 
BRANCH  14  15
ATOM     15  C   LIG    1       24.107 -14.431   3.591  0.00  0.00    +0.088 C 
BRANCH  15  16
ATOM     16  N   LIG    1       24.757 -13.111   3.636  0.00  0.00    -0.298 NA
ATOM     17  C   LIG    1       25.469 -12.866   4.912  0.00  0.00    +0.112 C 
ATOM     18  C   LIG    1       26.762 -13.680   5.070  0.00  0.00    +0.175 C 
ATOM     19  O   LIG    1       27.666 -13.429   3.988  0.00  0.00    -0.377 OA
ATOM     20  C   LIG    1       27.048 -13.737   2.732  0.00  0.00    +0.175 C 
ATOM     21  C   LIG    1       25.741 -12.945   2.537  0.00  0.00    +0.112 C 
ENDBRANCH  15  16
ENDBRANCH  14  15
ENDBRANCH  13  14
ENDBRANCH  12  13
ENDBRANCH   4  12
TORSDOF 9
ENDMDL
MODEL 5
REMARK VINA RESULT:      -4.3      1.276      2.243
REMARK  Name = *****
REMARK                            x       y       z     vdW  Elec       q    Type
REMARK                         _______ _______ _______ _____ _____    ______ ____
ROOT
ATOM      1  C   LIG    1       25.715 -20.010   4.415  0.00  0.00    +0.121 A 
ATOM      2  C   LIG    1       24.907 -19.163   3.648  0.00  0.00    +0.049 A 
ATOM      3  C   LIG    1       25.364 -17.891   3.303  0.00  0.00    +0.049 A 
ATOM      4  C   LIG    1       26.623 -17.465   3.711  0.00  0.00    +0.121 A 
ATOM      5  C   LIG    1       27.409 -18.290   4.524  0.00  0.00    +0.049 A 
ATOM      6  C   LIG    1       26.955 -19.563   4.863  0.00  0.00    +0.049 A 
ENDROOT
BRANCH   1   7
ATOM      7  O   LIG    1       25.400 -21.289   4.777  0.00  0.00    -0.492 OA
BRANCH   7   8
ATOM      8  C   LIG    1       25.243 -21.550   6.163  0.00  0.00    +0.229 C 
BRANCH   8   9
ATOM      9  C   LIG    1       23.950 -20.903   6.649  0.00  0.00    +0.041 C 
BRANCH   9  11
ATOM     10  C   LIG    1       22.036 -20.664   5.028  0.00  0.00    +0.004 C 
ATOM     11  C   LIG    1       22.719 -21.572   6.036  0.00  0.00    +0.000 C 
ENDBRANCH   9  11
ENDBRANCH   8   9
ENDBRANCH   7   8
ENDBRANCH   1   7
BRANCH   4  12
ATOM     12  O   LIG    1       27.007 -16.221   3.290  0.00  0.00    -0.492 OA
BRANCH  12  13
ATOM     13  C   LIG    1       27.864 -15.523   4.194  0.00  0.00    +0.230 C 
BRANCH  13  14
ATOM     14  C   LIG    1       28.015 -14.089   3.717  0.00  0.00    +0.056 C 
BRANCH  14  15
ATOM     15  C   LIG    1       26.916 -13.706   2.713  0.00  0.00    +0.088 C 
BRANCH  15  16
ATOM     16  N   LIG    1       25.989 -12.704   3.265  0.00  0.00    -0.298 NA
ATOM     17  C   LIG    1       24.953 -12.284   2.293  0.00  0.00    +0.112 C 
ATOM     18  C   LIG    1       23.883 -13.352   2.022  0.00  0.00    +0.175 C 
ATOM     19  O   LIG    1       23.235 -13.753   3.235  0.00  0.00    -0.377 OA
ATOM     20  C   LIG    1       24.192 -14.251   4.178  0.00  0.00    +0.175 C 
ATOM     21  C   LIG    1       25.289 -13.210   4.472  0.00  0.00    +0.112 C 
ENDBRANCH  15  16
ENDBRANCH  14  15
ENDBRANCH  13  14
ENDBRANCH  12  13
ENDBRANCH   4  12
TORSDOF 9
ENDMDL
MODEL 6
REMARK VINA RESULT:      -4.2      1.727      3.023
REMARK  Name = *****
REMARK                            x       y       z     vdW  Elec       q    Type
REMARK                         _______ _______ _______ _____ _____    ______ ____
ROOT
ATOM      1  C   LIG    1       24.790 -20.989   5.811  0.00  0.00    +0.121 A 
ATOM      2  C   LIG    1       25.625 -20.882   6.929  0.00  0.00    +0.049 A 
ATOM      3  C   LIG    1       26.848 -20.218   6.823  0.00  0.00    +0.049 A 
ATOM      4  C   LIG    1       27.236 -19.655   5.612  0.00  0.00    +0.121 A 
ATOM      5  C   LIG    1       26.427 -19.810   4.480  0.00  0.00    +0.049 A 
ATOM      6  C   LIG    1       25.203 -20.467   4.588  0.00  0.00    +0.049 A 
ENDROOT
BRANCH   1   7
ATOM      7  O   LIG    1       23.555 -21.571   5.800  0.00  0.00    -0.492 OA
BRANCH   7   8
ATOM      8  C   LIG    1       22.516 -20.874   5.131  0.00  0.00    +0.229 C 
BRANCH   8   9
ATOM      9  C   LIG    1       22.602 -19.392   5.483  0.00  0.00    +0.041 C 
BRANCH   9  11
ATOM     10  C   LIG    1       22.249 -17.035   4.667  0.00  0.00    +0.004 C 
ATOM     11  C   LIG    1       22.117 -18.511   4.332  0.00  0.00    +0.000 C 
ENDBRANCH   9  11
ENDBRANCH   8   9
ENDBRANCH   7   8
ENDBRANCH   1   7
BRANCH   4  12
ATOM     12  O   LIG    1       28.429 -18.986   5.610  0.00  0.00    -0.492 OA
BRANCH  12  13
ATOM     13  C   LIG    1       28.661 -18.181   4.454  0.00  0.00    +0.230 C 
BRANCH  13  14
ATOM     14  C   LIG    1       28.117 -16.787   4.710  0.00  0.00    +0.056 C 
BRANCH  14  15
ATOM     15  C   LIG    1       27.061 -16.388   3.666  0.00  0.00    +0.088 C 
BRANCH  15  16
ATOM     16  N   LIG    1       27.274 -15.021   3.162  0.00  0.00    -0.298 NA
ATOM     17  C   LIG    1       26.046 -14.424   2.588  0.00  0.00    +0.112 C 
ATOM     18  C   LIG    1       24.992 -14.038   3.636  0.00  0.00    +0.175 C 
ATOM     19  O   LIG    1       25.532 -13.130   4.602  0.00  0.00    -0.377 OA
ATOM     20  C   LIG    1       26.675 -13.702   5.249  0.00  0.00    +0.175 C 
ATOM     21  C   LIG    1       27.756 -14.110   4.230  0.00  0.00    +0.112 C 
ENDBRANCH  15  16
ENDBRANCH  14  15
ENDBRANCH  13  14
ENDBRANCH  12  13
ENDBRANCH   4  12
TORSDOF 9
ENDMDL
MODEL 7
REMARK VINA RESULT:      -4.2      1.344      2.209
REMARK  Name = *****
REMARK                            x       y       z     vdW  Elec       q    Type
REMARK                         _______ _______ _______ _____ _____    ______ ____
ROOT
ATOM      1  C   LIG    1       26.000 -19.835   4.564  0.00  0.00    +0.121 A 
ATOM      2  C   LIG    1       27.240 -19.273   4.889  0.00  0.00    +0.049 A 
ATOM      3  C   LIG    1       27.573 -18.002   4.419  0.00  0.00    +0.049 A 
ATOM      4  C   LIG    1       26.672 -17.288   3.637  0.00  0.00    +0.121 A 
ATOM      5  C   LIG    1       25.455 -17.871   3.266  0.00  0.00    +0.049 A 
ATOM      6  C   LIG    1       25.121 -19.137   3.740  0.00  0.00    +0.049 A 
ENDROOT
BRANCH   1   7
ATOM      7  O   LIG    1       25.543 -21.046   4.999  0.00  0.00    -0.492 OA
BRANCH   7   8
ATOM      8  C   LIG    1       25.363 -21.206   6.397  0.00  0.00    +0.229 C 
BRANCH   8   9
ATOM      9  C   LIG    1       23.905 -21.558   6.676  0.00  0.00    +0.041 C 
BRANCH   9  11
ATOM     10  C   LIG    1       22.146 -20.818   5.030  0.00  0.00    +0.004 C 
ATOM     11  C   LIG    1       22.962 -20.431   6.252  0.00  0.00    +0.000 C 
ENDBRANCH   9  11
ENDBRANCH   8   9
ENDBRANCH   7   8
ENDBRANCH   1   7
BRANCH   4  12
ATOM     12  O   LIG    1       27.063 -16.033   3.257  0.00  0.00    -0.492 OA
BRANCH  12  13
ATOM     13  C   LIG    1       28.005 -15.410   4.131  0.00  0.00    +0.230 C 
BRANCH  13  14
ATOM     14  C   LIG    1       27.916 -13.905   3.955  0.00  0.00    +0.056 C 
BRANCH  14  15
ATOM     15  C   LIG    1       26.951 -13.521   2.822  0.00  0.00    +0.088 C 
BRANCH  15  16
ATOM     16  N   LIG    1       25.937 -12.550   3.267  0.00  0.00    -0.298 NA
ATOM     17  C   LIG    1       24.950 -12.228   2.211  0.00  0.00    +0.112 C 
ATOM     18  C   LIG    1       23.957 -13.363   1.919  0.00  0.00    +0.175 C 
ATOM     19  O   LIG    1       23.250 -13.748   3.103  0.00  0.00    -0.377 OA
ATOM     20  C   LIG    1       24.165 -14.153   4.129  0.00  0.00    +0.175 C 
ATOM     21  C   LIG    1       25.184 -13.043   4.446  0.00  0.00    +0.112 C 
ENDBRANCH  15  16
ENDBRANCH  14  15
ENDBRANCH  13  14
ENDBRANCH  12  13
ENDBRANCH   4  12
TORSDOF 9
ENDMDL
MODEL 8
REMARK VINA RESULT:      -4.1      2.617      6.269
REMARK  Name = *****
REMARK                            x       y       z     vdW  Elec       q    Type
REMARK                         _______ _______ _______ _____ _____    ______ ____
ROOT
ATOM      1  C   LIG    1       23.088 -17.072   4.126  0.00  0.00    +0.121 A 
ATOM      2  C   LIG    1       24.233 -17.677   3.599  0.00  0.00    +0.049 A 
ATOM      3  C   LIG    1       24.436 -19.047   3.767  0.00  0.00    +0.049 A 
ATOM      4  C   LIG    1       23.499 -19.815   4.451  0.00  0.00    +0.121 A 
ATOM      5  C   LIG    1       22.381 -19.200   5.026  0.00  0.00    +0.049 A 
ATOM      6  C   LIG    1       22.175 -17.834   4.852  0.00  0.00    +0.049 A 
ENDROOT
BRANCH   1   7
ATOM      7  O   LIG    1       22.756 -15.754   3.989  0.00  0.00    -0.492 OA
BRANCH   7   8
ATOM      8  C   LIG    1       23.504 -14.815   4.745  0.00  0.00    +0.229 C 
BRANCH   8   9
ATOM      9  C   LIG    1       23.891 -13.644   3.846  0.00  0.00    +0.041 C 
BRANCH   9  11
ATOM     10  C   LIG    1       26.314 -14.021   4.423  0.00  0.00    +0.004 C 
ATOM     11  C   LIG    1       25.312 -13.796   3.304  0.00  0.00    +0.000 C 
ENDBRANCH   9  11
ENDBRANCH   8   9
ENDBRANCH   7   8
ENDBRANCH   1   7
BRANCH   4  12
ATOM     12  O   LIG    1       23.757 -21.156   4.531  0.00  0.00    -0.492 OA
BRANCH  12  13
ATOM     13  C   LIG    1       24.975 -21.491   5.196  0.00  0.00    +0.230 C 
BRANCH  13  14
ATOM     14  C   LIG    1       24.944 -20.909   6.598  0.00  0.00    +0.056 C 
BRANCH  14  15
ATOM     15  C   LIG    1       26.340 -20.460   7.058  0.00  0.00    +0.088 C 
BRANCH  15  16
ATOM     16  N   LIG    1       27.397 -20.917   6.139  0.00  0.00    -0.298 NA
ATOM     17  C   LIG    1       27.535 -20.047   4.948  0.00  0.00    +0.112 C 
ATOM     18  C   LIG    1       28.170 -18.681   5.244  0.00  0.00    +0.175 C 
ATOM     19  O   LIG    1       29.458 -18.830   5.853  0.00  0.00    -0.377 OA
ATOM     20  C   LIG    1       29.360 -19.594   7.061  0.00  0.00    +0.175 C 
ATOM     21  C   LIG    1       28.720 -20.972   6.808  0.00  0.00    +0.112 C 
ENDBRANCH  15  16
ENDBRANCH  14  15
ENDBRANCH  13  14
ENDBRANCH  12  13
ENDBRANCH   4  12
TORSDOF 9
ENDMDL
MODEL 9
REMARK VINA RESULT:      -3.7      2.522      7.038
REMARK  Name = *****
REMARK                            x       y       z     vdW  Elec       q    Type
REMARK                         _______ _______ _______ _____ _____    ______ ____
ROOT
ATOM      1  C   LIG    1       27.207 -15.731   3.708  0.00  0.00    +0.121 A 
ATOM      2  C   LIG    1       26.241 -16.662   3.308  0.00  0.00    +0.049 A 
ATOM      3  C   LIG    1       26.370 -18.000   3.681  0.00  0.00    +0.049 A 
ATOM      4  C   LIG    1       27.450 -18.411   4.455  0.00  0.00    +0.121 A 
ATOM      5  C   LIG    1       28.444 -17.492   4.808  0.00  0.00    +0.049 A 
ATOM      6  C   LIG    1       28.313 -16.154   4.441  0.00  0.00    +0.049 A 
ENDROOT
BRANCH   1   7
ATOM      7  O   LIG    1       27.169 -14.391   3.446  0.00  0.00    -0.492 OA
BRANCH   7   8
ATOM      8  C   LIG    1       26.343 -13.963   2.375  0.00  0.00    +0.229 C 
BRANCH   8   9
ATOM      9  C   LIG    1       25.382 -12.892   2.881  0.00  0.00    +0.041 C 
BRANCH   9  11
ATOM     10  C   LIG    1       23.849 -14.181   4.411  0.00  0.00    +0.004 C 
ATOM     11  C   LIG    1       23.973 -13.450   3.085  0.00  0.00    +0.000 C 
ENDBRANCH   9  11
ENDBRANCH   8   9
ENDBRANCH   7   8
ENDBRANCH   1   7
BRANCH   4  12
ATOM     12  O   LIG    1       27.473 -19.732   4.810  0.00  0.00    -0.492 OA
BRANCH  12  13
ATOM     13  C   LIG    1       28.202 -20.017   6.004  0.00  0.00    +0.230 C 
BRANCH  13  14
ATOM     14  C   LIG    1       27.311 -20.809   6.945  0.00  0.00    +0.056 C 
BRANCH  14  15
ATOM     15  C   LIG    1       25.831 -20.427   6.781  0.00  0.00    +0.088 C 
BRANCH  15  16
ATOM     16  N   LIG    1       25.017 -21.563   6.314  0.00  0.00    -0.298 NA
ATOM     17  C   LIG    1       23.650 -21.561   6.883  0.00  0.00    +0.112 C 
ATOM     18  C   LIG    1       22.736 -20.469   6.307  0.00  0.00    +0.175 C 
ATOM     19  O   LIG    1       22.637 -20.578   4.882  0.00  0.00    -0.377 OA
ATOM     20  C   LIG    1       23.934 -20.497   4.278  0.00  0.00    +0.175 C 
ATOM     21  C   LIG    1       24.885 -21.572   4.836  0.00  0.00    +0.112 C 
ENDBRANCH  15  16
ENDBRANCH  14  15
ENDBRANCH  13  14
ENDBRANCH  12  13
ENDBRANCH   4  12
TORSDOF 9
ENDMDL
