MODEL 1
REMARK VINA RESULT:      -6.3      0.000      0.000
REMARK  Name = *****
REMARK                            x       y       z     vdW  Elec       q    Type
REMARK                         _______ _______ _______ _____ _____    ______ ____
ROOT
ATOM      1  C   LIG    1       17.787 -31.581  11.544  0.00  0.00    +0.132 A 
ATOM      2  C   LIG    1       19.006 -30.937  11.855  0.00  0.00    +0.075 A 
ATOM      3  C   LIG    1       20.222 -31.007  10.986  0.00  0.00    +0.202 C 
ATOM      4  C   LIG    1       21.514 -30.447  11.459  0.00  0.00    +0.078 A 
ATOM      5  C   LIG    1       21.564 -29.760  12.668  0.00  0.00    +0.078 A 
ATOM      6  C   LIG    1       20.330 -29.546  13.435  0.00  0.00    +0.198 C 
ATOM      7  O   LIG    1       20.367 -28.836  14.448  0.00  0.00    -0.286 OA
ATOM      8  C   LIG    1       22.784 -29.291  13.164  0.00  0.00    +0.132 A 
ATOM      9  C   LIG    1       23.980 -29.491  12.461  0.00  0.00    +0.007 A 
ATOM     10  C   LIG    1       25.271 -29.053  13.123  0.00  0.00    +0.082 C 
ATOM     11  C   LIG    1       26.498 -29.092  12.214  0.00  0.00    +0.133 C 
ATOM     12  C   LIG    1       26.453 -30.392  11.395  0.00  0.00    +0.079 C 
ATOM     13  C   LIG    1       25.256 -30.391  10.435  0.00  0.00    +0.158 C 
ATOM     14  C   LIG    1       23.958 -30.159  11.216  0.00  0.00    +0.030 A 
ATOM     15  C   LIG    1       22.717 -30.626  10.734  0.00  0.00    +0.135 A 
ATOM     16  O   LIG    1       20.210 -31.529   9.866  0.00  0.00    -0.286 OA
ATOM     17  C   LIG    1       19.074 -30.190  13.039  0.00  0.00    +0.037 A 
ATOM     18  C   LIG    1       17.974 -30.065  13.895  0.00  0.00    +0.012 A 
ATOM     19  C   LIG    1       16.781 -30.691  13.580  0.00  0.00    +0.004 A 
ATOM     20  C   LIG    1       16.689 -31.446  12.411  0.00  0.00    +0.046 A 
ENDROOT
BRANCH   1  22
ATOM     21  C   LIG    1       17.527 -33.741  10.542  0.00  0.00    +0.277 C 
ATOM     22  O   LIG    1       17.735 -32.339  10.403  0.00  0.00    -0.494 OA
ENDBRANCH   1  22
BRANCH   8  23
ATOM     23  O   LIG    1       22.882 -28.652  14.378  0.00  0.00    -0.506 OA
ATOM     24  H   LIG    1       22.347 -29.143  15.040  0.00  0.00    +0.292 HD
ENDBRANCH   8  23
BRANCH  11  25
ATOM     25  O   LIG    1       26.526 -27.924  11.389  0.00  0.00    -0.381 OA
ATOM     26  H   LIG    1       26.354 -27.139  11.954  0.00  0.00    +0.211 HD
ENDBRANCH  11  25
BRANCH  11  27
ATOM     27  C   LIG    1       27.777 -29.025  13.066  0.00  0.00    +0.190 C 
ATOM     28  O   LIG    1       28.745 -29.768  12.877  0.00  0.00    -0.292 OA
BRANCH  27  29
ATOM     29  C   LIG    1       27.793 -28.009  14.211  0.00  0.00    +0.233 C 
BRANCH  29  30
ATOM     30  O   LIG    1       27.802 -26.666  13.747  0.00  0.00    -0.387 OA
ATOM     31  H   LIG    1       28.730 -26.461  13.521  0.00  0.00    +0.210 HD
ENDBRANCH  29  30
ENDBRANCH  27  29
ENDBRANCH  11  27
BRANCH  15  32
ATOM     32  O   LIG    1       22.726 -31.298   9.534  0.00  0.00    -0.506 OA
ATOM     33  H   LIG    1       23.270 -32.113   9.636  0.00  0.00    +0.292 HD
ENDBRANCH  15  32
BRANCH  13  34
ATOM     34  O   LIG    1       25.385 -29.353   9.445  0.00  0.00    -0.343 OA
BRANCH  34  35
ATOM     35  C   LIG    1       25.366 -29.775   8.066  0.00  0.00    +0.253 C 
ATOM     36  O   LIG    1       24.057 -29.496   7.553  0.00  0.00    -0.346 OA
ATOM     37  C   LIG    1       23.862 -29.808   6.164  0.00  0.00    +0.148 C 
ATOM     38  C   LIG    1       24.567 -28.828   5.230  0.00  0.00    +0.040 C 
ATOM     39  C   LIG    1       24.169 -31.291   5.895  0.00  0.00    +0.160 C 
ATOM     40  C   LIG    1       25.516 -31.766   6.480  0.00  0.00    +0.087 C 
ATOM     41  C   LIG    1       25.692 -31.257   7.913  0.00  0.00    +0.082 C 
BRANCH  40  42
ATOM     42  N   LIG    1       26.692 -31.442   5.660  0.00  0.00    -0.325 NA
ATOM     43  H   LIG    1       27.265 -32.278   5.539  0.00  0.00    +0.119 HD
ATOM     44  H   LIG    1       26.447 -31.126   4.726  0.00  0.00    +0.119 HD
ENDBRANCH  40  42
BRANCH  39  45
ATOM     45  O   LIG    1       23.128 -32.075   6.509  0.00  0.00    -0.388 OA
ATOM     46  H   LIG    1       23.020 -31.739   7.420  0.00  0.00    +0.210 HD
ENDBRANCH  39  45
ENDBRANCH  34  35
ENDBRANCH  13  34
TORSDOF 11
ENDMDL
MODEL 2
REMARK VINA RESULT:      -5.8      2.938      7.003
REMARK  Name = *****
REMARK                            x       y       z     vdW  Elec       q    Type
REMARK                         _______ _______ _______ _____ _____    ______ ____
ROOT
ATOM      1  C   LIG    1       24.272 -32.560   7.223  0.00  0.00    +0.132 A 
ATOM      2  C   LIG    1       24.690 -31.794   8.335  0.00  0.00    +0.075 A 
ATOM      3  C   LIG    1       23.751 -31.268   9.374  0.00  0.00    +0.202 C 
ATOM      4  C   LIG    1       24.239 -30.331  10.418  0.00  0.00    +0.078 A 
ATOM      5  C   LIG    1       25.595 -30.030  10.493  0.00  0.00    +0.078 A 
ATOM      6  C   LIG    1       26.537 -30.684   9.575  0.00  0.00    +0.198 C 
ATOM      7  O   LIG    1       27.751 -30.496   9.726  0.00  0.00    -0.286 OA
ATOM      8  C   LIG    1       26.061 -29.093  11.421  0.00  0.00    +0.132 A 
ATOM      9  C   LIG    1       25.185 -28.444  12.301  0.00  0.00    +0.007 A 
ATOM     10  C   LIG    1       25.755 -27.361  13.195  0.00  0.00    +0.082 C 
ATOM     11  C   LIG    1       24.800 -26.860  14.277  0.00  0.00    +0.133 C 
ATOM     12  C   LIG    1       23.406 -26.690  13.653  0.00  0.00    +0.079 C 
ATOM     13  C   LIG    1       22.831 -28.046  13.222  0.00  0.00    +0.158 C 
ATOM     14  C   LIG    1       23.806 -28.750  12.270  0.00  0.00    +0.030 A 
ATOM     15  C   LIG    1       23.356 -29.697  11.325  0.00  0.00    +0.135 A 
ATOM     16  O   LIG    1       22.554 -31.575   9.406  0.00  0.00    -0.286 OA
ATOM     17  C   LIG    1       26.057 -31.518   8.469  0.00  0.00    +0.037 A 
ATOM     18  C   LIG    1       26.997 -31.989   7.546  0.00  0.00    +0.012 A 
ATOM     19  C   LIG    1       26.582 -32.746   6.465  0.00  0.00    +0.004 A 
ATOM     20  C   LIG    1       25.227 -33.029   6.304  0.00  0.00    +0.046 A 
ENDROOT
BRANCH   1  22
ATOM     21  C   LIG    1       22.529 -33.825   6.175  0.00  0.00    +0.277 C 
ATOM     22  O   LIG    1       22.930 -32.798   7.075  0.00  0.00    -0.494 OA
ENDBRANCH   1  22
BRANCH   8  23
ATOM     23  O   LIG    1       27.386 -28.732  11.492  0.00  0.00    -0.506 OA
ATOM     24  H   LIG    1       27.801 -29.196  12.253  0.00  0.00    +0.292 HD
ENDBRANCH   8  23
BRANCH  11  25
ATOM     25  O   LIG    1       24.800 -27.770  15.380  0.00  0.00    -0.381 OA
ATOM     26  H   LIG    1       23.879 -27.862  15.710  0.00  0.00    +0.211 HD
ENDBRANCH  11  25
BRANCH  11  27
ATOM     27  C   LIG    1       25.313 -25.526  14.844  0.00  0.00    +0.190 C 
ATOM     28  O   LIG    1       24.559 -24.658  15.296  0.00  0.00    -0.292 OA
BRANCH  27  29
ATOM     29  C   LIG    1       26.824 -25.286  14.790  0.00  0.00    +0.233 C 
BRANCH  29  30
ATOM     30  O   LIG    1       27.168 -24.150  14.010  0.00  0.00    -0.387 OA
ATOM     31  H   LIG    1       28.092 -23.931  14.239  0.00  0.00    +0.210 HD
ENDBRANCH  29  30
ENDBRANCH  27  29
ENDBRANCH  11  27
BRANCH  15  32
ATOM     32  O   LIG    1       22.005 -29.956  11.297  0.00  0.00    -0.506 OA
ATOM     33  H   LIG    1       21.645 -29.649  10.433  0.00  0.00    +0.292 HD
ENDBRANCH  15  32
BRANCH  13  34
ATOM     34  O   LIG    1       22.608 -28.901  14.360  0.00  0.00    -0.343 OA
BRANCH  34  35
ATOM     35  C   LIG    1       21.259 -29.375  14.551  0.00  0.00    +0.253 C 
ATOM     36  O   LIG    1       21.176 -30.674  13.949  0.00  0.00    -0.346 OA
ATOM     37  C   LIG    1       19.905 -31.332  14.084  0.00  0.00    +0.148 C 
ATOM     38  C   LIG    1       19.647 -31.840  15.500  0.00  0.00    +0.040 C 
ATOM     39  C   LIG    1       18.782 -30.464  13.493  0.00  0.00    +0.160 C 
ATOM     40  C   LIG    1       18.803 -29.000  13.978  0.00  0.00    +0.087 C 
ATOM     41  C   LIG    1       20.226 -28.437  13.936  0.00  0.00    +0.082 C 
BRANCH  40  42
ATOM     42  N   LIG    1       18.191 -28.779  15.297  0.00  0.00    -0.325 NA
ATOM     43  H   LIG    1       17.601 -27.946  15.264  0.00  0.00    +0.119 HD
ATOM     44  H   LIG    1       17.589 -29.544  15.586  0.00  0.00    +0.119 HD
ENDBRANCH  40  42
BRANCH  39  45
ATOM     45  O   LIG    1       18.942 -30.450  12.062  0.00  0.00    -0.388 OA
ATOM     46  H   LIG    1       19.614 -31.125  11.845  0.00  0.00    +0.210 HD
ENDBRANCH  39  45
ENDBRANCH  34  35
ENDBRANCH  13  34
TORSDOF 11
ENDMDL
MODEL 3
REMARK VINA RESULT:      -5.7      2.047      2.845
REMARK  Name = *****
REMARK                            x       y       z     vdW  Elec       q    Type
REMARK                         _______ _______ _______ _____ _____    ______ ____
ROOT
ATOM      1  C   LIG    1       17.791 -29.819  13.882  0.00  0.00    +0.132 A 
ATOM      2  C   LIG    1       18.994 -29.077  13.919  0.00  0.00    +0.075 A 
ATOM      3  C   LIG    1       20.260 -29.524  13.259  0.00  0.00    +0.202 C 
ATOM      4  C   LIG    1       21.525 -28.779  13.483  0.00  0.00    +0.078 A 
ATOM      5  C   LIG    1       21.506 -27.600  14.222  0.00  0.00    +0.078 A 
ATOM      6  C   LIG    1       20.230 -27.075  14.724  0.00  0.00    +0.198 C 
ATOM      7  O   LIG    1       20.211 -25.970  15.278  0.00  0.00    -0.286 OA
ATOM      8  C   LIG    1       22.698 -26.925  14.505  0.00  0.00    +0.132 A 
ATOM      9  C   LIG    1       23.933 -27.408  14.051  0.00  0.00    +0.007 A 
ATOM     10  C   LIG    1       25.185 -26.680  14.499  0.00  0.00    +0.082 C 
ATOM     11  C   LIG    1       26.464 -27.118  13.789  0.00  0.00    +0.133 C 
ATOM     12  C   LIG    1       26.460 -28.651  13.683  0.00  0.00    +0.079 C 
ATOM     13  C   LIG    1       25.323 -29.132  12.771  0.00  0.00    +0.158 C 
ATOM     14  C   LIG    1       23.982 -28.586  13.274  0.00  0.00    +0.030 A 
ATOM     15  C   LIG    1       22.768 -29.253  13.000  0.00  0.00    +0.135 A 
ATOM     16  O   LIG    1       20.312 -30.515  12.522  0.00  0.00    -0.286 OA
ATOM     17  C   LIG    1       18.995 -27.858  14.610  0.00  0.00    +0.037 A 
ATOM     18  C   LIG    1       17.846 -27.366  15.239  0.00  0.00    +0.012 A 
ATOM     19  C   LIG    1       16.670 -28.093  15.190  0.00  0.00    +0.004 A 
ATOM     20  C   LIG    1       16.644 -29.313  14.516  0.00  0.00    +0.046 A 
ENDROOT
BRANCH   1  22
ATOM     21  C   LIG    1       16.836 -31.249  12.215  0.00  0.00    +0.277 C 
ATOM     22  O   LIG    1       17.803 -31.028  13.236  0.00  0.00    -0.494 OA
ENDBRANCH   1  22
BRANCH   8  23
ATOM     23  O   LIG    1       22.727 -25.785  15.274  0.00  0.00    -0.506 OA
ATOM     24  H   LIG    1       22.582 -25.006  14.691  0.00  0.00    +0.292 HD
ENDBRANCH   8  23
BRANCH  11  25
ATOM     25  O   LIG    1       26.551 -26.480  12.512  0.00  0.00    -0.381 OA
ATOM     26  H   LIG    1       26.391 -25.518  12.633  0.00  0.00    +0.211 HD
ENDBRANCH  11  25
BRANCH  11  27
ATOM     27  C   LIG    1       27.689 -26.627  14.580  0.00  0.00    +0.190 C 
ATOM     28  O   LIG    1       28.519 -27.398  15.073  0.00  0.00    -0.292 OA
BRANCH  27  29
ATOM     29  C   LIG    1       27.827 -25.115  14.774  0.00  0.00    +0.233 C 
BRANCH  29  30
ATOM     30  O   LIG    1       28.124 -24.435  13.563  0.00  0.00    -0.387 OA
ATOM     31  H   LIG    1       27.348 -23.874  13.366  0.00  0.00    +0.210 HD
ENDBRANCH  29  30
ENDBRANCH  27  29
ENDBRANCH  11  27
BRANCH  15  32
ATOM     32  O   LIG    1       22.846 -30.413  12.265  0.00  0.00    -0.506 OA
ATOM     33  H   LIG    1       23.507 -30.286  11.546  0.00  0.00    +0.292 HD
ENDBRANCH  15  32
BRANCH  13  34
ATOM     34  O   LIG    1       25.520 -28.684  11.417  0.00  0.00    -0.343 OA
BRANCH  34  35
ATOM     35  C   LIG    1       25.569 -29.709  10.402  0.00  0.00    +0.253 C 
ATOM     36  O   LIG    1       24.277 -29.757   9.784  0.00  0.00    -0.346 OA
ATOM     37  C   LIG    1       24.149 -30.698   8.704  0.00  0.00    +0.148 C 
ATOM     38  C   LIG    1       24.872 -30.248   7.437  0.00  0.00    +0.040 C 
ATOM     39  C   LIG    1       24.499 -32.118   9.179  0.00  0.00    +0.160 C 
ATOM     40  C   LIG    1       25.829 -32.206   9.955  0.00  0.00    +0.087 C 
ATOM     41  C   LIG    1       25.934 -31.073  10.980  0.00  0.00    +0.082 C 
BRANCH  40  42
ATOM     42  N   LIG    1       27.032 -32.262   9.112  0.00  0.00    -0.325 NA
ATOM     43  H   LIG    1       27.715 -31.580   9.446  0.00  0.00    +0.119 HD
ATOM     44  H   LIG    1       27.494 -33.167   9.141  0.00  0.00    +0.119 HD
ENDBRANCH  40  42
BRANCH  39  45
ATOM     45  O   LIG    1       23.450 -32.558  10.063  0.00  0.00    -0.388 OA
ATOM     46  H   LIG    1       23.884 -32.923  10.858  0.00  0.00    +0.210 HD
ENDBRANCH  39  45
ENDBRANCH  34  35
ENDBRANCH  13  34
TORSDOF 11
ENDMDL
MODEL 4
REMARK VINA RESULT:      -5.5      2.890      7.286
REMARK  Name = *****
REMARK                            x       y       z     vdW  Elec       q    Type
REMARK                         _______ _______ _______ _____ _____    ______ ____
ROOT
ATOM      1  C   LIG    1       24.786 -33.349   6.330  0.00  0.00    +0.132 A 
ATOM      2  C   LIG    1       24.793 -32.633   7.549  0.00  0.00    +0.075 A 
ATOM      3  C   LIG    1       23.564 -32.373   8.361  0.00  0.00    +0.202 C 
ATOM      4  C   LIG    1       23.622 -31.471   9.539  0.00  0.00    +0.078 A 
ATOM      5  C   LIG    1       24.846 -30.955   9.950  0.00  0.00    +0.078 A 
ATOM      6  C   LIG    1       26.075 -31.351   9.250  0.00  0.00    +0.198 C 
ATOM      7  O   LIG    1       27.167 -30.978   9.695  0.00  0.00    -0.286 OA
ATOM      8  C   LIG    1       24.910 -30.046  11.011  0.00  0.00    +0.132 A 
ATOM      9  C   LIG    1       23.753 -29.640  11.691  0.00  0.00    +0.007 A 
ATOM     10  C   LIG    1       23.897 -28.566  12.752  0.00  0.00    +0.082 C 
ATOM     11  C   LIG    1       22.647 -28.338  13.600  0.00  0.00    +0.133 C 
ATOM     12  C   LIG    1       21.423 -28.346  12.671  0.00  0.00    +0.079 C 
ATOM     13  C   LIG    1       21.221 -29.732  12.045  0.00  0.00    +0.158 C 
ATOM     14  C   LIG    1       22.498 -30.169  11.317  0.00  0.00    +0.030 A 
ATOM     15  C   LIG    1       22.456 -31.083  10.243  0.00  0.00    +0.135 A 
ATOM     16  O   LIG    1       22.468 -32.878   8.091  0.00  0.00    -0.286 OA
ATOM     17  C   LIG    1       26.020 -32.145   8.019  0.00  0.00    +0.037 A 
ATOM     18  C   LIG    1       27.214 -32.362   7.323  0.00  0.00    +0.012 A 
ATOM     19  C   LIG    1       27.200 -33.071   6.135  0.00  0.00    +0.004 A 
ATOM     20  C   LIG    1       25.992 -33.561   5.642  0.00  0.00    +0.046 A 
ENDROOT
BRANCH   1  22
ATOM     21  C   LIG    1       23.380 -33.805   4.445  0.00  0.00    +0.277 C 
ATOM     22  O   LIG    1       23.579 -33.793   5.855  0.00  0.00    -0.494 OA
ENDBRANCH   1  22
BRANCH   8  23
ATOM     23  O   LIG    1       26.094 -29.476  11.415  0.00  0.00    -0.506 OA
ATOM     24  H   LIG    1       26.256 -28.667  10.879  0.00  0.00    +0.292 HD
ENDBRANCH   8  23
BRANCH  11  25
ATOM     25  O   LIG    1       22.568 -29.337  14.621  0.00  0.00    -0.381 OA
ATOM     26  H   LIG    1       22.007 -28.993  15.351  0.00  0.00    +0.211 HD
ENDBRANCH  11  25
BRANCH  11  27
ATOM     27  C   LIG    1       22.763 -26.997  14.343  0.00  0.00    +0.190 C 
ATOM     28  O   LIG    1       21.780 -26.377  14.760  0.00  0.00    -0.292 OA
BRANCH  27  29
ATOM     29  C   LIG    1       24.171 -26.421  14.517  0.00  0.00    +0.233 C 
BRANCH  29  30
ATOM     30  O   LIG    1       24.405 -25.293  13.687  0.00  0.00    -0.387 OA
ATOM     31  H   LIG    1       25.084 -24.756  14.140  0.00  0.00    +0.210 HD
ENDBRANCH  29  30
ENDBRANCH  27  29
ENDBRANCH  11  27
BRANCH  15  32
ATOM     32  O   LIG    1       21.218 -31.561   9.879  0.00  0.00    -0.506 OA
ATOM     33  H   LIG    1       20.543 -31.181  10.488  0.00  0.00    +0.292 HD
ENDBRANCH  15  32
BRANCH  13  34
ATOM     34  O   LIG    1       20.911 -30.716  13.049  0.00  0.00    -0.343 OA
BRANCH  34  35
ATOM     35  C   LIG    1       19.673 -31.438  12.880  0.00  0.00    +0.253 C 
ATOM     36  O   LIG    1       19.054 -30.945  11.684  0.00  0.00    -0.346 OA
ATOM     37  C   LIG    1       17.819 -31.587  11.324  0.00  0.00    +0.148 C 
ATOM     38  C   LIG    1       18.021 -33.000  10.781  0.00  0.00    +0.040 C 
ATOM     39  C   LIG    1       16.797 -31.474  12.467  0.00  0.00    +0.160 C 
ATOM     40  C   LIG    1       17.354 -31.881  13.846  0.00  0.00    +0.087 C 
ATOM     41  C   LIG    1       18.738 -31.265  14.073  0.00  0.00    +0.082 C 
BRANCH  40  42
ATOM     42  N   LIG    1       17.378 -33.329  14.099  0.00  0.00    -0.325 NA
ATOM     43  H   LIG    1       16.775 -33.547  14.893  0.00  0.00    +0.119 HD
ATOM     44  H   LIG    1       17.027 -33.872  13.316  0.00  0.00    +0.119 HD
ENDBRANCH  40  42
BRANCH  39  45
ATOM     45  O   LIG    1       16.384 -30.097  12.554  0.00  0.00    -0.388 OA
ATOM     46  H   LIG    1       15.949 -29.986  13.421  0.00  0.00    +0.210 HD
ENDBRANCH  39  45
ENDBRANCH  34  35
ENDBRANCH  13  34
TORSDOF 11
ENDMDL
MODEL 5
REMARK VINA RESULT:      -5.4      1.940      2.664
REMARK  Name = *****
REMARK                            x       y       z     vdW  Elec       q    Type
REMARK                         _______ _______ _______ _____ _____    ______ ____
ROOT
ATOM      1  C   LIG    1       17.317 -29.722  14.058  0.00  0.00    +0.132 A 
ATOM      2  C   LIG    1       18.635 -29.226  13.937  0.00  0.00    +0.075 A 
ATOM      3  C   LIG    1       19.695 -29.891  13.118  0.00  0.00    +0.202 C 
ATOM      4  C   LIG    1       21.098 -29.407  13.174  0.00  0.00    +0.078 A 
ATOM      5  C   LIG    1       21.403 -28.265  13.907  0.00  0.00    +0.078 A 
ATOM      6  C   LIG    1       20.327 -27.518  14.571  0.00  0.00    +0.198 C 
ATOM      7  O   LIG    1       20.593 -26.442  15.122  0.00  0.00    -0.286 OA
ATOM      8  C   LIG    1       22.729 -27.838  14.031  0.00  0.00    +0.132 A 
ATOM      9  C   LIG    1       23.779 -28.537  13.420  0.00  0.00    +0.007 A 
ATOM     10  C   LIG    1       25.194 -28.073  13.700  0.00  0.00    +0.082 C 
ATOM     11  C   LIG    1       26.263 -28.731  12.829  0.00  0.00    +0.133 C 
ATOM     12  C   LIG    1       25.949 -30.232  12.727  0.00  0.00    +0.079 C 
ATOM     13  C   LIG    1       24.634 -30.464  11.972  0.00  0.00    +0.158 C 
ATOM     14  C   LIG    1       23.499 -29.684  12.644  0.00  0.00    +0.030 A 
ATOM     15  C   LIG    1       22.154 -30.099  12.532  0.00  0.00    +0.135 A 
ATOM     16  O   LIG    1       19.461 -30.855  12.381  0.00  0.00    -0.286 OA
ATOM     17  C   LIG    1       18.960 -28.046  14.620  0.00  0.00    +0.037 A 
ATOM     18  C   LIG    1       18.018 -27.359  15.393  0.00  0.00    +0.012 A 
ATOM     19  C   LIG    1       16.727 -27.846  15.500  0.00  0.00    +0.004 A 
ATOM     20  C   LIG    1       16.380 -29.022  14.836  0.00  0.00    +0.046 A 
ENDROOT
BRANCH   1  22
ATOM     21  C   LIG    1       15.798 -30.956  12.676  0.00  0.00    +0.277 C 
ATOM     22  O   LIG    1       17.012 -30.896  13.418  0.00  0.00    -0.494 OA
ENDBRANCH   1  22
BRANCH   8  23
ATOM     23  O   LIG    1       23.076 -26.743  14.788  0.00  0.00    -0.506 OA
ATOM     24  H   LIG    1       24.029 -26.548  14.646  0.00  0.00    +0.292 HD
ENDBRANCH   8  23
BRANCH  11  25
ATOM     25  O   LIG    1       26.307 -28.091  11.551  0.00  0.00    -0.381 OA
ATOM     26  H   LIG    1       25.932 -27.187  11.642  0.00  0.00    +0.211 HD
ENDBRANCH  11  25
BRANCH  11  27
ATOM     27  C   LIG    1       27.651 -28.503  13.452  0.00  0.00    +0.190 C 
ATOM     28  O   LIG    1       27.881 -27.593  14.256  0.00  0.00    -0.292 OA
BRANCH  27  29
ATOM     29  C   LIG    1       28.775 -29.439  13.002  0.00  0.00    +0.233 C 
BRANCH  29  30
ATOM     30  O   LIG    1       29.163 -29.215  11.654  0.00  0.00    -0.387 OA
ATOM     31  H   LIG    1       30.012 -28.733  11.691  0.00  0.00    +0.210 HD
ENDBRANCH  29  30
ENDBRANCH  27  29
ENDBRANCH  11  27
BRANCH  15  32
ATOM     32  O   LIG    1       21.912 -31.235  11.796  0.00  0.00    -0.506 OA
ATOM     33  H   LIG    1       21.746 -30.973  10.861  0.00  0.00    +0.292 HD
ENDBRANCH  15  32
BRANCH  13  34
ATOM     34  O   LIG    1       24.737 -30.030  10.603  0.00  0.00    -0.343 OA
BRANCH  34  35
ATOM     35  C   LIG    1       24.976 -31.058   9.619  0.00  0.00    +0.253 C 
ATOM     36  O   LIG    1       26.318 -30.887   9.143  0.00  0.00    -0.346 OA
ATOM     37  C   LIG    1       26.756 -31.861   8.181  0.00  0.00    +0.148 C 
ATOM     38  C   LIG    1       27.022 -33.230   8.801  0.00  0.00    +0.040 C 
ATOM     39  C   LIG    1       25.819 -31.875   6.961  0.00  0.00    +0.160 C 
ATOM     40  C   LIG    1       24.322 -31.957   7.324  0.00  0.00    +0.087 C 
ATOM     41  C   LIG    1       23.987 -30.986   8.460  0.00  0.00    +0.082 C 
BRANCH  40  42
ATOM     42  N   LIG    1       23.836 -33.310   7.631  0.00  0.00    -0.325 NA
ATOM     43  H   LIG    1       23.562 -33.359   8.614  0.00  0.00    +0.119 HD
ATOM     44  H   LIG    1       23.014 -33.567   7.092  0.00  0.00    +0.119 HD
ENDBRANCH  40  42
BRANCH  39  45
ATOM     45  O   LIG    1       26.024 -30.649   6.234  0.00  0.00    -0.388 OA
ATOM     46  H   LIG    1       26.126 -29.940   6.898  0.00  0.00    +0.210 HD
ENDBRANCH  39  45
ENDBRANCH  34  35
ENDBRANCH  13  34
TORSDOF 11
ENDMDL
MODEL 6
REMARK VINA RESULT:      -4.7      2.767      3.745
REMARK  Name = *****
REMARK                            x       y       z     vdW  Elec       q    Type
REMARK                         _______ _______ _______ _____ _____    ______ ____
ROOT
ATOM      1  C   LIG    1       18.480 -28.919  14.311  0.00  0.00    +0.132 A 
ATOM      2  C   LIG    1       19.845 -28.729  13.997  0.00  0.00    +0.075 A 
ATOM      3  C   LIG    1       20.842 -29.842  13.940  0.00  0.00    +0.202 C 
ATOM      4  C   LIG    1       22.288 -29.546  13.772  0.00  0.00    +0.078 A 
ATOM      5  C   LIG    1       22.700 -28.235  13.557  0.00  0.00    +0.078 A 
ATOM      6  C   LIG    1       21.698 -27.166  13.443  0.00  0.00    +0.198 C 
ATOM      7  O   LIG    1       22.068 -26.026  13.138  0.00  0.00    -0.286 OA
ATOM      8  C   LIG    1       24.061 -27.927  13.471  0.00  0.00    +0.132 A 
ATOM      9  C   LIG    1       25.041 -28.923  13.587  0.00  0.00    +0.007 A 
ATOM     10  C   LIG    1       26.493 -28.489  13.597  0.00  0.00    +0.082 C 
ATOM     11  C   LIG    1       27.500 -29.633  13.499  0.00  0.00    +0.133 C 
ATOM     12  C   LIG    1       27.030 -30.773  14.416  0.00  0.00    +0.079 C 
ATOM     13  C   LIG    1       25.710 -31.371  13.911  0.00  0.00    +0.158 C 
ATOM     14  C   LIG    1       24.653 -30.268  13.776  0.00  0.00    +0.030 A 
ATOM     15  C   LIG    1       23.275 -30.557  13.862  0.00  0.00    +0.135 A 
ATOM     16  O   LIG    1       20.518 -31.031  14.037  0.00  0.00    -0.286 OA
ATOM     17  C   LIG    1       20.283 -27.426  13.722  0.00  0.00    +0.037 A 
ATOM     18  C   LIG    1       19.407 -26.335  13.741  0.00  0.00    +0.012 A 
ATOM     19  C   LIG    1       18.070 -26.531  14.040  0.00  0.00    +0.004 A 
ATOM     20  C   LIG    1       17.610 -27.816  14.324  0.00  0.00    +0.046 A 
ENDROOT
BRANCH   1  22
ATOM     21  C   LIG    1       16.943 -30.711  13.907  0.00  0.00    +0.277 C 
ATOM     22  O   LIG    1       18.063 -30.189  14.615  0.00  0.00    -0.494 OA
ENDBRANCH   1  22
BRANCH   8  23
ATOM     23  O   LIG    1       24.510 -26.637  13.309  0.00  0.00    -0.506 OA
ATOM     24  H   LIG    1       25.304 -26.648  12.728  0.00  0.00    +0.292 HD
ENDBRANCH   8  23
BRANCH  11  25
ATOM     25  O   LIG    1       27.632 -30.044  12.135  0.00  0.00    -0.381 OA
ATOM     26  H   LIG    1       27.229 -29.356  11.561  0.00  0.00    +0.211 HD
ENDBRANCH  11  25
BRANCH  11  27
ATOM     27  C   LIG    1       28.893 -29.133  13.916  0.00  0.00    +0.190 C 
ATOM     28  O   LIG    1       29.060 -28.244  14.757  0.00  0.00    -0.292 OA
BRANCH  27  29
ATOM     29  C   LIG    1       30.096 -29.762  13.206  0.00  0.00    +0.233 C 
BRANCH  29  30
ATOM     30  O   LIG    1       30.237 -29.308  11.868  0.00  0.00    -0.387 OA
ATOM     31  H   LIG    1       30.066 -30.083  11.297  0.00  0.00    +0.210 HD
ENDBRANCH  29  30
ENDBRANCH  27  29
ENDBRANCH  11  27
BRANCH  15  32
ATOM     32  O   LIG    1       22.925 -31.870  14.075  0.00  0.00    -0.506 OA
ATOM     33  H   LIG    1       22.085 -31.892  14.589  0.00  0.00    +0.292 HD
ENDBRANCH  15  32
BRANCH  13  34
ATOM     34  O   LIG    1       25.881 -31.997  12.626  0.00  0.00    -0.343 OA
BRANCH  34  35
ATOM     35  C   LIG    1       24.746 -31.958  11.736  0.00  0.00    +0.253 C 
ATOM     36  O   LIG    1       24.297 -33.309  11.561  0.00  0.00    -0.346 OA
ATOM     37  C   LIG    1       23.132 -33.465  10.735  0.00  0.00    +0.148 C 
ATOM     38  C   LIG    1       21.850 -33.001  11.422  0.00  0.00    +0.040 C 
ATOM     39  C   LIG    1       23.372 -32.862   9.340  0.00  0.00    +0.160 C 
ATOM     40  C   LIG    1       23.953 -31.433   9.370  0.00  0.00    +0.087 C 
ATOM     41  C   LIG    1       25.093 -31.334  10.388  0.00  0.00    +0.082 C 
BRANCH  40  42
ATOM     42  N   LIG    1       22.962 -30.369   9.587  0.00  0.00    -0.325 NA
ATOM     43  H   LIG    1       22.053 -30.787   9.794  0.00  0.00    +0.119 HD
ATOM     44  H   LIG    1       23.189 -29.773  10.378  0.00  0.00    +0.119 HD
ENDBRANCH  40  42
BRANCH  39  45
ATOM     45  O   LIG    1       24.319 -33.702   8.654  0.00  0.00    -0.388 OA
ATOM     46  H   LIG    1       23.833 -34.498   8.364  0.00  0.00    +0.210 HD
ENDBRANCH  39  45
ENDBRANCH  34  35
ENDBRANCH  13  34
TORSDOF 11
ENDMDL
