MODEL 1
REMARK VINA RESULT:     -10.2      0.000      0.000
REMARK  Name = *****
REMARK                            x       y       z     vdW  Elec       q    Type
REMARK                         _______ _______ _______ _____ _____    ______ ____
ROOT
ATOM      1  C   LIG    1       30.481 -20.198   7.816  0.00  0.00    +0.111 C 
ENDROOT
BRANCH   1   3
ATOM      2  O   LIG    1       32.251 -20.862   9.340  0.00  0.00    -0.251 OA
ATOM      3  C   LIG    1       31.099 -20.973   8.979  0.00  0.00    +0.309 C 
BRANCH   3   4
ATOM      4  O   LIG    1       30.285 -21.887   9.545  0.00  0.00    -0.480 OA
ATOM      5  H   LIG    1       29.644 -21.518  10.197  0.00  0.00    +0.295 HD
ENDBRANCH   3   4
ENDBRANCH   1   3
BRANCH   1   6
ATOM      6  C   LIG    1       29.700 -18.991   8.424  0.00  0.00    +0.050 C 
BRANCH   6   7
ATOM      7  C   LIG    1       30.533 -18.014   9.226  0.00  0.00    -0.047 A 
ATOM      8  C   LIG    1       30.154 -17.652  10.525  0.00  0.00    +0.003 A 
ATOM      9  C   LIG    1       30.949 -16.791  11.282  0.00  0.00    +0.000 A 
ATOM     10  C   LIG    1       32.120 -16.263  10.742  0.00  0.00    +0.000 A 
ATOM     11  C   LIG    1       32.490 -16.585   9.438  0.00  0.00    +0.000 A 
ATOM     12  C   LIG    1       31.699 -17.454   8.681  0.00  0.00    +0.003 A 
ENDBRANCH   6   7
ENDBRANCH   1   6
BRANCH   1  13
ATOM     13  C   LIG    1       29.597 -21.053   6.890  0.00  0.00    +0.110 C 
BRANCH  13  14
ATOM     14  C   LIG    1       28.309 -20.377   6.422  0.00  0.00    +0.216 C 
ATOM     15  N   LIG    1       27.125 -20.880   6.886  0.00  0.00    -0.301 N 
ATOM     16  C   LIG    1       25.839 -20.335   6.466  0.00  0.00    +0.111 C 
ATOM     17  C   LIG    1       24.871 -20.817   7.541  0.00  0.00    +0.011 C 
ATOM     18  C   LIG    1       25.476 -22.162   7.980  0.00  0.00    +0.011 C 
ATOM     19  C   LIG    1       25.089 -23.339   7.079  0.00  0.00    +0.005 C 
ATOM     20  C   LIG    1       23.586 -23.394   6.850  0.00  0.00    +0.000 C 
ATOM     21  C   LIG    1       23.092 -22.095   6.224  0.00  0.00    +0.000 C 
ATOM     22  C   LIG    1       23.410 -20.894   7.109  0.00  0.00    +0.005 C 
ATOM     23  C   LIG    1       26.975 -21.899   7.908  0.00  0.00    +0.111 C 
ATOM     24  O   LIG    1       28.318 -19.424   5.644  0.00  0.00    -0.276 OA
ENDBRANCH  13  14
ENDBRANCH   1  13
TORSDOF 6
ENDMDL
MODEL 2
REMARK VINA RESULT:      -9.7      1.806      2.820
REMARK  Name = *****
REMARK                            x       y       z     vdW  Elec       q    Type
REMARK                         _______ _______ _______ _____ _____    ______ ____
ROOT
ATOM      1  C   LIG    1       29.141 -19.528   7.577  0.00  0.00    +0.111 C 
ENDROOT
BRANCH   1   3
ATOM      2  O   LIG    1       30.656 -18.715   5.862  0.00  0.00    -0.251 OA
ATOM      3  C   LIG    1       29.531 -19.033   6.185  0.00  0.00    +0.309 C 
BRANCH   3   4
ATOM      4  O   LIG    1       28.500 -18.875   5.331  0.00  0.00    -0.480 OA
ATOM      5  H   LIG    1       27.799 -18.257   5.643  0.00  0.00    +0.295 HD
ENDBRANCH   3   4
ENDBRANCH   1   3
BRANCH   1   6
ATOM      6  C   LIG    1       30.458 -19.681   8.402  0.00  0.00    +0.050 C 
BRANCH   6   7
ATOM      7  C   LIG    1       30.891 -18.450   9.169  0.00  0.00    -0.047 A 
ATOM      8  C   LIG    1       30.146 -17.992  10.263  0.00  0.00    +0.003 A 
ATOM      9  C   LIG    1       30.573 -16.887  11.001  0.00  0.00    +0.000 A 
ATOM     10  C   LIG    1       31.739 -16.214  10.642  0.00  0.00    +0.000 A 
ATOM     11  C   LIG    1       32.471 -16.636   9.533  0.00  0.00    +0.000 A 
ATOM     12  C   LIG    1       32.048 -17.747   8.798  0.00  0.00    +0.003 A 
ENDBRANCH   6   7
ENDBRANCH   1   6
BRANCH   1  13
ATOM     13  C   LIG    1       28.307 -20.822   7.573  0.00  0.00    +0.110 C 
BRANCH  13  14
ATOM     14  C   LIG    1       26.830 -20.639   7.919  0.00  0.00    +0.216 C 
ATOM     15  N   LIG    1       25.927 -20.698   6.893  0.00  0.00    -0.301 N 
ATOM     16  C   LIG    1       24.500 -20.492   7.111  0.00  0.00    +0.111 C 
ATOM     17  C   LIG    1       23.851 -21.110   5.877  0.00  0.00    +0.011 C 
ATOM     18  C   LIG    1       24.904 -20.884   4.777  0.00  0.00    +0.011 C 
ATOM     19  C   LIG    1       24.842 -19.495   4.136  0.00  0.00    +0.005 C 
ATOM     20  C   LIG    1       23.426 -19.144   3.703  0.00  0.00    +0.000 C 
ATOM     21  C   LIG    1       22.475 -19.193   4.893  0.00  0.00    +0.000 C 
ATOM     22  C   LIG    1       22.462 -20.576   5.539  0.00  0.00    +0.005 C 
ATOM     23  C   LIG    1       26.219 -21.076   5.524  0.00  0.00    +0.111 C 
ATOM     24  O   LIG    1       26.451 -20.429   9.070  0.00  0.00    -0.276 OA
ENDBRANCH  13  14
ENDBRANCH   1  13
TORSDOF 6
ENDMDL
MODEL 3
REMARK VINA RESULT:      -9.6      2.950      7.468
REMARK  Name = *****
REMARK                            x       y       z     vdW  Elec       q    Type
REMARK                         _______ _______ _______ _____ _____    ______ ____
ROOT
ATOM      1  C   LIG    1       24.292 -22.742   6.833  0.00  0.00    +0.111 C 
ENDROOT
BRANCH   1   3
ATOM      2  O   LIG    1       24.207 -25.150   6.526  0.00  0.00    -0.251 OA
ATOM      3  C   LIG    1       23.615 -24.106   6.699  0.00  0.00    +0.309 C 
BRANCH   3   4
ATOM      4  O   LIG    1       22.267 -24.071   6.693  0.00  0.00    -0.480 OA
ATOM      5  H   LIG    1       21.880 -23.275   6.258  0.00  0.00    +0.295 HD
ENDBRANCH   3   4
ENDBRANCH   1   3
BRANCH   1   6
ATOM      6  C   LIG    1       24.692 -22.280   5.396  0.00  0.00    +0.050 C 
BRANCH   6   7
ATOM      7  C   LIG    1       24.105 -20.958   4.951  0.00  0.00    -0.047 A 
ATOM      8  C   LIG    1       24.735 -20.196   3.959  0.00  0.00    +0.003 A 
ATOM      9  C   LIG    1       24.167 -19.002   3.513  0.00  0.00    +0.000 A 
ATOM     10  C   LIG    1       22.974 -18.544   4.067  0.00  0.00    +0.000 A 
ATOM     11  C   LIG    1       22.355 -19.274   5.081  0.00  0.00    +0.000 A 
ATOM     12  C   LIG    1       22.919 -20.474   5.523  0.00  0.00    +0.003 A 
ENDBRANCH   6   7
ENDBRANCH   1   6
BRANCH   1  13
ATOM     13  C   LIG    1       25.490 -22.727   7.801  0.00  0.00    +0.110 C 
BRANCH  13  14
ATOM     14  C   LIG    1       25.949 -21.336   8.236  0.00  0.00    +0.216 C 
ATOM     15  N   LIG    1       27.242 -20.983   7.968  0.00  0.00    -0.301 N 
ATOM     16  C   LIG    1       27.791 -19.697   8.381  0.00  0.00    +0.111 C 
ATOM     17  C   LIG    1       29.019 -19.523   7.492  0.00  0.00    +0.011 C 
ATOM     18  C   LIG    1       29.492 -20.970   7.262  0.00  0.00    +0.011 C 
ATOM     19  C   LIG    1       30.366 -21.522   8.392  0.00  0.00    +0.005 C 
ATOM     20  C   LIG    1       31.493 -20.563   8.745  0.00  0.00    +0.000 C 
ATOM     21  C   LIG    1       30.932 -19.207   9.158  0.00  0.00    +0.000 C 
ATOM     22  C   LIG    1       30.091 -18.589   8.044  0.00  0.00    +0.005 C 
ATOM     23  C   LIG    1       28.182 -21.743   7.166  0.00  0.00    +0.111 C 
ATOM     24  O   LIG    1       25.200 -20.556   8.823  0.00  0.00    -0.276 OA
ENDBRANCH  13  14
ENDBRANCH   1  13
TORSDOF 6
ENDMDL
MODEL 4
REMARK VINA RESULT:      -9.4      2.157      7.323
REMARK  Name = *****
REMARK                            x       y       z     vdW  Elec       q    Type
REMARK                         _______ _______ _______ _____ _____    ______ ____
ROOT
ATOM      1  C   LIG    1       26.540 -20.688   7.149  0.00  0.00    +0.111 C 
ENDROOT
BRANCH   1   3
ATOM      2  O   LIG    1       26.001 -20.309   9.486  0.00  0.00    -0.251 OA
ATOM      3  C   LIG    1       26.143 -21.089   8.569  0.00  0.00    +0.309 C 
BRANCH   3   4
ATOM      4  O   LIG    1       26.044 -22.418   8.775  0.00  0.00    -0.480 OA
ATOM      5  H   LIG    1       26.875 -22.922   8.609  0.00  0.00    +0.295 HD
ENDBRANCH   3   4
ENDBRANCH   1   3
BRANCH   1   6
ATOM      6  C   LIG    1       25.570 -21.421   6.170  0.00  0.00    +0.050 C 
BRANCH   6   7
ATOM      7  C   LIG    1       24.605 -20.529   5.420  0.00  0.00    -0.047 A 
ATOM      8  C   LIG    1       23.296 -20.346   5.883  0.00  0.00    +0.003 A 
ATOM      9  C   LIG    1       22.422 -19.484   5.219  0.00  0.00    +0.000 A 
ATOM     10  C   LIG    1       22.839 -18.810   4.074  0.00  0.00    +0.000 A 
ATOM     11  C   LIG    1       24.127 -19.010   3.581  0.00  0.00    +0.000 A 
ATOM     12  C   LIG    1       25.006 -19.867   4.249  0.00  0.00    +0.003 A 
ENDBRANCH   6   7
ENDBRANCH   1   6
BRANCH   1  13
ATOM     13  C   LIG    1       28.018 -20.957   6.810  0.00  0.00    +0.110 C 
BRANCH  13  14
ATOM     14  C   LIG    1       28.857 -19.708   6.547  0.00  0.00    +0.216 C 
ATOM     15  N   LIG    1       29.720 -19.307   7.529  0.00  0.00    -0.301 N 
ATOM     16  C   LIG    1       30.533 -18.103   7.395  0.00  0.00    +0.111 C 
ATOM     17  C   LIG    1       31.646 -18.300   8.421  0.00  0.00    +0.011 C 
ATOM     18  C   LIG    1       30.961 -19.124   9.526  0.00  0.00    +0.011 C 
ATOM     19  C   LIG    1       30.164 -18.279  10.525  0.00  0.00    +0.005 C 
ATOM     20  C   LIG    1       30.991 -17.118  11.056  0.00  0.00    +0.000 C 
ATOM     21  C   LIG    1       31.466 -16.231   9.911  0.00  0.00    +0.000 C 
ATOM     22  C   LIG    1       32.309 -17.017   8.911  0.00  0.00    +0.005 C 
ATOM     23  C   LIG    1       30.035 -20.043   8.738  0.00  0.00    +0.111 C 
ATOM     24  O   LIG    1       28.761 -19.064   5.503  0.00  0.00    -0.276 OA
ENDBRANCH  13  14
ENDBRANCH   1  13
TORSDOF 6
ENDMDL
MODEL 5
REMARK VINA RESULT:      -9.4      1.524      2.138
REMARK  Name = *****
REMARK                            x       y       z     vdW  Elec       q    Type
REMARK                         _______ _______ _______ _____ _____    ______ ____
ROOT
ATOM      1  C   LIG    1       30.110 -19.531   7.815  0.00  0.00    +0.111 C 
ENDROOT
BRANCH   1   3
ATOM      2  O   LIG    1       31.962 -20.576   8.988  0.00  0.00    -0.251 OA
ATOM      3  C   LIG    1       30.798 -20.610   8.651  0.00  0.00    +0.309 C 
BRANCH   3   4
ATOM      4  O   LIG    1       30.033 -21.687   8.925  0.00  0.00    -0.480 OA
ATOM      5  H   LIG    1       29.171 -21.710   8.447  0.00  0.00    +0.295 HD
ENDBRANCH   3   4
ENDBRANCH   1   3
BRANCH   1   6
ATOM      6  C   LIG    1       29.514 -18.484   8.809  0.00  0.00    +0.050 C 
BRANCH   6   7
ATOM      7  C   LIG    1       30.529 -17.656   9.567  0.00  0.00    -0.047 A 
ATOM      8  C   LIG    1       30.375 -17.419  10.938  0.00  0.00    +0.003 A 
ATOM      9  C   LIG    1       31.337 -16.697  11.647  0.00  0.00    +0.000 A 
ATOM     10  C   LIG    1       32.454 -16.186  10.990  0.00  0.00    +0.000 A 
ATOM     11  C   LIG    1       32.602 -16.383   9.618  0.00  0.00    +0.000 A 
ATOM     12  C   LIG    1       31.643 -17.112   8.908  0.00  0.00    +0.003 A 
ENDBRANCH   6   7
ENDBRANCH   1   6
BRANCH   1  13
ATOM     13  C   LIG    1       29.049 -20.073   6.839  0.00  0.00    +0.110 C 
BRANCH  13  14
ATOM     14  C   LIG    1       27.654 -20.251   7.437  0.00  0.00    +0.216 C 
ATOM     15  N   LIG    1       26.608 -20.405   6.569  0.00  0.00    -0.301 N 
ATOM     16  C   LIG    1       25.233 -20.538   7.037  0.00  0.00    +0.111 C 
ATOM     17  C   LIG    1       24.504 -21.161   5.849  0.00  0.00    +0.011 C 
ATOM     18  C   LIG    1       25.272 -20.605   4.637  0.00  0.00    +0.011 C 
ATOM     19  C   LIG    1       24.819 -19.207   4.205  0.00  0.00    +0.005 C 
ATOM     20  C   LIG    1       23.307 -19.134   4.053  0.00  0.00    +0.000 C 
ATOM     21  C   LIG    1       22.619 -19.504   5.362  0.00  0.00    +0.000 C 
ATOM     22  C   LIG    1       23.000 -20.912   5.811  0.00  0.00    +0.005 C 
ATOM     23  C   LIG    1       26.713 -20.576   5.133  0.00  0.00    +0.111 C 
ATOM     24  O   LIG    1       27.459 -20.241   8.652  0.00  0.00    -0.276 OA
ENDBRANCH  13  14
ENDBRANCH   1  13
TORSDOF 6
ENDMDL
MODEL 6
REMARK VINA RESULT:      -8.7      2.706      8.059
REMARK  Name = *****
REMARK                            x       y       z     vdW  Elec       q    Type
REMARK                         _______ _______ _______ _____ _____    ______ ____
ROOT
ATOM      1  C   LIG    1       23.905 -21.697   5.940  0.00  0.00    +0.111 C 
ENDROOT
BRANCH   1   3
ATOM      2  O   LIG    1       22.485 -19.778   5.494  0.00  0.00    -0.251 OA
ATOM      3  C   LIG    1       22.654 -20.977   5.437  0.00  0.00    +0.309 C 
BRANCH   3   4
ATOM      4  O   LIG    1       21.673 -21.790   4.994  0.00  0.00    -0.480 OA
ATOM      5  H   LIG    1       21.401 -22.490   5.632  0.00  0.00    +0.295 HD
ENDBRANCH   3   4
ENDBRANCH   1   3
BRANCH   1   6
ATOM      6  C   LIG    1       23.429 -22.930   6.770  0.00  0.00    +0.050 C 
BRANCH   6   7
ATOM      7  C   LIG    1       24.215 -24.205   6.550  0.00  0.00    -0.047 A 
ATOM      8  C   LIG    1       25.597 -24.237   6.772  0.00  0.00    +0.003 A 
ATOM      9  C   LIG    1       26.314 -25.425   6.618  0.00  0.00    +0.000 A 
ATOM     10  C   LIG    1       25.662 -26.589   6.220  0.00  0.00    +0.000 A 
ATOM     11  C   LIG    1       24.292 -26.564   5.960  0.00  0.00    +0.000 A 
ATOM     12  C   LIG    1       23.572 -25.377   6.121  0.00  0.00    +0.003 A 
ENDBRANCH   6   7
ENDBRANCH   1   6
BRANCH   1  13
ATOM     13  C   LIG    1       24.869 -20.799   6.737  0.00  0.00    +0.110 C 
BRANCH  13  14
ATOM     14  C   LIG    1       26.062 -20.269   5.944  0.00  0.00    +0.216 C 
ATOM     15  N   LIG    1       27.277 -20.238   6.570  0.00  0.00    -0.301 N 
ATOM     16  C   LIG    1       28.468 -19.709   5.916  0.00  0.00    +0.111 C 
ATOM     17  C   LIG    1       29.620 -20.298   6.725  0.00  0.00    +0.011 C 
ATOM     18  C   LIG    1       29.027 -20.419   8.140  0.00  0.00    +0.011 C 
ATOM     19  C   LIG    1       29.095 -19.122   8.953  0.00  0.00    +0.005 C 
ATOM     20  C   LIG    1       30.493 -18.522   8.928  0.00  0.00    +0.000 C 
ATOM     21  C   LIG    1       30.930 -18.243   7.495  0.00  0.00    +0.000 C 
ATOM     22  C   LIG    1       30.927 -19.516   6.653  0.00  0.00    +0.005 C 
ATOM     23  C   LIG    1       27.579 -20.809   7.869  0.00  0.00    +0.111 C 
ATOM     24  O   LIG    1       25.948 -19.864   4.787  0.00  0.00    -0.276 OA
ENDBRANCH  13  14
ENDBRANCH   1  13
TORSDOF 6
ENDMDL
MODEL 7
REMARK VINA RESULT:      -8.4      5.650      9.232
REMARK  Name = *****
REMARK                            x       y       z     vdW  Elec       q    Type
REMARK                         _______ _______ _______ _____ _____    ______ ____
ROOT
ATOM      1  C   LIG    1       24.968 -28.275   6.396  0.00  0.00    +0.111 C 
ENDROOT
BRANCH   1   3
ATOM      2  O   LIG    1       25.283 -30.212   4.965  0.00  0.00    -0.251 OA
ATOM      3  C   LIG    1       24.524 -29.458   5.536  0.00  0.00    +0.309 C 
BRANCH   3   4
ATOM      4  O   LIG    1       23.190 -29.565   5.367  0.00  0.00    -0.480 OA
ATOM      5  H   LIG    1       22.894 -29.555   4.427  0.00  0.00    +0.295 HD
ENDBRANCH   3   4
ENDBRANCH   1   3
BRANCH   1   6
ATOM      6  C   LIG    1       24.553 -28.590   7.868  0.00  0.00    +0.050 C 
BRANCH   6   7
ATOM      7  C   LIG    1       25.636 -29.198   8.733  0.00  0.00    -0.047 A 
ATOM      8  C   LIG    1       26.400 -28.394   9.589  0.00  0.00    +0.003 A 
ATOM      9  C   LIG    1       27.364 -28.961  10.424  0.00  0.00    +0.000 A 
ATOM     10  C   LIG    1       27.591 -30.335  10.398  0.00  0.00    +0.000 A 
ATOM     11  C   LIG    1       26.864 -31.143   9.525  0.00  0.00    +0.000 A 
ATOM     12  C   LIG    1       25.893 -30.577   8.694  0.00  0.00    +0.003 A 
ENDBRANCH   6   7
ENDBRANCH   1   6
BRANCH   1  13
ATOM     13  C   LIG    1       24.428 -26.914   5.920  0.00  0.00    +0.110 C 
BRANCH  13  14
ATOM     14  C   LIG    1       25.389 -25.740   6.101  0.00  0.00    +0.216 C 
ATOM     15  N   LIG    1       24.852 -24.528   6.436  0.00  0.00    -0.301 N 
ATOM     16  C   LIG    1       25.678 -23.335   6.588  0.00  0.00    +0.111 C 
ATOM     17  C   LIG    1       24.805 -22.391   7.410  0.00  0.00    +0.011 C 
ATOM     18  C   LIG    1       23.377 -22.770   6.979  0.00  0.00    +0.011 C 
ATOM     19  C   LIG    1       22.922 -22.092   5.683  0.00  0.00    +0.005 C 
ATOM     20  C   LIG    1       23.167 -20.591   5.724  0.00  0.00    +0.000 C 
ATOM     21  C   LIG    1       24.645 -20.296   5.955  0.00  0.00    +0.000 C 
ATOM     22  C   LIG    1       25.137 -20.910   7.262  0.00  0.00    +0.005 C 
ATOM     23  C   LIG    1       23.468 -24.280   6.794  0.00  0.00    +0.111 C 
ATOM     24  O   LIG    1       26.603 -25.859   5.937  0.00  0.00    -0.276 OA
ENDBRANCH  13  14
ENDBRANCH   1  13
TORSDOF 6
ENDMDL
MODEL 8
REMARK VINA RESULT:      -8.3      3.797      6.186
REMARK  Name = *****
REMARK                            x       y       z     vdW  Elec       q    Type
REMARK                         _______ _______ _______ _____ _____    ______ ____
ROOT
ATOM      1  C   LIG    1       24.080 -20.210   5.279  0.00  0.00    +0.111 C 
ENDROOT
BRANCH   1   3
ATOM      2  O   LIG    1       24.008 -18.582   3.477  0.00  0.00    -0.251 OA
ATOM      3  C   LIG    1       23.420 -19.203   4.337  0.00  0.00    +0.309 C 
BRANCH   3   4
ATOM      4  O   LIG    1       22.115 -18.968   4.585  0.00  0.00    -0.480 OA
ATOM      5  H   LIG    1       21.842 -18.026   4.487  0.00  0.00    +0.295 HD
ENDBRANCH   3   4
ENDBRANCH   1   3
BRANCH   1   6
ATOM      6  C   LIG    1       25.520 -20.476   4.738  0.00  0.00    +0.050 C 
BRANCH   6   7
ATOM      7  C   LIG    1       26.643 -20.204   5.716  0.00  0.00    -0.047 A 
ATOM      8  C   LIG    1       26.510 -20.546   7.067  0.00  0.00    +0.003 A 
ATOM      9  C   LIG    1       27.565 -20.342   7.959  0.00  0.00    +0.000 A 
ATOM     10  C   LIG    1       28.756 -19.772   7.515  0.00  0.00    +0.000 A 
ATOM     11  C   LIG    1       28.889 -19.392   6.181  0.00  0.00    +0.000 A 
ATOM     12  C   LIG    1       27.837 -19.604   5.285  0.00  0.00    +0.003 A 
ENDBRANCH   6   7
ENDBRANCH   1   6
BRANCH   1  13
ATOM     13  C   LIG    1       23.281 -21.513   5.466  0.00  0.00    +0.110 C 
BRANCH  13  14
ATOM     14  C   LIG    1       23.770 -22.411   6.602  0.00  0.00    +0.216 C 
ATOM     15  N   LIG    1       24.404 -23.574   6.262  0.00  0.00    -0.301 N 
ATOM     16  C   LIG    1       24.868 -24.520   7.270  0.00  0.00    +0.111 C 
ATOM     17  C   LIG    1       25.900 -25.365   6.527  0.00  0.00    +0.011 C 
ATOM     18  C   LIG    1       25.372 -25.370   5.081  0.00  0.00    +0.011 C 
ATOM     19  C   LIG    1       24.294 -26.426   4.820  0.00  0.00    +0.005 C 
ATOM     20  C   LIG    1       24.726 -27.798   5.315  0.00  0.00    +0.000 C 
ATOM     21  C   LIG    1       25.038 -27.755   6.806  0.00  0.00    +0.000 C 
ATOM     22  C   LIG    1       26.146 -26.751   7.114  0.00  0.00    +0.005 C 
ATOM     23  C   LIG    1       24.802 -23.966   4.924  0.00  0.00    +0.111 C 
ATOM     24  O   LIG    1       23.592 -22.122   7.785  0.00  0.00    -0.276 OA
ENDBRANCH  13  14
ENDBRANCH   1  13
TORSDOF 6
ENDMDL
MODEL 9
REMARK VINA RESULT:      -8.2      2.858      8.308
REMARK  Name = *****
REMARK                            x       y       z     vdW  Elec       q    Type
REMARK                         _______ _______ _______ _____ _____    ______ ____
ROOT
ATOM      1  C   LIG    1       25.090 -23.268   6.484  0.00  0.00    +0.111 C 
ENDROOT
BRANCH   1   3
ATOM      2  O   LIG    1       23.320 -21.719   5.878  0.00  0.00    -0.251 OA
ATOM      3  C   LIG    1       24.458 -22.106   5.718  0.00  0.00    +0.309 C 
BRANCH   3   4
ATOM      4  O   LIG    1       25.236 -21.575   4.753  0.00  0.00    -0.480 OA
ATOM      5  H   LIG    1       26.099 -21.221   5.071  0.00  0.00    +0.295 HD
ENDBRANCH   3   4
ENDBRANCH   1   3
BRANCH   1   6
ATOM      6  C   LIG    1       24.064 -24.444   6.474  0.00  0.00    +0.050 C 
BRANCH   6   7
ATOM      7  C   LIG    1       24.607 -25.778   6.008  0.00  0.00    -0.047 A 
ATOM      8  C   LIG    1       24.156 -26.972   6.584  0.00  0.00    +0.003 A 
ATOM      9  C   LIG    1       24.620 -28.203   6.119  0.00  0.00    +0.000 A 
ATOM     10  C   LIG    1       25.555 -28.256   5.088  0.00  0.00    +0.000 A 
ATOM     11  C   LIG    1       26.041 -27.074   4.531  0.00  0.00    +0.000 A 
ATOM     12  C   LIG    1       25.572 -25.840   4.990  0.00  0.00    +0.003 A 
ENDBRANCH   6   7
ENDBRANCH   1   6
BRANCH   1  13
ATOM     13  C   LIG    1       25.543 -22.907   7.911  0.00  0.00    +0.110 C 
BRANCH  13  14
ATOM     14  C   LIG    1       25.924 -21.442   8.116  0.00  0.00    +0.216 C 
ATOM     15  N   LIG    1       27.217 -21.081   7.857  0.00  0.00    -0.301 N 
ATOM     16  C   LIG    1       27.692 -19.717   8.063  0.00  0.00    +0.111 C 
ATOM     17  C   LIG    1       28.964 -19.644   7.223  0.00  0.00    +0.011 C 
ATOM     18  C   LIG    1       29.503 -21.085   7.278  0.00  0.00    +0.011 C 
ATOM     19  C   LIG    1       30.328 -21.389   8.532  0.00  0.00    +0.005 C 
ATOM     20  C   LIG    1       31.395 -20.331   8.767  0.00  0.00    +0.000 C 
ATOM     21  C   LIG    1       30.760 -18.952   8.904  0.00  0.00    +0.000 C 
ATOM     22  C   LIG    1       29.965 -18.579   7.656  0.00  0.00    +0.005 C 
ATOM     23  C   LIG    1       28.231 -21.924   7.252  0.00  0.00    +0.111 C 
ATOM     24  O   LIG    1       25.113 -20.607   8.515  0.00  0.00    -0.276 OA
ENDBRANCH  13  14
ENDBRANCH   1  13
TORSDOF 6
ENDMDL
