MODEL 1
REMARK VINA RESULT:       3.2      0.000      0.000
REMARK  Name = *****
REMARK                            x       y       z     vdW  Elec       q    Type
REMARK                         _______ _______ _______ _____ _____    ______ ____
ROOT
ATOM      1  N   LIG    1       28.198 -19.620   4.953  0.00  0.00    -0.296 NA
ATOM      2  C   LIG    1       27.309 -19.628   3.777  0.00  0.00    +0.100 C 
ATOM      3  C   LIG    1       26.308 -18.445   3.723  0.00  0.00    +0.100 C 
ATOM      4  N   LIG    1       26.898 -17.092   3.890  0.00  0.00    -0.289 NA
ATOM      5  C   LIG    1       27.933 -17.099   4.956  0.00  0.00    +0.100 C 
ATOM      6  C   LIG    1       28.886 -18.318   4.940  0.00  0.00    +0.100 C 
ENDROOT
BRANCH   1   7
ATOM      7  C   LIG    1       27.431 -19.874   6.193  0.00  0.00    +0.119 C 
BRANCH   7  11
ATOM      8  C   LIG    1       23.803 -21.572   3.100  0.00  0.00    +0.044 C 
ATOM      9  C   LIG    1       24.302 -21.271   4.481  0.00  0.00    -0.050 A 
ATOM     10  C   LIG    1       25.592 -20.756   4.687  0.00  0.00    +0.008 A 
ATOM     11  C   LIG    1       26.042 -20.442   5.975  0.00  0.00    -0.033 A 
ATOM     12  C   LIG    1       25.180 -20.661   7.062  0.00  0.00    +0.005 A 
ATOM     13  C   LIG    1       23.913 -21.211   6.872  0.00  0.00    +0.001 A 
ATOM     14  C   LIG    1       23.476 -21.512   5.587  0.00  0.00    +0.003 A 
ENDBRANCH   7  11
ENDBRANCH   1   7
BRANCH   4  15
ATOM     15  C   LIG    1       25.840 -16.074   4.211  0.00  0.00    +0.117 C 
BRANCH  15  16
ATOM     16  C   LIG    1       24.405 -16.602   4.068  0.00  0.00    -0.026 A 
ATOM     17  C   LIG    1       23.313 -15.912   4.619  0.00  0.00    +0.007 A 
ATOM     18  C   LIG    1       22.021 -16.432   4.520  0.00  0.00    +0.020 A 
ATOM     19  C   LIG    1       21.810 -17.647   3.873  0.00  0.00    +0.041 A 
ATOM     20 CL   LIG    1       20.222 -18.300   3.775  0.00  0.00    -0.084 Cl
ATOM     21  C   LIG    1       22.878 -18.341   3.308  0.00  0.00    +0.020 A 
ATOM     22  C   LIG    1       24.170 -17.820   3.405  0.00  0.00    +0.007 A 
ENDBRANCH  15  16
BRANCH  15  23
ATOM     23  C   LIG    1       25.962 -14.749   3.440  0.00  0.00    -0.026 A 
ATOM     24  C   LIG    1       24.861 -14.140   2.818  0.00  0.00    +0.005 A 
ATOM     25  C   LIG    1       24.987 -12.896   2.195  0.00  0.00    +0.000 A 
ATOM     26  C   LIG    1       26.211 -12.231   2.196  0.00  0.00    +0.000 A 
ATOM     27  C   LIG    1       27.314 -12.813   2.814  0.00  0.00    +0.000 A 
ATOM     28  C   LIG    1       27.193 -14.062   3.430  0.00  0.00    +0.005 A 
ENDBRANCH  15  23
ENDBRANCH   4  15
TORSDOF 5
ENDMDL
MODEL 2
REMARK VINA RESULT:       3.8      2.572      4.303
REMARK  Name = *****
REMARK                            x       y       z     vdW  Elec       q    Type
REMARK                         _______ _______ _______ _____ _____    ______ ____
ROOT
ATOM      1  N   LIG    1       21.474 -19.100   4.346  0.00  0.00    -0.296 NA
ATOM      2  C   LIG    1       22.052 -18.226   5.383  0.00  0.00    +0.100 C 
ATOM      3  C   LIG    1       23.106 -17.218   4.856  0.00  0.00    +0.100 C 
ATOM      4  N   LIG    1       22.688 -16.396   3.691  0.00  0.00    -0.289 NA
ATOM      5  C   LIG    1       21.942 -17.223   2.707  0.00  0.00    +0.100 C 
ATOM      6  C   LIG    1       20.914 -18.205   3.318  0.00  0.00    +0.100 C 
ENDROOT
BRANCH   1   7
ATOM      7  C   LIG    1       22.491 -20.040   3.824  0.00  0.00    +0.119 C 
BRANCH   7  11
ATOM      8  C   LIG    1       27.192 -21.138   5.339  0.00  0.00    +0.044 C 
ATOM      9  C   LIG    1       25.717 -21.098   5.598  0.00  0.00    -0.050 A 
ATOM     10  C   LIG    1       24.830 -20.585   4.638  0.00  0.00    +0.008 A 
ATOM     11  C   LIG    1       23.448 -20.582   4.867  0.00  0.00    -0.033 A 
ATOM     12  C   LIG    1       22.966 -21.095   6.082  0.00  0.00    +0.005 A 
ATOM     13  C   LIG    1       23.842 -21.567   7.059  0.00  0.00    +0.001 A 
ATOM     14  C   LIG    1       25.211 -21.571   6.815  0.00  0.00    +0.003 A 
ENDBRANCH   7  11
ENDBRANCH   1   7
BRANCH   4  15
ATOM     15  C   LIG    1       23.873 -15.756   3.025  0.00  0.00    +0.117 C 
BRANCH  15  16
ATOM     16  C   LIG    1       25.221 -16.378   3.421  0.00  0.00    -0.026 A 
ATOM     17  C   LIG    1       25.373 -17.767   3.562  0.00  0.00    +0.007 A 
ATOM     18  C   LIG    1       26.593 -18.310   3.970  0.00  0.00    +0.020 A 
ATOM     19  C   LIG    1       27.670 -17.471   4.242  0.00  0.00    +0.041 A 
ATOM     20 CL   LIG    1       29.164 -18.139   4.771  0.00  0.00    -0.084 Cl
ATOM     21  C   LIG    1       27.544 -16.091   4.096  0.00  0.00    +0.020 A 
ATOM     22  C   LIG    1       26.325 -15.547   3.687  0.00  0.00    +0.007 A 
ENDBRANCH  15  16
BRANCH  15  23
ATOM     23  C   LIG    1       23.962 -14.229   3.192  0.00  0.00    -0.026 A 
ATOM     24  C   LIG    1       23.702 -13.593   4.416  0.00  0.00    +0.005 A 
ATOM     25  C   LIG    1       23.871 -12.213   4.557  0.00  0.00    +0.000 A 
ATOM     26  C   LIG    1       24.317 -11.448   3.482  0.00  0.00    +0.000 A 
ATOM     27  C   LIG    1       24.589 -12.060   2.262  0.00  0.00    +0.000 A 
ATOM     28  C   LIG    1       24.412 -13.438   2.116  0.00  0.00    +0.005 A 
ENDBRANCH  15  23
ENDBRANCH   4  15
TORSDOF 5
ENDMDL
MODEL 3
REMARK VINA RESULT:       3.8      1.913      6.044
REMARK  Name = *****
REMARK                            x       y       z     vdW  Elec       q    Type
REMARK                         _______ _______ _______ _____ _____    ______ ____
ROOT
ATOM      1  N   LIG    1       26.389 -13.318   3.198  0.00  0.00    -0.296 NA
ATOM      2  C   LIG    1       26.819 -13.803   4.522  0.00  0.00    +0.100 C 
ATOM      3  C   LIG    1       26.804 -15.346   4.673  0.00  0.00    +0.100 C 
ATOM      4  N   LIG    1       27.513 -16.107   3.611  0.00  0.00    -0.289 NA
ATOM      5  C   LIG    1       27.236 -15.522   2.273  0.00  0.00    +0.100 C 
ATOM      6  C   LIG    1       27.265 -13.975   2.213  0.00  0.00    +0.100 C 
ENDROOT
BRANCH   1   7
ATOM      7  C   LIG    1       24.949 -13.585   2.982  0.00  0.00    +0.119 C 
BRANCH   7  11
ATOM      8  C   LIG    1       21.725 -14.836   6.677  0.00  0.00    +0.044 C 
ATOM      9  C   LIG    1       22.508 -13.801   5.926  0.00  0.00    -0.050 A 
ATOM     10  C   LIG    1       23.349 -14.164   4.863  0.00  0.00    +0.008 A 
ATOM     11  C   LIG    1       24.051 -13.192   4.140  0.00  0.00    -0.033 A 
ATOM     12  C   LIG    1       23.905 -11.844   4.506  0.00  0.00    +0.005 A 
ATOM     13  C   LIG    1       23.105 -11.478   5.588  0.00  0.00    +0.001 A 
ATOM     14  C   LIG    1       22.408 -12.453   6.292  0.00  0.00    +0.003 A 
ENDBRANCH   7  11
ENDBRANCH   1   7
BRANCH   4  15
ATOM     15  C   LIG    1       27.119 -17.556   3.626  0.00  0.00    +0.117 C 
BRANCH  15  16
ATOM     16  C   LIG    1       25.601 -17.788   3.657  0.00  0.00    -0.026 A 
ATOM     17  C   LIG    1       24.712 -16.769   4.035  0.00  0.00    +0.007 A 
ATOM     18  C   LIG    1       23.339 -17.013   4.104  0.00  0.00    +0.020 A 
ATOM     19  C   LIG    1       22.843 -18.277   3.797  0.00  0.00    +0.041 A 
ATOM     20 CL   LIG    1       21.154 -18.584   3.908  0.00  0.00    -0.084 Cl
ATOM     21  C   LIG    1       23.706 -19.298   3.407  0.00  0.00    +0.020 A 
ATOM     22  C   LIG    1       25.079 -19.055   3.336  0.00  0.00    +0.007 A 
ENDBRANCH  15  16
BRANCH  15  23
ATOM     23  C   LIG    1       27.773 -18.393   4.739  0.00  0.00    -0.026 A 
ATOM     24  C   LIG    1       28.951 -17.988   5.387  0.00  0.00    +0.005 A 
ATOM     25  C   LIG    1       29.475 -18.728   6.450  0.00  0.00    +0.000 A 
ATOM     26  C   LIG    1       28.823 -19.875   6.895  0.00  0.00    +0.000 A 
ATOM     27  C   LIG    1       27.648 -20.289   6.273  0.00  0.00    +0.000 A 
ATOM     28  C   LIG    1       27.128 -19.557   5.203  0.00  0.00    +0.005 A 
ENDBRANCH  15  23
ENDBRANCH   4  15
TORSDOF 5
ENDMDL
MODEL 4
REMARK VINA RESULT:       5.6      2.477      4.560
REMARK  Name = *****
REMARK                            x       y       z     vdW  Elec       q    Type
REMARK                         _______ _______ _______ _____ _____    ______ ____
ROOT
ATOM      1  N   LIG    1       22.100 -16.296   4.017  0.00  0.00    -0.296 NA
ATOM      2  C   LIG    1       22.924 -16.242   5.238  0.00  0.00    +0.100 C 
ATOM      3  C   LIG    1       24.442 -16.067   4.978  0.00  0.00    +0.100 C 
ATOM      4  N   LIG    1       24.819 -14.949   4.076  0.00  0.00    -0.289 NA
ATOM      5  C   LIG    1       23.888 -14.871   2.920  0.00  0.00    +0.100 C 
ATOM      6  C   LIG    1       22.392 -15.062   3.268  0.00  0.00    +0.100 C 
ENDROOT
BRANCH   1   7
ATOM      7  C   LIG    1       22.376 -17.533   3.252  0.00  0.00    +0.119 C 
BRANCH   7  11
ATOM      8  C   LIG    1       24.794 -20.692   6.380  0.00  0.00    +0.044 C 
ATOM      9  C   LIG    1       23.571 -20.313   5.601  0.00  0.00    -0.050 A 
ATOM     10  C   LIG    1       23.536 -19.134   4.839  0.00  0.00    +0.008 A 
ATOM     11  C   LIG    1       22.405 -18.800   4.084  0.00  0.00    -0.033 A 
ATOM     12  C   LIG    1       21.299 -19.665   4.111  0.00  0.00    +0.005 A 
ATOM     13  C   LIG    1       21.308 -20.816   4.898  0.00  0.00    +0.001 A 
ATOM     14  C   LIG    1       22.440 -21.139   5.637  0.00  0.00    +0.003 A 
ENDBRANCH   7  11
ENDBRANCH   1   7
BRANCH   4  15
ATOM     15  C   LIG    1       26.231 -15.099   3.584  0.00  0.00    +0.117 C 
BRANCH  15  16
ATOM     16  C   LIG    1       26.879 -16.442   3.955  0.00  0.00    -0.026 A 
ATOM     17  C   LIG    1       26.269 -17.664   3.629  0.00  0.00    +0.007 A 
ATOM     18  C   LIG    1       26.850 -18.874   4.018  0.00  0.00    +0.020 A 
ATOM     19  C   LIG    1       28.043 -18.871   4.737  0.00  0.00    +0.041 A 
ATOM     20 CL   LIG    1       28.743 -20.360   5.239  0.00  0.00    -0.084 Cl
ATOM     21  C   LIG    1       28.670 -17.670   5.059  0.00  0.00    +0.020 A 
ATOM     22  C   LIG    1       28.091 -16.460   4.670  0.00  0.00    +0.007 A 
ENDBRANCH  15  16
BRANCH  15  23
ATOM     23  C   LIG    1       27.182 -13.960   3.988  0.00  0.00    -0.026 A 
ATOM     24  C   LIG    1       27.142 -13.367   5.261  0.00  0.00    +0.005 A 
ATOM     25  C   LIG    1       28.073 -12.390   5.625  0.00  0.00    +0.000 A 
ATOM     26  C   LIG    1       29.067 -12.000   4.731  0.00  0.00    +0.000 A 
ATOM     27  C   LIG    1       29.130 -12.582   3.468  0.00  0.00    +0.000 A 
ATOM     28  C   LIG    1       28.195 -13.552   3.098  0.00  0.00    +0.005 A 
ENDBRANCH  15  23
ENDBRANCH   4  15
TORSDOF 5
ENDMDL
MODEL 5
REMARK VINA RESULT:       6.1      2.079      6.468
REMARK  Name = *****
REMARK                            x       y       z     vdW  Elec       q    Type
REMARK                         _______ _______ _______ _____ _____    ______ ____
ROOT
ATOM      1  N   LIG    1       24.364 -12.572   3.949  0.00  0.00    -0.296 NA
ATOM      2  C   LIG    1       23.136 -13.311   3.604  0.00  0.00    +0.100 C 
ATOM      3  C   LIG    1       23.365 -14.803   3.251  0.00  0.00    +0.100 C 
ATOM      4  N   LIG    1       24.155 -15.587   4.236  0.00  0.00    -0.289 NA
ATOM      5  C   LIG    1       25.305 -14.791   4.737  0.00  0.00    +0.100 C 
ATOM      6  C   LIG    1       24.990 -13.310   5.060  0.00  0.00    +0.100 C 
ENDROOT
BRANCH   1   7
ATOM      7  C   LIG    1       25.241 -12.426   2.766  0.00  0.00    +0.119 C 
BRANCH   7  11
ATOM      8  C   LIG    1       29.455 -11.600   5.443  0.00  0.00    +0.044 C 
ATOM      9  C   LIG    1       28.735 -12.299   4.330  0.00  0.00    -0.050 A 
ATOM     10  C   LIG    1       27.372 -12.065   4.092  0.00  0.00    +0.008 A 
ATOM     11  C   LIG    1       26.711 -12.692   3.028  0.00  0.00    -0.033 A 
ATOM     12  C   LIG    1       27.437 -13.570   2.208  0.00  0.00    +0.005 A 
ATOM     13  C   LIG    1       28.780 -13.842   2.462  0.00  0.00    +0.001 A 
ATOM     14  C   LIG    1       29.427 -13.207   3.516  0.00  0.00    +0.003 A 
ENDBRANCH   7  11
ENDBRANCH   1   7
BRANCH   4  15
ATOM     15  C   LIG    1       24.646 -16.874   3.638  0.00  0.00    +0.117 C 
BRANCH  15  16
ATOM     16  C   LIG    1       23.734 -18.078   3.917  0.00  0.00    -0.026 A 
ATOM     17  C   LIG    1       24.157 -19.392   3.659  0.00  0.00    +0.007 A 
ATOM     18  C   LIG    1       23.296 -20.471   3.874  0.00  0.00    +0.020 A 
ATOM     19  C   LIG    1       22.005 -20.245   4.346  0.00  0.00    +0.041 A 
ATOM     20 CL   LIG    1       20.937 -21.571   4.585  0.00  0.00    -0.084 Cl
ATOM     21  C   LIG    1       21.571 -18.950   4.620  0.00  0.00    +0.020 A 
ATOM     22  C   LIG    1       22.431 -17.871   4.407  0.00  0.00    +0.007 A 
ENDBRANCH  15  16
BRANCH  15  23
ATOM     23  C   LIG    1       26.092 -17.249   4.008  0.00  0.00    -0.026 A 
ATOM     24  C   LIG    1       27.147 -16.325   3.937  0.00  0.00    +0.005 A 
ATOM     25  C   LIG    1       28.433 -16.672   4.358  0.00  0.00    +0.000 A 
ATOM     26  C   LIG    1       28.684 -17.942   4.872  0.00  0.00    +0.000 A 
ATOM     27  C   LIG    1       27.650 -18.870   4.960  0.00  0.00    +0.000 A 
ATOM     28  C   LIG    1       26.365 -18.528   4.531  0.00  0.00    +0.005 A 
ENDBRANCH  15  23
ENDBRANCH   4  15
TORSDOF 5
ENDMDL
