MODEL 1
REMARK VINA RESULT:      -6.7      0.000      0.000
REMARK  Name = *****
REMARK                            x       y       z     vdW  Elec       q    Type
REMARK                         _______ _______ _______ _____ _____    ______ ____
ROOT
ATOM      1  C   LIG    1       25.171 -19.607   4.316  0.00  0.00    +0.019 A 
ATOM      2  C   LIG    1       25.834 -20.318   5.334  0.00  0.00    +0.035 A 
ATOM      3  C   LIG    1       27.172 -20.050   5.707  0.00  0.00    +0.049 A 
ATOM      4  N   LIG    1       27.861 -20.834   6.687  0.00  0.00    -0.297 N 
ATOM      5  C   LIG    1       29.103 -20.473   7.294  0.00  0.00    +0.048 A 
ATOM      6  C   LIG    1       29.875 -19.392   6.811  0.00  0.00    +0.034 A 
ATOM      7  S   LIG    1       29.454 -18.445   5.370  0.00  0.00    -0.086 S 
ATOM      8  C   LIG    1       31.080 -19.009   7.434  0.00  0.00    +0.017 A 
ATOM      9  C   LIG    1       31.561 -19.691   8.543  0.00  0.00    +0.001 A 
ATOM     10  C   LIG    1       30.831 -20.758   9.040  0.00  0.00    +0.002 A 
ATOM     11  C   LIG    1       29.622 -21.132   8.431  0.00  0.00    +0.024 A 
ATOM     12  C   LIG    1       27.792 -18.967   5.055  0.00  0.00    +0.034 A 
ATOM     13  C   LIG    1       27.124 -18.247   4.048  0.00  0.00    +0.017 A 
ATOM     14  C   LIG    1       25.829 -18.573   3.662  0.00  0.00    +0.012 A 
ENDROOT
BRANCH   1  15
ATOM     15  C   LIG    1       23.795 -20.033   3.934  0.00  0.00    +0.163 C 
ATOM     16  O   LIG    1       23.646 -20.743   2.941  0.00  0.00    -0.292 OA
BRANCH  15  18
ATOM     17  C   LIG    1       22.188 -18.181   4.472  0.00  0.00    +0.012 C 
ATOM     18  C   LIG    1       22.611 -19.606   4.781  0.00  0.00    +0.076 C 
ENDBRANCH  15  18
ENDBRANCH   1  15
BRANCH   4  19
ATOM     19  C   LIG    1       27.332 -22.217   6.921  0.00  0.00    +0.129 C 
BRANCH  19  20
ATOM     20  C   LIG    1       26.269 -22.316   8.074  0.00  0.00    +0.071 C 
ATOM     21  C   LIG    1       25.969 -20.900   8.601  0.00  0.00    +0.026 C 
BRANCH  20  22
ATOM     22  N   LIG    1       25.009 -23.010   7.647  0.00  0.00    -0.304 NA
ATOM     23  C   LIG    1       25.190 -23.749   6.389  0.00  0.00    +0.105 C 
ATOM     24  C   LIG    1       23.896 -22.070   7.461  0.00  0.00    +0.105 C 
ENDBRANCH  20  22
ENDBRANCH  19  20
ENDBRANCH   4  19
TORSDOF 5
ENDMDL
MODEL 2
REMARK VINA RESULT:      -6.3      1.571      2.319
REMARK  Name = *****
REMARK                            x       y       z     vdW  Elec       q    Type
REMARK                         _______ _______ _______ _____ _____    ______ ____
ROOT
ATOM      1  C   LIG    1       23.259 -19.626   4.443  0.00  0.00    +0.019 A 
ATOM      2  C   LIG    1       23.909 -20.333   5.472  0.00  0.00    +0.035 A 
ATOM      3  C   LIG    1       25.316 -20.336   5.628  0.00  0.00    +0.049 A 
ATOM      4  N   LIG    1       25.969 -21.125   6.628  0.00  0.00    -0.297 N 
ATOM      5  C   LIG    1       27.340 -20.986   7.008  0.00  0.00    +0.048 A 
ATOM      6  C   LIG    1       28.235 -20.184   6.266  0.00  0.00    +0.034 A 
ATOM      7  S   LIG    1       27.801 -19.359   4.755  0.00  0.00    -0.086 S 
ATOM      8  C   LIG    1       29.577 -20.012   6.663  0.00  0.00    +0.017 A 
ATOM      9  C   LIG    1       30.072 -20.637   7.800  0.00  0.00    +0.001 A 
ATOM     10  C   LIG    1       29.222 -21.434   8.549  0.00  0.00    +0.002 A 
ATOM     11  C   LIG    1       27.881 -21.593   8.164  0.00  0.00    +0.024 A 
ATOM     12  C   LIG    1       26.039 -19.519   4.738  0.00  0.00    +0.034 A 
ATOM     13  C   LIG    1       25.387 -18.801   3.718  0.00  0.00    +0.017 A 
ATOM     14  C   LIG    1       24.008 -18.866   3.555  0.00  0.00    +0.012 A 
ENDROOT
BRANCH   1  15
ATOM     15  C   LIG    1       21.782 -19.768   4.310  0.00  0.00    +0.163 C 
ATOM     16  O   LIG    1       21.261 -20.849   4.581  0.00  0.00    -0.292 OA
BRANCH  15  18
ATOM     17  C   LIG    1       19.626 -19.024   3.259  0.00  0.00    +0.012 C 
ATOM     18  C   LIG    1       20.946 -18.582   3.864  0.00  0.00    +0.076 C 
ENDBRANCH  15  18
ENDBRANCH   1  15
BRANCH   4  19
ATOM     19  C   LIG    1       25.205 -22.305   7.145  0.00  0.00    +0.129 C 
BRANCH  19  20
ATOM     20  C   LIG    1       25.291 -23.581   6.230  0.00  0.00    +0.071 C 
ATOM     21  C   LIG    1       26.179 -24.633   6.921  0.00  0.00    +0.026 C 
BRANCH  20  22
ATOM     22  N   LIG    1       23.943 -24.150   5.897  0.00  0.00    -0.304 NA
ATOM     23  C   LIG    1       22.886 -23.598   6.758  0.00  0.00    +0.105 C 
ATOM     24  C   LIG    1       23.912 -25.612   6.028  0.00  0.00    +0.105 C 
ENDBRANCH  20  22
ENDBRANCH  19  20
ENDBRANCH   4  19
TORSDOF 5
ENDMDL
MODEL 3
REMARK VINA RESULT:      -6.3      8.131     11.376
REMARK  Name = *****
REMARK                            x       y       z     vdW  Elec       q    Type
REMARK                         _______ _______ _______ _____ _____    ______ ____
ROOT
ATOM      1  C   LIG    1       25.581 -27.680   6.862  0.00  0.00    +0.019 A 
ATOM      2  C   LIG    1       24.796 -28.847   6.809  0.00  0.00    +0.035 A 
ATOM      3  C   LIG    1       24.784 -29.809   7.846  0.00  0.00    +0.049 A 
ATOM      4  N   LIG    1       24.044 -31.030   7.744  0.00  0.00    -0.297 N 
ATOM      5  C   LIG    1       23.780 -31.917   8.833  0.00  0.00    +0.048 A 
ATOM      6  C   LIG    1       24.420 -31.763  10.084  0.00  0.00    +0.034 A 
ATOM      7  S   LIG    1       25.670 -30.546  10.410  0.00  0.00    -0.086 S 
ATOM      8  C   LIG    1       24.130 -32.611  11.172  0.00  0.00    +0.017 A 
ATOM      9  C   LIG    1       23.207 -33.642  11.050  0.00  0.00    +0.001 A 
ATOM     10  C   LIG    1       22.564 -33.823   9.836  0.00  0.00    +0.002 A 
ATOM     11  C   LIG    1       22.840 -32.969   8.756  0.00  0.00    +0.024 A 
ATOM     12  C   LIG    1       25.547 -29.498   8.989  0.00  0.00    +0.034 A 
ATOM     13  C   LIG    1       26.320 -28.323   9.047  0.00  0.00    +0.017 A 
ATOM     14  C   LIG    1       26.357 -27.427   7.986  0.00  0.00    +0.012 A 
ENDROOT
BRANCH   1  15
ATOM     15  C   LIG    1       25.595 -26.781   5.674  0.00  0.00    +0.163 C 
ATOM     16  O   LIG    1       26.608 -26.727   4.980  0.00  0.00    -0.292 OA
BRANCH  15  18
ATOM     17  C   LIG    1       24.020 -24.976   6.427  0.00  0.00    +0.012 C 
ATOM     18  C   LIG    1       24.361 -25.967   5.329  0.00  0.00    +0.076 C 
ENDBRANCH  15  18
ENDBRANCH   1  15
BRANCH   4  19
ATOM     19  C   LIG    1       23.717 -31.493   6.357  0.00  0.00    +0.129 C 
BRANCH  19  20
ATOM     20  C   LIG    1       24.604 -32.687   5.848  0.00  0.00    +0.071 C 
ATOM     21  C   LIG    1       23.793 -33.516   4.835  0.00  0.00    +0.026 C 
BRANCH  20  22
ATOM     22  N   LIG    1       25.905 -32.233   5.254  0.00  0.00    -0.304 NA
ATOM     23  C   LIG    1       26.243 -32.984   4.036  0.00  0.00    +0.105 C 
ATOM     24  C   LIG    1       27.022 -32.378   6.196  0.00  0.00    +0.105 C 
ENDBRANCH  20  22
ENDBRANCH  19  20
ENDBRANCH   4  19
TORSDOF 5
ENDMDL
MODEL 4
REMARK VINA RESULT:      -6.2      7.225      9.951
REMARK  Name = *****
REMARK                            x       y       z     vdW  Elec       q    Type
REMARK                         _______ _______ _______ _____ _____    ______ ____
ROOT
ATOM      1  C   LIG    1       24.722 -26.739   6.198  0.00  0.00    +0.019 A 
ATOM      2  C   LIG    1       25.211 -27.554   7.237  0.00  0.00    +0.035 A 
ATOM      3  C   LIG    1       25.386 -28.950   7.096  0.00  0.00    +0.049 A 
ATOM      4  N   LIG    1       25.806 -29.779   8.185  0.00  0.00    -0.297 N 
ATOM      5  C   LIG    1       26.246 -31.133   8.057  0.00  0.00    +0.048 A 
ATOM      6  C   LIG    1       26.099 -31.846   6.846  0.00  0.00    +0.034 A 
ATOM      7  S   LIG    1       25.280 -31.197   5.411  0.00  0.00    -0.086 S 
ATOM      8  C   LIG    1       26.569 -33.168   6.705  0.00  0.00    +0.017 A 
ATOM      9  C   LIG    1       27.188 -33.823   7.761  0.00  0.00    +0.001 A 
ATOM     10  C   LIG    1       27.344 -33.154   8.964  0.00  0.00    +0.002 A 
ATOM     11  C   LIG    1       26.891 -31.832   9.101  0.00  0.00    +0.024 A 
ATOM     12  C   LIG    1       25.119 -29.483   5.819  0.00  0.00    +0.034 A 
ATOM     13  C   LIG    1       24.644 -28.665   4.777  0.00  0.00    +0.017 A 
ATOM     14  C   LIG    1       24.426 -27.305   4.965  0.00  0.00    +0.012 A 
ENDROOT
BRANCH   1  15
ATOM     15  C   LIG    1       24.483 -25.296   6.482  0.00  0.00    +0.163 C 
ATOM     16  O   LIG    1       23.329 -24.873   6.488  0.00  0.00    -0.292 OA
BRANCH  15  18
ATOM     17  C   LIG    1       25.195 -23.003   7.215  0.00  0.00    +0.012 C 
ATOM     18  C   LIG    1       25.658 -24.380   6.777  0.00  0.00    +0.076 C 
ENDBRANCH  15  18
ENDBRANCH   1  15
BRANCH   4  19
ATOM     19  C   LIG    1       25.560 -29.239   9.561  0.00  0.00    +0.129 C 
BRANCH  19  20
ATOM     20  C   LIG    1       24.603 -30.123  10.440  0.00  0.00    +0.071 C 
ATOM     21  C   LIG    1       24.497 -29.501  11.845  0.00  0.00    +0.026 C 
BRANCH  20  22
ATOM     22  N   LIG    1       23.246 -30.300   9.825  0.00  0.00    -0.304 NA
ATOM     23  C   LIG    1       22.168 -30.001  10.780  0.00  0.00    +0.105 C 
ATOM     24  C   LIG    1       23.039 -31.666   9.327  0.00  0.00    +0.105 C 
ENDBRANCH  20  22
ENDBRANCH  19  20
ENDBRANCH   4  19
TORSDOF 5
ENDMDL
MODEL 5
REMARK VINA RESULT:      -6.1      7.048      9.792
REMARK  Name = *****
REMARK                            x       y       z     vdW  Elec       q    Type
REMARK                         _______ _______ _______ _____ _____    ______ ____
ROOT
ATOM      1  C   LIG    1       24.770 -26.628   6.179  0.00  0.00    +0.019 A 
ATOM      2  C   LIG    1       25.042 -27.535   7.220  0.00  0.00    +0.035 A 
ATOM      3  C   LIG    1       25.272 -28.913   6.994  0.00  0.00    +0.049 A 
ATOM      4  N   LIG    1       25.466 -29.838   8.069  0.00  0.00    -0.297 N 
ATOM      5  C   LIG    1       25.951 -31.174   7.916  0.00  0.00    +0.048 A 
ATOM      6  C   LIG    1       26.082 -31.772   6.643  0.00  0.00    +0.034 A 
ATOM      7  S   LIG    1       25.577 -30.993   5.130  0.00  0.00    -0.086 S 
ATOM      8  C   LIG    1       26.599 -33.075   6.488  0.00  0.00    +0.017 A 
ATOM      9  C   LIG    1       26.990 -33.825   7.588  0.00  0.00    +0.001 A 
ATOM     10  C   LIG    1       26.871 -33.270   8.852  0.00  0.00    +0.002 A 
ATOM     11  C   LIG    1       26.372 -31.967   9.008  0.00  0.00    +0.024 A 
ATOM     12  C   LIG    1       25.296 -29.324   5.648  0.00  0.00    +0.034 A 
ATOM     13  C   LIG    1       25.039 -28.413   4.606  0.00  0.00    +0.017 A 
ATOM     14  C   LIG    1       24.758 -27.077   4.865  0.00  0.00    +0.012 A 
ENDROOT
BRANCH   1  15
ATOM     15  C   LIG    1       24.447 -25.218   6.534  0.00  0.00    +0.163 C 
ATOM     16  O   LIG    1       23.268 -24.870   6.576  0.00  0.00    -0.292 OA
BRANCH  15  18
ATOM     17  C   LIG    1       25.025 -22.899   7.304  0.00  0.00    +0.012 C 
ATOM     18  C   LIG    1       25.566 -24.244   6.855  0.00  0.00    +0.076 C 
ENDBRANCH  15  18
ENDBRANCH   1  15
BRANCH   4  19
ATOM     19  C   LIG    1       24.920 -29.429   9.403  0.00  0.00    +0.129 C 
BRANCH  19  20
ATOM     20  C   LIG    1       25.979 -29.433  10.564  0.00  0.00    +0.071 C 
ATOM     21  C   LIG    1       26.811 -28.139  10.486  0.00  0.00    +0.026 C 
BRANCH  20  22
ATOM     22  N   LIG    1       25.357 -29.592  11.920  0.00  0.00    -0.304 NA
ATOM     23  C   LIG    1       24.030 -30.222  11.843  0.00  0.00    +0.105 C 
ATOM     24  C   LIG    1       25.206 -28.307  12.612  0.00  0.00    +0.105 C 
ENDBRANCH  20  22
ENDBRANCH  19  20
ENDBRANCH   4  19
TORSDOF 5
ENDMDL
MODEL 6
REMARK VINA RESULT:      -5.9      2.497      5.865
REMARK  Name = *****
REMARK                            x       y       z     vdW  Elec       q    Type
REMARK                         _______ _______ _______ _____ _____    ______ ____
ROOT
ATOM      1  C   LIG    1       30.287 -20.113   7.702  0.00  0.00    +0.019 A 
ATOM      2  C   LIG    1       29.036 -20.690   7.408  0.00  0.00    +0.035 A 
ATOM      3  C   LIG    1       28.142 -20.137   6.462  0.00  0.00    +0.049 A 
ATOM      4  N   LIG    1       26.840 -20.687   6.233  0.00  0.00    -0.297 N 
ATOM      5  C   LIG    1       25.994 -20.347   5.132  0.00  0.00    +0.048 A 
ATOM      6  C   LIG    1       26.293 -19.261   4.278  0.00  0.00    +0.034 A 
ATOM      7  S   LIG    1       27.662 -18.158   4.525  0.00  0.00    -0.086 S 
ATOM      8  C   LIG    1       25.482 -18.950   3.167  0.00  0.00    +0.017 A 
ATOM      9  C   LIG    1       24.348 -19.697   2.878  0.00  0.00    +0.001 A 
ATOM     10  C   LIG    1       24.024 -20.766   3.697  0.00  0.00    +0.002 A 
ATOM     11  C   LIG    1       24.840 -21.088   4.794  0.00  0.00    +0.024 A 
ATOM     12  C   LIG    1       28.604 -19.007   5.759  0.00  0.00    +0.034 A 
ATOM     13  C   LIG    1       29.860 -18.439   6.043  0.00  0.00    +0.017 A 
ATOM     14  C   LIG    1       30.692 -18.972   7.021  0.00  0.00    +0.012 A 
ENDROOT
BRANCH   1  15
ATOM     15  C   LIG    1       31.111 -20.721   8.784  0.00  0.00    +0.163 C 
ATOM     16  O   LIG    1       31.949 -20.026   9.355  0.00  0.00    -0.292 OA
BRANCH  15  18
ATOM     17  C   LIG    1       31.879 -23.093   8.484  0.00  0.00    +0.012 C 
ATOM     18  C   LIG    1       30.891 -22.171   9.176  0.00  0.00    +0.076 C 
ENDBRANCH  15  18
ENDBRANCH   1  15
BRANCH   4  19
ATOM     19  C   LIG    1       26.264 -21.510   7.343  0.00  0.00    +0.129 C 
BRANCH  19  20
ATOM     20  C   LIG    1       25.320 -22.673   6.863  0.00  0.00    +0.071 C 
ATOM     21  C   LIG    1       26.033 -24.020   7.087  0.00  0.00    +0.026 C 
BRANCH  20  22
ATOM     22  N   LIG    1       23.981 -22.652   7.540  0.00  0.00    -0.304 NA
ATOM     23  C   LIG    1       22.997 -23.488   6.835  0.00  0.00    +0.105 C 
ATOM     24  C   LIG    1       23.431 -21.294   7.635  0.00  0.00    +0.105 C 
ENDBRANCH  20  22
ENDBRANCH  19  20
ENDBRANCH   4  19
TORSDOF 5
ENDMDL
MODEL 7
REMARK VINA RESULT:      -5.8      2.620      6.500
REMARK  Name = *****
REMARK                            x       y       z     vdW  Elec       q    Type
REMARK                         _______ _______ _______ _____ _____    ______ ____
ROOT
ATOM      1  C   LIG    1       28.999 -19.908   6.738  0.00  0.00    +0.019 A 
ATOM      2  C   LIG    1       27.777 -19.873   6.040  0.00  0.00    +0.035 A 
ATOM      3  C   LIG    1       26.752 -20.827   6.245  0.00  0.00    +0.049 A 
ATOM      4  N   LIG    1       25.548 -20.828   5.470  0.00  0.00    -0.297 N 
ATOM      5  C   LIG    1       24.377 -21.585   5.785  0.00  0.00    +0.048 A 
ATOM      6  C   LIG    1       24.386 -22.577   6.792  0.00  0.00    +0.034 A 
ATOM      7  S   LIG    1       25.840 -23.058   7.690  0.00  0.00    -0.086 S 
ATOM      8  C   LIG    1       23.222 -23.296   7.132  0.00  0.00    +0.017 A 
ATOM      9  C   LIG    1       22.020 -23.061   6.479  0.00  0.00    +0.001 A 
ATOM     10  C   LIG    1       21.977 -22.098   5.484  0.00  0.00    +0.002 A 
ATOM     11  C   LIG    1       23.131 -21.370   5.155  0.00  0.00    +0.024 A 
ATOM     12  C   LIG    1       26.985 -21.780   7.255  0.00  0.00    +0.034 A 
ATOM     13  C   LIG    1       28.201 -21.805   7.962  0.00  0.00    +0.017 A 
ATOM     14  C   LIG    1       29.213 -20.890   7.696  0.00  0.00    +0.012 A 
ENDROOT
BRANCH   1  15
ATOM     15  C   LIG    1       30.049 -18.914   6.378  0.00  0.00    +0.163 C 
ATOM     16  O   LIG    1       29.821 -18.106   5.480  0.00  0.00    -0.292 OA
BRANCH  15  18
ATOM     17  C   LIG    1       31.272 -18.083   8.406  0.00  0.00    +0.012 C 
ATOM     18  C   LIG    1       31.366 -18.901   7.132  0.00  0.00    +0.076 C 
ENDBRANCH  15  18
ENDBRANCH   1  15
BRANCH   4  19
ATOM     19  C   LIG    1       25.617 -20.150   4.136  0.00  0.00    +0.129 C 
BRANCH  19  20
ATOM     20  C   LIG    1       25.053 -18.683   4.127  0.00  0.00    +0.071 C 
ATOM     21  C   LIG    1       26.083 -17.756   3.454  0.00  0.00    +0.026 C 
BRANCH  20  22
ATOM     22  N   LIG    1       23.714 -18.579   3.456  0.00  0.00    -0.304 NA
ATOM     23  C   LIG    1       22.633 -18.342   4.425  0.00  0.00    +0.105 C 
ATOM     24  C   LIG    1       23.381 -19.790   2.697  0.00  0.00    +0.105 C 
ENDBRANCH  20  22
ENDBRANCH  19  20
ENDBRANCH   4  19
TORSDOF 5
ENDMDL
MODEL 8
REMARK VINA RESULT:      -5.6      8.433     11.863
REMARK  Name = *****
REMARK                            x       y       z     vdW  Elec       q    Type
REMARK                         _______ _______ _______ _____ _____    ______ ____
ROOT
ATOM      1  C   LIG    1       23.614 -30.501  10.914  0.00  0.00    +0.019 A 
ATOM      2  C   LIG    1       23.685 -30.414   9.511  0.00  0.00    +0.035 A 
ATOM      3  C   LIG    1       24.683 -31.070   8.753  0.00  0.00    +0.049 A 
ATOM      4  N   LIG    1       24.793 -30.907   7.335  0.00  0.00    -0.297 N 
ATOM      5  C   LIG    1       25.598 -31.723   6.481  0.00  0.00    +0.048 A 
ATOM      6  C   LIG    1       26.534 -32.643   7.005  0.00  0.00    +0.034 A 
ATOM      7  S   LIG    1       26.885 -32.816   8.736  0.00  0.00    -0.086 S 
ATOM      8  C   LIG    1       27.300 -33.478   6.165  0.00  0.00    +0.017 A 
ATOM      9  C   LIG    1       27.167 -33.417   4.784  0.00  0.00    +0.001 A 
ATOM     10  C   LIG    1       26.262 -32.524   4.237  0.00  0.00    +0.002 A 
ATOM     11  C   LIG    1       25.486 -31.703   5.073  0.00  0.00    +0.024 A 
ATOM     12  C   LIG    1       25.569 -31.893   9.476  0.00  0.00    +0.034 A 
ATOM     13  C   LIG    1       25.488 -31.991  10.878  0.00  0.00    +0.017 A 
ATOM     14  C   LIG    1       24.532 -31.287  11.599  0.00  0.00    +0.012 A 
ENDROOT
BRANCH   1  15
ATOM     15  C   LIG    1       22.582 -29.693  11.623  0.00  0.00    +0.163 C 
ATOM     16  O   LIG    1       21.394 -29.945  11.433  0.00  0.00    -0.292 OA
BRANCH  15  18
ATOM     17  C   LIG    1       21.848 -27.686  12.940  0.00  0.00    +0.012 C 
ATOM     18  C   LIG    1       23.009 -28.592  12.577  0.00  0.00    +0.076 C 
ENDBRANCH  15  18
ENDBRANCH   1  15
BRANCH   4  19
ATOM     19  C   LIG    1       24.182 -29.666   6.762  0.00  0.00    +0.129 C 
BRANCH  19  20
ATOM     20  C   LIG    1       25.227 -28.603   6.262  0.00  0.00    +0.071 C 
ATOM     21  C   LIG    1       24.744 -28.020   4.920  0.00  0.00    +0.026 C 
BRANCH  20  22
ATOM     22  N   LIG    1       25.475 -27.514   7.264  0.00  0.00    -0.304 NA
ATOM     23  C   LIG    1       26.059 -26.317   6.641  0.00  0.00    +0.105 C 
ATOM     24  C   LIG    1       26.377 -27.948   8.338  0.00  0.00    +0.105 C 
ENDBRANCH  20  22
ENDBRANCH  19  20
ENDBRANCH   4  19
TORSDOF 5
ENDMDL
MODEL 9
REMARK VINA RESULT:      -5.6      9.875     11.521
REMARK  Name = *****
REMARK                            x       y       z     vdW  Elec       q    Type
REMARK                         _______ _______ _______ _____ _____    ______ ____
ROOT
ATOM      1  C   LIG    1       20.971 -27.639  13.887  0.00  0.00    +0.019 A 
ATOM      2  C   LIG    1       22.349 -27.443  13.678  0.00  0.00    +0.035 A 
ATOM      3  C   LIG    1       23.125 -28.289  12.852  0.00  0.00    +0.049 A 
ATOM      4  N   LIG    1       24.541 -28.127  12.712  0.00  0.00    -0.297 N 
ATOM      5  C   LIG    1       25.340 -28.768  11.716  0.00  0.00    +0.048 A 
ATOM      6  C   LIG    1       24.820 -29.798  10.900  0.00  0.00    +0.034 A 
ATOM      7  S   LIG    1       23.187 -30.472  11.082  0.00  0.00    -0.086 S 
ATOM      8  C   LIG    1       25.594 -30.402   9.889  0.00  0.00    +0.017 A 
ATOM      9  C   LIG    1       26.907 -30.011   9.663  0.00  0.00    +0.001 A 
ATOM     10  C   LIG    1       27.449 -29.007  10.447  0.00  0.00    +0.002 A 
ATOM     11  C   LIG    1       26.675 -28.392  11.445  0.00  0.00    +0.024 A 
ATOM     12  C   LIG    1       22.425 -29.306  12.174  0.00  0.00    +0.034 A 
ATOM     13  C   LIG    1       21.044 -29.492  12.372  0.00  0.00    +0.017 A 
ATOM     14  C   LIG    1       20.320 -28.680  13.237  0.00  0.00    +0.012 A 
ENDROOT
BRANCH   1  15
ATOM     15  C   LIG    1       20.267 -26.749  14.852  0.00  0.00    +0.163 C 
ATOM     16  O   LIG    1       20.923 -25.935  15.499  0.00  0.00    -0.292 OA
BRANCH  15  18
ATOM     17  C   LIG    1       18.037 -26.006  13.968  0.00  0.00    +0.012 C 
ATOM     18  C   LIG    1       18.759 -26.844  15.007  0.00  0.00    +0.076 C 
ENDBRANCH  15  18
ENDBRANCH   1  15
BRANCH   4  19
ATOM     19  C   LIG    1       25.237 -27.402  13.823  0.00  0.00    +0.129 C 
BRANCH  19  20
ATOM     20  C   LIG    1       25.842 -26.012  13.408  0.00  0.00    +0.071 C 
ATOM     21  C   LIG    1       24.945 -24.890  13.965  0.00  0.00    +0.026 C 
BRANCH  20  22
ATOM     22  N   LIG    1       27.263 -25.838  13.855  0.00  0.00    -0.304 NA
ATOM     23  C   LIG    1       27.678 -26.897  14.789  0.00  0.00    +0.105 C 
ATOM     24  C   LIG    1       27.480 -24.545  14.516  0.00  0.00    +0.105 C 
ENDBRANCH  20  22
ENDBRANCH  19  20
ENDBRANCH   4  19
TORSDOF 5
ENDMDL
