MODEL 1
REMARK VINA RESULT:      -9.9      0.000      0.000
REMARK  Name = *****
REMARK                            x       y       z     vdW  Elec       q    Type
REMARK                         _______ _______ _______ _____ _____    ______ ____
ROOT
ATOM      1  N   LIG    1       27.710 -20.091   7.294  0.00  0.00    -0.298 NA
ATOM      2  C   LIG    1       26.783 -20.441   8.381  0.00  0.00    +0.090 C 
ATOM      3  C   LIG    1       26.146 -21.834   8.241  0.00  0.00    +0.069 C 
ATOM      4  C   LIG    1       25.695 -22.175   6.822  0.00  0.00    +0.027 C 
ATOM      5  C   LIG    1       26.075 -21.330   5.844  0.00  0.00    +0.010 C 
ATOM      6  C   LIG    1       26.961 -20.127   6.032  0.00  0.00    +0.113 C 
ENDROOT
BRANCH   4   7
ATOM      7  N   LIG    1       24.909 -23.322   6.638  0.00  0.00    -0.265 N 
ATOM      8  C   LIG    1       25.271 -24.681   6.353  0.00  0.00    +0.074 A 
ATOM      9  C   LIG    1       24.100 -25.435   6.244  0.00  0.00    +0.067 A 
ATOM     10  C   LIG    1       24.069 -26.789   5.971  0.00  0.00    +0.028 A 
ATOM     11  C   LIG    1       25.292 -27.430   5.800  0.00  0.00    +0.002 A 
ATOM     12  C   LIG    1       26.489 -26.707   5.912  0.00  0.00    +0.002 A 
ATOM     13  N   LIG    1       23.017 -24.610   6.464  0.00  0.00    -0.306 N 
ATOM     14  H   LIG    1       22.043 -24.867   6.465  0.00  0.00    +0.171 HD
ATOM     15  C   LIG    1       26.483 -25.331   6.194  0.00  0.00    +0.028 A 
ATOM     16  C   LIG    1       23.460 -23.313   6.725  0.00  0.00    +0.332 C 
ATOM     17  O   LIG    1       22.690 -22.395   6.976  0.00  0.00    -0.246 OA
ENDBRANCH   4   7
BRANCH   1  18
ATOM     18  C   LIG    1       28.907 -20.952   7.230  0.00  0.00    +0.085 C 
BRANCH  18  19
ATOM     19  C   LIG    1       30.098 -20.461   8.068  0.00  0.00    +0.023 C 
BRANCH  19  20
ATOM     20  C   LIG    1       30.045 -18.955   8.324  0.00  0.00    +0.081 C 
BRANCH  20  22
ATOM     21  O   LIG    1       32.278 -18.407   7.565  0.00  0.00    -0.292 OA
ATOM     22  C   LIG    1       31.421 -18.322   8.441  0.00  0.00    +0.163 C 
BRANCH  22  23
ATOM     23  C   LIG    1       31.712 -17.519   9.668  0.00  0.00    +0.018 A 
ATOM     24  C   LIG    1       30.972 -17.773  10.832  0.00  0.00    +0.014 A 
ATOM     25  C   LIG    1       31.247 -17.063  12.005  0.00  0.00    +0.039 A 
ATOM     26  C   LIG    1       32.245 -16.095  12.004  0.00  0.00    +0.123 A 
ATOM     27  F   LIG    1       32.511 -15.418  13.127  0.00  0.00    -0.205 F 
ATOM     28  C   LIG    1       32.973 -15.820  10.851  0.00  0.00    +0.039 A 
ATOM     29  C   LIG    1       32.709 -16.534   9.681  0.00  0.00    +0.014 A 
ENDBRANCH  22  23
ENDBRANCH  20  22
ENDBRANCH  19  20
ENDBRANCH  18  19
ENDBRANCH   1  18
TORSDOF 6
ENDMDL
MODEL 2
REMARK VINA RESULT:      -9.3      3.213      9.349
REMARK  Name = *****
REMARK                            x       y       z     vdW  Elec       q    Type
REMARK                         _______ _______ _______ _____ _____    ______ ____
ROOT
ATOM      1  N   LIG    1       26.482 -20.963   7.039  0.00  0.00    -0.298 NA
ATOM      2  C   LIG    1       27.114 -20.070   6.057  0.00  0.00    +0.090 C 
ATOM      3  C   LIG    1       28.583 -19.731   6.369  0.00  0.00    +0.069 C 
ATOM      4  C   LIG    1       28.855 -19.431   7.842  0.00  0.00    +0.027 C 
ATOM      5  C   LIG    1       27.856 -19.685   8.708  0.00  0.00    +0.010 C 
ATOM      6  C   LIG    1       26.530 -20.302   8.349  0.00  0.00    +0.113 C 
ENDROOT
BRANCH   4   7
ATOM      7  N   LIG    1       30.107 -18.900   8.185  0.00  0.00    -0.265 N 
ATOM      8  C   LIG    1       30.512 -18.062   9.277  0.00  0.00    +0.074 A 
ATOM      9  C   LIG    1       31.878 -17.798   9.146  0.00  0.00    +0.067 A 
ATOM     10  C   LIG    1       32.607 -17.018  10.024  0.00  0.00    +0.028 A 
ATOM     11  C   LIG    1       31.923 -16.470  11.104  0.00  0.00    +0.002 A 
ATOM     12  C   LIG    1       30.553 -16.722  11.272  0.00  0.00    +0.002 A 
ATOM     13  N   LIG    1       32.352 -18.447   8.026  0.00  0.00    -0.306 N 
ATOM     14  H   LIG    1       33.298 -18.458   7.680  0.00  0.00    +0.171 HD
ATOM     15  C   LIG    1       29.843 -17.522  10.362  0.00  0.00    +0.028 A 
ATOM     16  C   LIG    1       31.312 -19.148   7.413  0.00  0.00    +0.332 C 
ATOM     17  O   LIG    1       31.481 -19.827   6.410  0.00  0.00    -0.246 OA
ENDBRANCH   4   7
BRANCH   1  18
ATOM     18  C   LIG    1       27.084 -22.310   7.097  0.00  0.00    +0.085 C 
BRANCH  18  19
ATOM     19  C   LIG    1       26.139 -23.416   7.594  0.00  0.00    +0.023 C 
BRANCH  19  20
ATOM     20  C   LIG    1       25.349 -24.057   6.454  0.00  0.00    +0.081 C 
BRANCH  20  22
ATOM     21  O   LIG    1       22.949 -24.128   6.775  0.00  0.00    -0.292 OA
ATOM     22  C   LIG    1       23.929 -23.527   6.341  0.00  0.00    +0.163 C 
BRANCH  22  23
ATOM     23  C   LIG    1       23.740 -22.184   5.712  0.00  0.00    +0.018 A 
ATOM     24  C   LIG    1       24.333 -21.932   4.466  0.00  0.00    +0.014 A 
ATOM     25  C   LIG    1       24.143 -20.699   3.837  0.00  0.00    +0.039 A 
ATOM     26  C   LIG    1       23.378 -19.720   4.461  0.00  0.00    +0.123 A 
ATOM     27  F   LIG    1       23.192 -18.540   3.857  0.00  0.00    -0.205 F 
ATOM     28  C   LIG    1       22.800 -19.949   5.706  0.00  0.00    +0.039 A 
ATOM     29  C   LIG    1       22.978 -21.184   6.332  0.00  0.00    +0.014 A 
ENDBRANCH  22  23
ENDBRANCH  20  22
ENDBRANCH  19  20
ENDBRANCH  18  19
ENDBRANCH   1  18
TORSDOF 6
ENDMDL
MODEL 3
REMARK VINA RESULT:      -9.2      5.701      7.722
REMARK  Name = *****
REMARK                            x       y       z     vdW  Elec       q    Type
REMARK                         _______ _______ _______ _____ _____    ______ ____
ROOT
ATOM      1  N   LIG    1       25.395 -25.561   5.063  0.00  0.00    -0.298 NA
ATOM      2  C   LIG    1       24.058 -26.044   5.440  0.00  0.00    +0.090 C 
ATOM      3  C   LIG    1       24.057 -27.043   6.610  0.00  0.00    +0.069 C 
ATOM      4  C   LIG    1       25.168 -28.090   6.539  0.00  0.00    +0.027 C 
ATOM      5  C   LIG    1       26.116 -27.907   5.600  0.00  0.00    +0.010 C 
ATOM      6  C   LIG    1       26.202 -26.724   4.672  0.00  0.00    +0.113 C 
ENDROOT
BRANCH   4   7
ATOM      7  N   LIG    1       25.114 -29.168   7.434  0.00  0.00    -0.265 N 
ATOM      8  C   LIG    1       25.733 -29.367   8.713  0.00  0.00    +0.074 A 
ATOM      9  C   LIG    1       25.373 -30.632   9.185  0.00  0.00    +0.067 A 
ATOM     10  C   LIG    1       25.791 -31.161  10.391  0.00  0.00    +0.028 A 
ATOM     11  C   LIG    1       26.622 -30.369  11.177  0.00  0.00    +0.002 A 
ATOM     12  C   LIG    1       26.997 -29.090  10.740  0.00  0.00    +0.002 A 
ATOM     13  N   LIG    1       24.540 -31.231   8.263  0.00  0.00    -0.306 N 
ATOM     14  H   LIG    1       24.106 -32.137   8.329  0.00  0.00    +0.171 HD
ATOM     15  C   LIG    1       26.551 -28.582   9.509  0.00  0.00    +0.028 A 
ATOM     16  C   LIG    1       24.338 -30.369   7.183  0.00  0.00    +0.332 C 
ATOM     17  O   LIG    1       23.616 -30.660   6.239  0.00  0.00    -0.246 OA
ENDBRANCH   4   7
BRANCH   1  18
ATOM     18  C   LIG    1       26.066 -24.774   6.116  0.00  0.00    +0.085 C 
BRANCH  18  19
ATOM     19  C   LIG    1       25.170 -23.736   6.812  0.00  0.00    +0.023 C 
BRANCH  19  20
ATOM     20  C   LIG    1       25.967 -22.798   7.717  0.00  0.00    +0.081 C 
BRANCH  20  22
ATOM     21  O   LIG    1       25.337 -20.773   8.887  0.00  0.00    -0.292 OA
ATOM     22  C   LIG    1       25.342 -21.418   7.842  0.00  0.00    +0.163 C 
BRANCH  22  23
ATOM     23  C   LIG    1       24.752 -20.812   6.609  0.00  0.00    +0.018 A 
ATOM     24  C   LIG    1       23.379 -20.530   6.585  0.00  0.00    +0.014 A 
ATOM     25  C   LIG    1       22.807 -19.930   5.460  0.00  0.00    +0.039 A 
ATOM     26  C   LIG    1       23.604 -19.630   4.361  0.00  0.00    +0.123 A 
ATOM     27  F   LIG    1       23.058 -19.052   3.284  0.00  0.00    -0.205 F 
ATOM     28  C   LIG    1       24.965 -19.922   4.364  0.00  0.00    +0.039 A 
ATOM     29  C   LIG    1       25.542 -20.512   5.490  0.00  0.00    +0.014 A 
ENDBRANCH  22  23
ENDBRANCH  20  22
ENDBRANCH  19  20
ENDBRANCH  18  19
ENDBRANCH   1  18
TORSDOF 6
ENDMDL
MODEL 4
REMARK VINA RESULT:      -9.1      6.036      8.171
REMARK  Name = *****
REMARK                            x       y       z     vdW  Elec       q    Type
REMARK                         _______ _______ _______ _____ _____    ______ ____
ROOT
ATOM      1  N   LIG    1       25.431 -25.804   5.954  0.00  0.00    -0.298 NA
ATOM      2  C   LIG    1       25.577 -26.700   4.797  0.00  0.00    +0.090 C 
ATOM      3  C   LIG    1       24.927 -28.082   4.985  0.00  0.00    +0.069 C 
ATOM      4  C   LIG    1       25.161 -28.699   6.363  0.00  0.00    +0.027 C 
ATOM      5  C   LIG    1       25.720 -27.906   7.297  0.00  0.00    +0.010 C 
ATOM      6  C   LIG    1       26.062 -26.452   7.110  0.00  0.00    +0.113 C 
ENDROOT
BRANCH   4   7
ATOM      7  N   LIG    1       24.799 -30.041   6.553  0.00  0.00    -0.265 N 
ATOM      8  C   LIG    1       25.091 -31.217   5.785  0.00  0.00    +0.074 A 
ATOM      9  C   LIG    1       24.470 -32.309   6.399  0.00  0.00    +0.067 A 
ATOM     10  C   LIG    1       24.536 -33.606   5.929  0.00  0.00    +0.028 A 
ATOM     11  C   LIG    1       25.275 -33.825   4.770  0.00  0.00    +0.002 A 
ATOM     12  C   LIG    1       25.919 -32.754   4.133  0.00  0.00    +0.002 A 
ATOM     13  N   LIG    1       23.813 -31.870   7.529  0.00  0.00    -0.306 N 
ATOM     14  H   LIG    1       23.288 -32.425   8.185  0.00  0.00    +0.171 HD
ATOM     15  C   LIG    1       25.834 -31.448   4.640  0.00  0.00    +0.028 A 
ATOM     16  C   LIG    1       23.997 -30.495   7.676  0.00  0.00    +0.332 C 
ATOM     17  O   LIG    1       23.531 -29.868   8.618  0.00  0.00    -0.246 OA
ENDBRANCH   4   7
BRANCH   1  18
ATOM     18  C   LIG    1       24.034 -25.429   6.247  0.00  0.00    +0.085 C 
BRANCH  18  19
ATOM     19  C   LIG    1       23.815 -23.933   6.529  0.00  0.00    +0.023 C 
BRANCH  19  20
ATOM     20  C   LIG    1       25.019 -23.292   7.217  0.00  0.00    +0.081 C 
BRANCH  20  22
ATOM     21  O   LIG    1       25.114 -21.242   8.503  0.00  0.00    -0.292 OA
ATOM     22  C   LIG    1       24.851 -21.798   7.440  0.00  0.00    +0.163 C 
BRANCH  22  23
ATOM     23  C   LIG    1       24.388 -20.974   6.282  0.00  0.00    +0.018 A 
ATOM     24  C   LIG    1       23.092 -20.437   6.309  0.00  0.00    +0.014 A 
ATOM     25  C   LIG    1       22.645 -19.632   5.258  0.00  0.00    +0.039 A 
ATOM     26  C   LIG    1       23.486 -19.381   4.179  0.00  0.00    +0.123 A 
ATOM     27  F   LIG    1       23.061 -18.608   3.173  0.00  0.00    -0.205 F 
ATOM     28  C   LIG    1       24.767 -19.924   4.130  0.00  0.00    +0.039 A 
ATOM     29  C   LIG    1       25.221 -20.719   5.183  0.00  0.00    +0.014 A 
ENDBRANCH  22  23
ENDBRANCH  20  22
ENDBRANCH  19  20
ENDBRANCH  18  19
ENDBRANCH   1  18
TORSDOF 6
ENDMDL
MODEL 5
REMARK VINA RESULT:      -9.0      6.000      8.299
REMARK  Name = *****
REMARK                            x       y       z     vdW  Elec       q    Type
REMARK                         _______ _______ _______ _____ _____    ______ ____
ROOT
ATOM      1  N   LIG    1       25.387 -25.816   5.937  0.00  0.00    -0.298 NA
ATOM      2  C   LIG    1       25.403 -26.765   4.813  0.00  0.00    +0.090 C 
ATOM      3  C   LIG    1       24.785 -28.136   5.138  0.00  0.00    +0.069 C 
ATOM      4  C   LIG    1       25.178 -28.689   6.507  0.00  0.00    +0.027 C 
ATOM      5  C   LIG    1       25.836 -27.854   7.334  0.00  0.00    +0.010 C 
ATOM      6  C   LIG    1       26.148 -26.411   7.042  0.00  0.00    +0.113 C 
ENDROOT
BRANCH   4   7
ATOM      7  N   LIG    1       24.845 -30.020   6.799  0.00  0.00    -0.265 N 
ATOM      8  C   LIG    1       24.156 -30.600   7.916  0.00  0.00    +0.074 A 
ATOM      9  C   LIG    1       24.105 -31.985   7.731  0.00  0.00    +0.067 A 
ATOM     10  C   LIG    1       23.515 -32.866   8.616  0.00  0.00    +0.028 A 
ATOM     11  C   LIG    1       22.935 -32.325   9.760  0.00  0.00    +0.002 A 
ATOM     12  C   LIG    1       22.960 -30.939   9.974  0.00  0.00    +0.002 A 
ATOM     13  N   LIG    1       24.719 -32.298   6.537  0.00  0.00    -0.306 N 
ATOM     14  H   LIG    1       24.827 -33.211   6.126  0.00  0.00    +0.171 HD
ATOM     15  C   LIG    1       23.566 -30.071   9.051  0.00  0.00    +0.028 A 
ATOM     16  C   LIG    1       25.174 -31.130   5.922  0.00  0.00    +0.332 C 
ATOM     17  O   LIG    1       25.735 -31.138   4.835  0.00  0.00    -0.246 OA
ENDBRANCH   4   7
BRANCH   1  18
ATOM     18  C   LIG    1       24.031 -25.427   6.370  0.00  0.00    +0.085 C 
BRANCH  18  19
ATOM     19  C   LIG    1       23.836 -23.919   6.598  0.00  0.00    +0.023 C 
BRANCH  19  20
ATOM     20  C   LIG    1       25.055 -23.270   7.253  0.00  0.00    +0.081 C 
BRANCH  20  22
ATOM     21  O   LIG    1       25.136 -21.241   8.573  0.00  0.00    -0.292 OA
ATOM     22  C   LIG    1       24.877 -21.782   7.501  0.00  0.00    +0.163 C 
BRANCH  22  23
ATOM     23  C   LIG    1       24.407 -20.942   6.357  0.00  0.00    +0.018 A 
ATOM     24  C   LIG    1       25.294 -20.678   5.303  0.00  0.00    +0.014 A 
ATOM     25  C   LIG    1       24.870 -19.927   4.203  0.00  0.00    +0.039 A 
ATOM     26  C   LIG    1       23.572 -19.429   4.170  0.00  0.00    +0.123 A 
ATOM     27  F   LIG    1       23.165 -18.712   3.116  0.00  0.00    -0.205 F 
ATOM     28  C   LIG    1       22.688 -19.666   5.218  0.00  0.00    +0.039 A 
ATOM     29  C   LIG    1       23.104 -20.425   6.313  0.00  0.00    +0.014 A 
ENDBRANCH  22  23
ENDBRANCH  20  22
ENDBRANCH  19  20
ENDBRANCH  18  19
ENDBRANCH   1  18
TORSDOF 6
ENDMDL
MODEL 6
REMARK VINA RESULT:      -8.9      5.000      9.257
REMARK  Name = *****
REMARK                            x       y       z     vdW  Elec       q    Type
REMARK                         _______ _______ _______ _____ _____    ______ ____
ROOT
ATOM      1  N   LIG    1       25.646 -27.764   5.236  0.00  0.00    -0.298 NA
ATOM      2  C   LIG    1       26.480 -27.270   6.342  0.00  0.00    +0.090 C 
ATOM      3  C   LIG    1       25.886 -26.061   7.086  0.00  0.00    +0.069 C 
ATOM      4  C   LIG    1       25.268 -25.006   6.171  0.00  0.00    +0.027 C 
ATOM      5  C   LIG    1       25.134 -25.332   4.871  0.00  0.00    +0.010 C 
ATOM      6  C   LIG    1       25.479 -26.670   4.272  0.00  0.00    +0.113 C 
ENDROOT
BRANCH   4   7
ATOM      7  N   LIG    1       24.903 -23.776   6.737  0.00  0.00    -0.265 N 
ATOM      8  C   LIG    1       25.698 -22.675   7.201  0.00  0.00    +0.074 A 
ATOM      9  C   LIG    1       24.839 -21.691   7.700  0.00  0.00    +0.067 A 
ATOM     10  C   LIG    1       25.261 -20.489   8.233  0.00  0.00    +0.028 A 
ATOM     11  C   LIG    1       26.632 -20.255   8.267  0.00  0.00    +0.002 A 
ATOM     12  C   LIG    1       27.523 -21.216   7.767  0.00  0.00    +0.002 A 
ATOM     13  N   LIG    1       23.537 -22.121   7.554  0.00  0.00    -0.306 N 
ATOM     14  H   LIG    1       22.698 -21.625   7.807  0.00  0.00    +0.171 HD
ATOM     15  C   LIG    1       27.059 -22.427   7.228  0.00  0.00    +0.028 A 
ATOM     16  C   LIG    1       23.522 -23.381   6.956  0.00  0.00    +0.332 C 
ATOM     17  O   LIG    1       22.482 -23.971   6.696  0.00  0.00    -0.246 OA
ENDBRANCH   4   7
BRANCH   1  18
ATOM     18  C   LIG    1       24.340 -28.301   5.666  0.00  0.00    +0.085 C 
BRANCH  18  19
ATOM     19  C   LIG    1       24.377 -29.754   6.169  0.00  0.00    +0.023 C 
BRANCH  19  20
ATOM     20  C   LIG    1       24.127 -29.852   7.674  0.00  0.00    +0.081 C 
BRANCH  20  22
ATOM     21  O   LIG    1       26.205 -31.026   8.082  0.00  0.00    -0.292 OA
ATOM     22  C   LIG    1       25.377 -30.202   8.463  0.00  0.00    +0.163 C 
BRANCH  22  23
ATOM     23  C   LIG    1       25.619 -29.463   9.740  0.00  0.00    +0.018 A 
ATOM     24  C   LIG    1       24.754 -29.682  10.822  0.00  0.00    +0.014 A 
ATOM     25  C   LIG    1       24.977 -29.033  12.039  0.00  0.00    +0.039 A 
ATOM     26  C   LIG    1       26.051 -28.158  12.165  0.00  0.00    +0.123 A 
ATOM     27  F   LIG    1       26.267 -27.538  13.331  0.00  0.00    -0.205 F 
ATOM     28  C   LIG    1       26.905 -27.916  11.093  0.00  0.00    +0.039 A 
ATOM     29  C   LIG    1       26.692 -28.571   9.879  0.00  0.00    +0.014 A 
ENDBRANCH  22  23
ENDBRANCH  20  22
ENDBRANCH  19  20
ENDBRANCH  18  19
ENDBRANCH   1  18
TORSDOF 6
ENDMDL
MODEL 7
REMARK VINA RESULT:      -8.9      4.001      6.401
REMARK  Name = *****
REMARK                            x       y       z     vdW  Elec       q    Type
REMARK                         _______ _______ _______ _____ _____    ______ ____
ROOT
ATOM      1  N   LIG    1       24.815 -24.305   5.865  0.00  0.00    -0.298 NA
ATOM      2  C   LIG    1       24.585 -25.394   4.904  0.00  0.00    +0.090 C 
ATOM      3  C   LIG    1       24.297 -26.758   5.555  0.00  0.00    +0.069 C 
ATOM      4  C   LIG    1       25.191 -27.079   6.752  0.00  0.00    +0.027 C 
ATOM      5  C   LIG    1       25.969 -26.082   7.214  0.00  0.00    +0.010 C 
ATOM      6  C   LIG    1       25.972 -24.669   6.692  0.00  0.00    +0.113 C 
ENDROOT
BRANCH   4   7
ATOM      7  N   LIG    1       25.155 -28.382   7.270  0.00  0.00    -0.265 N 
ATOM      8  C   LIG    1       25.798 -28.964   8.413  0.00  0.00    +0.074 A 
ATOM      9  C   LIG    1       25.446 -30.315   8.476  0.00  0.00    +0.067 A 
ATOM     10  C   LIG    1       25.886 -31.189   9.451  0.00  0.00    +0.028 A 
ATOM     11  C   LIG    1       26.733 -30.675  10.429  0.00  0.00    +0.002 A 
ATOM     12  C   LIG    1       27.099 -29.321  10.402  0.00  0.00    +0.002 A 
ATOM     13  N   LIG    1       24.596 -30.603   7.429  0.00  0.00    -0.306 N 
ATOM     14  H   LIG    1       24.164 -31.488   7.219  0.00  0.00    +0.171 HD
ATOM     15  C   LIG    1       26.630 -28.459   9.398  0.00  0.00    +0.028 A 
ATOM     16  C   LIG    1       24.374 -29.451   6.673  0.00  0.00    +0.332 C 
ATOM     17  O   LIG    1       23.634 -29.440   5.698  0.00  0.00    -0.246 OA
ENDBRANCH   4   7
BRANCH   1  18
ATOM     18  C   LIG    1       23.640 -23.986   6.699  0.00  0.00    +0.085 C 
BRANCH  18  19
ATOM     19  C   LIG    1       22.996 -22.620   6.408  0.00  0.00    +0.023 C 
BRANCH  19  20
ATOM     20  C   LIG    1       24.019 -21.585   5.941  0.00  0.00    +0.081 C 
BRANCH  20  22
ATOM     21  O   LIG    1       24.208 -20.618   8.153  0.00  0.00    -0.292 OA
ATOM     22  C   LIG    1       24.750 -20.910   7.090  0.00  0.00    +0.163 C 
BRANCH  22  23
ATOM     23  C   LIG    1       26.209 -20.640   6.918  0.00  0.00    +0.018 A 
ATOM     24  C   LIG    1       27.085 -20.961   7.966  0.00  0.00    +0.014 A 
ATOM     25  C   LIG    1       28.459 -20.753   7.819  0.00  0.00    +0.039 A 
ATOM     26  C   LIG    1       28.950 -20.211   6.635  0.00  0.00    +0.123 A 
ATOM     27  F   LIG    1       30.266 -20.015   6.492  0.00  0.00    -0.205 F 
ATOM     28  C   LIG    1       28.090 -19.869   5.595  0.00  0.00    +0.039 A 
ATOM     29  C   LIG    1       26.718 -20.086   5.734  0.00  0.00    +0.014 A 
ENDBRANCH  22  23
ENDBRANCH  20  22
ENDBRANCH  19  20
ENDBRANCH  18  19
ENDBRANCH   1  18
TORSDOF 6
ENDMDL
MODEL 8
REMARK VINA RESULT:      -8.8      4.461      9.595
REMARK  Name = *****
REMARK                            x       y       z     vdW  Elec       q    Type
REMARK                         _______ _______ _______ _____ _____    ______ ____
ROOT
ATOM      1  N   LIG    1       24.157 -21.663   5.651  0.00  0.00    -0.298 NA
ATOM      2  C   LIG    1       24.592 -20.637   4.691  0.00  0.00    +0.090 C 
ATOM      3  C   LIG    1       26.105 -20.357   4.713  0.00  0.00    +0.069 C 
ATOM      4  C   LIG    1       26.706 -20.281   6.115  0.00  0.00    +0.027 C 
ATOM      5  C   LIG    1       25.913 -20.655   7.138  0.00  0.00    +0.010 C 
ATOM      6  C   LIG    1       24.518 -21.204   6.998  0.00  0.00    +0.113 C 
ENDROOT
BRANCH   4   7
ATOM      7  N   LIG    1       28.023 -19.815   6.243  0.00  0.00    -0.265 N 
ATOM      8  C   LIG    1       29.099 -20.240   7.091  0.00  0.00    +0.074 A 
ATOM      9  C   LIG    1       30.206 -19.424   6.841  0.00  0.00    +0.067 A 
ATOM     10  C   LIG    1       31.423 -19.547   7.482  0.00  0.00    +0.028 A 
ATOM     11  C   LIG    1       31.540 -20.554   8.435  0.00  0.00    +0.002 A 
ATOM     12  C   LIG    1       30.453 -21.397   8.706  0.00  0.00    +0.002 A 
ATOM     13  N   LIG    1       29.875 -18.514   5.858  0.00  0.00    -0.306 N 
ATOM     14  H   LIG    1       30.469 -17.807   5.456  0.00  0.00    +0.171 HD
ATOM     15  C   LIG    1       29.230 -21.247   8.033  0.00  0.00    +0.028 A 
ATOM     16  C   LIG    1       28.558 -18.723   5.449  0.00  0.00    +0.332 C 
ATOM     17  O   LIG    1       28.032 -18.056   4.568  0.00  0.00    -0.246 OA
ENDBRANCH   4   7
BRANCH   1  18
ATOM     18  C   LIG    1       24.704 -23.007   5.380  0.00  0.00    +0.085 C 
BRANCH  18  19
ATOM     19  C   LIG    1       24.600 -23.993   6.555  0.00  0.00    +0.023 C 
BRANCH  19  20
ATOM     20  C   LIG    1       25.824 -24.903   6.657  0.00  0.00    +0.081 C 
BRANCH  20  22
ATOM     21  O   LIG    1       25.951 -26.150   4.586  0.00  0.00    -0.292 OA
ATOM     22  C   LIG    1       25.715 -26.146   5.791  0.00  0.00    +0.163 C 
BRANCH  22  23
ATOM     23  C   LIG    1       25.350 -27.429   6.466  0.00  0.00    +0.018 A 
ATOM     24  C   LIG    1       24.455 -28.299   5.826  0.00  0.00    +0.014 A 
ATOM     25  C   LIG    1       24.124 -29.522   6.417  0.00  0.00    +0.039 A 
ATOM     26  C   LIG    1       24.674 -29.862   7.647  0.00  0.00    +0.123 A 
ATOM     27  F   LIG    1       24.360 -31.034   8.212  0.00  0.00    -0.205 F 
ATOM     28  C   LIG    1       25.549 -29.000   8.303  0.00  0.00    +0.039 A 
ATOM     29  C   LIG    1       25.890 -27.783   7.711  0.00  0.00    +0.014 A 
ENDBRANCH  22  23
ENDBRANCH  20  22
ENDBRANCH  19  20
ENDBRANCH  18  19
ENDBRANCH   1  18
TORSDOF 6
ENDMDL
MODEL 9
REMARK VINA RESULT:      -8.6      4.338      6.950
REMARK  Name = *****
REMARK                            x       y       z     vdW  Elec       q    Type
REMARK                         _______ _______ _______ _____ _____    ______ ____
ROOT
ATOM      1  N   LIG    1       24.975 -24.952   5.743  0.00  0.00    -0.298 NA
ATOM      2  C   LIG    1       24.264 -26.085   5.132  0.00  0.00    +0.090 C 
ATOM      3  C   LIG    1       24.104 -27.302   6.059  0.00  0.00    +0.069 C 
ATOM      4  C   LIG    1       25.353 -27.637   6.872  0.00  0.00    +0.027 C 
ATOM      5  C   LIG    1       26.358 -26.740   6.839  0.00  0.00    +0.010 C 
ATOM      6  C   LIG    1       26.314 -25.414   6.127  0.00  0.00    +0.113 C 
ENDROOT
BRANCH   4   7
ATOM      7  N   LIG    1       25.377 -28.851   7.574  0.00  0.00    -0.265 N 
ATOM      8  C   LIG    1       24.869 -30.149   7.235  0.00  0.00    +0.074 A 
ATOM      9  C   LIG    1       25.134 -31.017   8.298  0.00  0.00    +0.067 A 
ATOM     10  C   LIG    1       24.782 -32.353   8.318  0.00  0.00    +0.028 A 
ATOM     11  C   LIG    1       24.122 -32.852   7.198  0.00  0.00    +0.002 A 
ATOM     12  C   LIG    1       23.848 -32.012   6.109  0.00  0.00    +0.002 A 
ATOM     13  N   LIG    1       25.802 -30.322   9.284  0.00  0.00    -0.306 N 
ATOM     14  H   LIG    1       26.139 -30.681  10.163  0.00  0.00    +0.171 HD
ATOM     15  C   LIG    1       24.224 -30.659   6.121  0.00  0.00    +0.028 A 
ATOM     16  C   LIG    1       25.989 -28.999   8.882  0.00  0.00    +0.332 C 
ATOM     17  O   LIG    1       26.579 -28.181   9.575  0.00  0.00    -0.246 OA
ENDBRANCH   4   7
BRANCH   1  18
ATOM     18  C   LIG    1       24.267 -24.351   6.890  0.00  0.00    +0.085 C 
BRANCH  18  19
ATOM     19  C   LIG    1       23.083 -23.446   6.512  0.00  0.00    +0.023 C 
BRANCH  19  20
ATOM     20  C   LIG    1       23.032 -22.175   7.359  0.00  0.00    +0.081 C 
BRANCH  20  22
ATOM     21  O   LIG    1       22.879 -20.177   5.999  0.00  0.00    -0.292 OA
ATOM     22  C   LIG    1       23.582 -20.956   6.637  0.00  0.00    +0.163 C 
BRANCH  22  23
ATOM     23  C   LIG    1       25.046 -20.681   6.762  0.00  0.00    +0.018 A 
ATOM     24  C   LIG    1       25.631 -20.695   8.036  0.00  0.00    +0.014 A 
ATOM     25  C   LIG    1       27.004 -20.478   8.179  0.00  0.00    +0.039 A 
ATOM     26  C   LIG    1       27.782 -20.232   7.053  0.00  0.00    +0.123 A 
ATOM     27  F   LIG    1       29.097 -20.027   7.188  0.00  0.00    -0.205 F 
ATOM     28  C   LIG    1       27.211 -20.195   5.784  0.00  0.00    +0.039 A 
ATOM     29  C   LIG    1       25.842 -20.423   5.636  0.00  0.00    +0.014 A 
ENDBRANCH  22  23
ENDBRANCH  20  22
ENDBRANCH  19  20
ENDBRANCH  18  19
ENDBRANCH   1  18
TORSDOF 6
ENDMDL
