MODEL 1
REMARK VINA RESULT:      15.7      0.000      0.000
REMARK  Name = *****
REMARK                            x       y       z     vdW  Elec       q    Type
REMARK                         _______ _______ _______ _____ _____    ______ ____
ROOT
ATOM      1  C   LIG    1       24.742 -14.864   3.273  0.00  0.00    +0.272 C 
ATOM      2  C   LIG    1       23.765 -15.084   4.503  0.00  0.00    +0.144 C 
ATOM      3  N   LIG    1       23.002 -13.821   4.798  0.00  0.00    -0.282 NA
ATOM      4  C   LIG    1       22.313 -13.349   3.568  0.00  0.00    +0.113 C 
ATOM      5  C   LIG    1       23.136 -13.384   2.267  0.00  0.00    +0.178 C 
ATOM      6  O   LIG    1       23.962 -14.544   2.105  0.00  0.00    -0.348 OA
ENDROOT
BRANCH   2   7
ATOM      7  C   LIG    1       22.831 -16.315   4.341  0.00  0.00    -0.025 A 
ATOM      8  C   LIG    1       22.893 -17.393   5.244  0.00  0.00    +0.008 A 
ATOM      9  C   LIG    1       22.099 -18.530   5.104  0.00  0.00    +0.039 A 
ATOM     10  C   LIG    1       21.232 -18.623   4.034  0.00  0.00    +0.123 A 
ATOM     11  F   LIG    1       20.494 -19.728   3.878  0.00  0.00    -0.205 F 
ATOM     12  C   LIG    1       21.109 -17.574   3.138  0.00  0.00    +0.039 A 
ATOM     13  C   LIG    1       21.864 -16.411   3.321  0.00  0.00    +0.008 A 
ENDBRANCH   2   7
BRANCH   1  14
ATOM     14  O   LIG    1       25.633 -15.943   2.944  0.00  0.00    -0.342 OA
BRANCH  14  16
ATOM     15  C   LIG    1       28.054 -15.977   3.387  0.00  0.00    +0.043 C 
ATOM     16  C   LIG    1       26.655 -16.313   3.880  0.00  0.00    +0.148 C 
BRANCH  16  17
ATOM     17  C   LIG    1       26.551 -17.816   4.172  0.00  0.00    -0.018 A 
ATOM     18  C   LIG    1       25.476 -18.575   3.665  0.00  0.00    +0.018 A 
ATOM     19  C   LIG    1       25.320 -19.939   3.987  0.00  0.00    +0.056 A 
ATOM     20  C   LIG    1       26.258 -20.545   4.836  0.00  0.00    +0.024 A 
ATOM     21  C   LIG    1       27.358 -19.826   5.326  0.00  0.00    +0.056 A 
ATOM     22  C   LIG    1       27.491 -18.466   4.992  0.00  0.00    +0.018 A 
BRANCH  19  23
ATOM     23  C   LIG    1       24.166 -20.745   3.429  0.00  0.00    +0.417 C 
ATOM     24  F   LIG    1       23.171 -19.956   2.935  0.00  0.00    -0.166 F 
ATOM     25  F   LIG    1       23.584 -21.545   4.364  0.00  0.00    -0.166 F 
ATOM     26  F   LIG    1       24.525 -21.571   2.406  0.00  0.00    -0.166 F 
ENDBRANCH  19  23
BRANCH  21  27
ATOM     27  C   LIG    1       28.361 -20.498   6.234  0.00  0.00    +0.417 C 
ATOM     28  F   LIG    1       29.014 -19.622   7.050  0.00  0.00    -0.166 F 
ATOM     29  F   LIG    1       29.333 -21.148   5.536  0.00  0.00    -0.166 F 
ATOM     30  F   LIG    1       27.803 -21.425   7.058  0.00  0.00    -0.166 F 
ENDBRANCH  21  27
ENDBRANCH  16  17
ENDBRANCH  14  16
ENDBRANCH   1  14
BRANCH   3  31
ATOM     31  C   LIG    1       23.806 -12.715   5.360  0.00  0.00    +0.161 C 
BRANCH  31  32
ATOM     32  C   LIG    1       25.157 -12.548   4.700  0.00  0.00    +0.146 C 
ATOM     33  N   LIG    1       25.205 -12.056   3.427  0.00  0.00    -0.292 N 
ATOM     34  H   LIG    1       24.455 -11.728   2.845  0.00  0.00    +0.172 HD
ATOM     35  C   LIG    1       26.512 -11.927   3.119  0.00  0.00    +0.353 C 
ATOM     36  O   LIG    1       26.914 -11.483   2.045  0.00  0.00    -0.244 OA
ATOM     37  N   LIG    1       27.215 -12.395   4.206  0.00  0.00    -0.113 N 
ATOM     38  N   LIG    1       26.314 -12.760   5.218  0.00  0.00    -0.143 NA
BRANCH  37  39
ATOM     39  P   LIG    1       28.879 -12.317   4.371  0.00  0.00    +0.457 P 
ATOM     40  O   LIG    1       29.475 -11.737   5.603  0.00  0.00    -0.233 OA
BRANCH  39  41
ATOM     41  O   LIG    1       29.455 -11.555   3.077  0.00  0.00    -0.307 OA
ATOM     42  H   LIG    1       28.983 -11.804   2.264  0.00  0.00    +0.222 HD
ENDBRANCH  39  41
BRANCH  39  43
ATOM     43  O   LIG    1       29.475 -13.792   4.124  0.00  0.00    -0.307 OA
ATOM     44  H   LIG    1       29.516 -14.302   4.951  0.00  0.00    +0.222 HD
ENDBRANCH  39  43
ENDBRANCH  37  39
ENDBRANCH  31  32
ENDBRANCH   3  31
TORSDOF 11
ENDMDL
