MODEL 1
REMARK VINA RESULT:      -9.4      0.000      0.000
REMARK  Name = *****
REMARK                            x       y       z     vdW  Elec       q    Type
REMARK                         _______ _______ _______ _____ _____    ______ ____
ROOT
ATOM      1  C   LIG    1       22.670 -19.905   6.121  0.00  0.00    +0.028 C 
ATOM      2  C   LIG    1       23.314 -21.111   5.420  0.00  0.00    +0.078 C 
ATOM      3  N   LIG    1       24.747 -21.197   5.718  0.00  0.00    -0.266 N 
ATOM      4  C   LIG    1       25.141 -21.806   6.985  0.00  0.00    +0.228 C 
ATOM      5  C   LIG    1       26.636 -22.165   7.011  0.00  0.00    +0.173 C 
ATOM      6  N   LIG    1       27.453 -21.005   6.638  0.00  0.00    -0.335 NA
ATOM      7  C   LIG    1       27.004 -20.141   5.629  0.00  0.00    +0.150 C 
ATOM      8  C   LIG    1       27.760 -19.131   5.138  0.00  0.00    +0.194 C 
ATOM      9  C   LIG    1       29.126 -18.924   5.737  0.00  0.00    +0.236 C 
ATOM     10  O   LIG    1       29.849 -17.997   5.373  0.00  0.00    -0.283 OA
ATOM     11  C   LIG    1       29.577 -19.858   6.803  0.00  0.00    +0.103 C 
ATOM     12  C   LIG    1       28.726 -20.831   7.160  0.00  0.00    +0.103 C 
ATOM     13  O   LIG    1       24.422 -23.023   7.201  0.00  0.00    -0.357 OA
ATOM     14  C   LIG    1       23.011 -22.865   7.163  0.00  0.00    +0.164 C 
ATOM     15  C   LIG    1       25.597 -20.298   5.078  0.00  0.00    +0.269 C 
ATOM     16  O   LIG    1       25.236 -19.616   4.117  0.00  0.00    -0.268 OA
ATOM     17  C   LIG    1       22.603 -22.412   5.777  0.00  0.00    +0.050 C 
ENDROOT
BRANCH  11  18
ATOM     18  C   LIG    1       30.871 -19.750   7.533  0.00  0.00    +0.250 C 
ATOM     19  N   LIG    1       31.319 -18.472   7.734  0.00  0.00    -0.307 N 
ATOM     20  H   LIG    1       30.845 -17.706   7.255  0.00  0.00    +0.149 HD
ATOM     21  O   LIG    1       31.455 -20.744   7.957  0.00  0.00    -0.270 OA
BRANCH  19  22
ATOM     22  C   LIG    1       32.528 -18.169   8.460  0.00  0.00    +0.143 C 
BRANCH  22  23
ATOM     23  C   LIG    1       32.235 -17.447   9.743  0.00  0.00    +0.005 C 
ATOM     24  C   LIG    1       31.146 -17.824  10.534  0.00  0.00    +0.131 C 
ATOM     25  F   LIG    1       30.370 -18.850  10.155  0.00  0.00    -0.205 F 
ATOM     26  C   LIG    1       30.846 -17.160  11.717  0.00  0.00    +0.077 C 
ATOM     27  C   LIG    1       31.648 -16.098  12.111  0.00  0.00    +0.126 C 
ATOM     28  F   LIG    1       31.374 -15.449  13.250  0.00  0.00    -0.205 F 
ATOM     29  C   LIG    1       32.733 -15.691  11.341  0.00  0.00    +0.039 C 
ATOM     30  C   LIG    1       33.025 -16.362  10.152  0.00  0.00    +0.011 C 
ENDBRANCH  22  23
ENDBRANCH  19  22
ENDBRANCH  11  18
BRANCH   8  31
ATOM     31  O   LIG    1       27.373 -18.249   4.140  0.00  0.00    -0.502 OA
ATOM     32  H   LIG    1       27.891 -18.450   3.329  0.00  0.00    +0.292 HD
ENDBRANCH   8  31
TORSDOF 4
ENDMDL
MODEL 2
REMARK VINA RESULT:      -9.4      6.985     10.204
REMARK  Name = *****
REMARK                            x       y       z     vdW  Elec       q    Type
REMARK                         _______ _______ _______ _____ _____    ______ ____
ROOT
ATOM      1  C   LIG    1       22.473 -31.744  11.247  0.00  0.00    +0.028 C 
ATOM      2  C   LIG    1       23.917 -32.179  10.956  0.00  0.00    +0.078 C 
ATOM      3  N   LIG    1       24.596 -31.220  10.079  0.00  0.00    -0.266 N 
ATOM      4  C   LIG    1       25.151 -30.016  10.690  0.00  0.00    +0.228 C 
ATOM      5  C   LIG    1       26.133 -29.295   9.753  0.00  0.00    +0.173 C 
ATOM      6  N   LIG    1       25.518 -29.057   8.442  0.00  0.00    -0.335 NA
ATOM      7  C   LIG    1       24.680 -30.034   7.887  0.00  0.00    +0.150 C 
ATOM      8  C   LIG    1       24.185 -29.948   6.630  0.00  0.00    +0.194 C 
ATOM      9  C   LIG    1       24.536 -28.727   5.822  0.00  0.00    +0.236 C 
ATOM     10  O   LIG    1       24.084 -28.559   4.689  0.00  0.00    -0.283 OA
ATOM     11  C   LIG    1       25.430 -27.709   6.435  0.00  0.00    +0.103 C 
ATOM     12  C   LIG    1       25.867 -27.953   7.680  0.00  0.00    +0.103 C 
ATOM     13  O   LIG    1       25.880 -30.347  11.875  0.00  0.00    -0.357 OA
ATOM     14  C   LIG    1       25.115 -31.063  12.834  0.00  0.00    +0.164 C 
ATOM     15  C   LIG    1       24.260 -31.229   8.727  0.00  0.00    +0.269 C 
ATOM     16  O   LIG    1       23.616 -32.145   8.211  0.00  0.00    -0.268 OA
ATOM     17  C   LIG    1       24.707 -32.396  12.242  0.00  0.00    +0.050 C 
ENDROOT
BRANCH  11  18
ATOM     18  C   LIG    1       25.820 -26.425   5.790  0.00  0.00    +0.250 C 
ATOM     19  N   LIG    1       24.809 -25.511   5.656  0.00  0.00    -0.307 N 
ATOM     20  H   LIG    1       23.852 -25.809   5.850  0.00  0.00    +0.149 HD
ATOM     21  O   LIG    1       26.980 -26.201   5.453  0.00  0.00    -0.270 OA
BRANCH  19  22
ATOM     22  C   LIG    1       25.007 -24.197   5.098  0.00  0.00    +0.143 C 
BRANCH  22  23
ATOM     23  C   LIG    1       25.180 -23.161   6.170  0.00  0.00    +0.005 C 
ATOM     24  C   LIG    1       24.633 -21.884   6.015  0.00  0.00    +0.131 C 
ATOM     25  F   LIG    1       23.931 -21.589   4.911  0.00  0.00    -0.205 F 
ATOM     26  C   LIG    1       24.794 -20.904   6.987  0.00  0.00    +0.077 C 
ATOM     27  C   LIG    1       25.520 -21.208   8.130  0.00  0.00    +0.126 C 
ATOM     28  F   LIG    1       25.682 -20.275   9.077  0.00  0.00    -0.205 F 
ATOM     29  C   LIG    1       26.086 -22.466   8.311  0.00  0.00    +0.039 C 
ATOM     30  C   LIG    1       25.922 -23.443   7.327  0.00  0.00    +0.011 C 
ENDBRANCH  22  23
ENDBRANCH  19  22
ENDBRANCH  11  18
BRANCH   8  31
ATOM     31  O   LIG    1       23.357 -30.883   6.026  0.00  0.00    -0.502 OA
ATOM     32  H   LIG    1       23.917 -31.515   5.522  0.00  0.00    +0.292 HD
ENDBRANCH   8  31
TORSDOF 4
ENDMDL
MODEL 3
REMARK VINA RESULT:      -8.9      4.606      9.127
REMARK  Name = *****
REMARK                            x       y       z     vdW  Elec       q    Type
REMARK                         _______ _______ _______ _____ _____    ______ ____
ROOT
ATOM      1  C   LIG    1       30.857 -19.214   5.702  0.00  0.00    +0.028 C 
ATOM      2  C   LIG    1       29.977 -18.811   6.894  0.00  0.00    +0.078 C 
ATOM      3  N   LIG    1       28.863 -19.749   7.074  0.00  0.00    -0.266 N 
ATOM      4  C   LIG    1       29.134 -20.997   7.780  0.00  0.00    +0.228 C 
ATOM      5  C   LIG    1       27.841 -21.705   8.218  0.00  0.00    +0.173 C 
ATOM      6  N   LIG    1       26.925 -21.859   7.082  0.00  0.00    -0.335 NA
ATOM      7  C   LIG    1       26.822 -20.830   6.136  0.00  0.00    +0.150 C 
ATOM      8  C   LIG    1       25.905 -20.840   5.139  0.00  0.00    +0.194 C 
ATOM      9  C   LIG    1       24.990 -22.032   5.042  0.00  0.00    +0.236 C 
ATOM     10  O   LIG    1       24.165 -22.130   4.134  0.00  0.00    -0.283 OA
ATOM     11  C   LIG    1       25.121 -23.106   6.062  0.00  0.00    +0.103 C 
ATOM     12  C   LIG    1       26.055 -22.936   7.009  0.00  0.00    +0.103 C 
ATOM     13  O   LIG    1       29.890 -20.748   8.968  0.00  0.00    -0.357 OA
ATOM     14  C   LIG    1       31.107 -20.054   8.734  0.00  0.00    +0.164 C 
ATOM     15  C   LIG    1       27.795 -19.664   6.185  0.00  0.00    +0.269 C 
ATOM     16  O   LIG    1       27.640 -18.704   5.426  0.00  0.00    -0.268 OA
ATOM     17  C   LIG    1       30.793 -18.682   8.176  0.00  0.00    +0.050 C 
ENDROOT
BRANCH  11  18
ATOM     18  C   LIG    1       24.333 -24.370   6.068  0.00  0.00    +0.250 C 
ATOM     19  N   LIG    1       24.937 -25.433   5.452  0.00  0.00    -0.307 N 
ATOM     20  H   LIG    1       25.785 -25.267   4.908  0.00  0.00    +0.149 HD
ATOM     21  O   LIG    1       23.243 -24.446   6.629  0.00  0.00    -0.270 OA
BRANCH  19  22
ATOM     22  C   LIG    1       24.348 -26.748   5.398  0.00  0.00    +0.143 C 
BRANCH  22  23
ATOM     23  C   LIG    1       24.884 -27.639   6.481  0.00  0.00    +0.005 C 
ATOM     24  C   LIG    1       24.365 -28.925   6.659  0.00  0.00    +0.131 C 
ATOM     25  F   LIG    1       23.398 -29.373   5.845  0.00  0.00    -0.205 F 
ATOM     26  C   LIG    1       24.835 -29.762   7.664  0.00  0.00    +0.077 C 
ATOM     27  C   LIG    1       25.835 -29.300   8.507  0.00  0.00    +0.126 C 
ATOM     28  F   LIG    1       26.300 -30.095   9.480  0.00  0.00    -0.205 F 
ATOM     29  C   LIG    1       26.365 -28.022   8.363  0.00  0.00    +0.039 C 
ATOM     30  C   LIG    1       25.885 -27.186   7.352  0.00  0.00    +0.011 C 
ENDBRANCH  22  23
ENDBRANCH  19  22
ENDBRANCH  11  18
BRANCH   8  31
ATOM     31  O   LIG    1       25.752 -19.851   4.178  0.00  0.00    -0.502 OA
ATOM     32  H   LIG    1       25.192 -19.137   4.554  0.00  0.00    +0.292 HD
ENDBRANCH   8  31
TORSDOF 4
ENDMDL
MODEL 4
REMARK VINA RESULT:      -8.8      6.202      9.598
REMARK  Name = *****
REMARK                            x       y       z     vdW  Elec       q    Type
REMARK                         _______ _______ _______ _____ _____    ______ ____
ROOT
ATOM      1  C   LIG    1       23.280 -32.060   8.491  0.00  0.00    +0.028 C 
ATOM      2  C   LIG    1       24.738 -32.070   8.007  0.00  0.00    +0.078 C 
ATOM      3  N   LIG    1       25.248 -30.708   7.820  0.00  0.00    -0.266 N 
ATOM      4  C   LIG    1       25.713 -29.989   9.002  0.00  0.00    +0.228 C 
ATOM      5  C   LIG    1       26.544 -28.749   8.632  0.00  0.00    +0.173 C 
ATOM      6  N   LIG    1       25.816 -27.904   7.680  0.00  0.00    -0.335 NA
ATOM      7  C   LIG    1       25.050 -28.504   6.671  0.00  0.00    +0.150 C 
ATOM      8  C   LIG    1       24.461 -27.797   5.678  0.00  0.00    +0.194 C 
ATOM      9  C   LIG    1       24.622 -26.300   5.695  0.00  0.00    +0.236 C 
ATOM     10  O   LIG    1       24.076 -25.589   4.851  0.00  0.00    -0.283 OA
ATOM     11  C   LIG    1       25.444 -25.691   6.774  0.00  0.00    +0.103 C 
ATOM     12  C   LIG    1       25.990 -26.528   7.668  0.00  0.00    +0.103 C 
ATOM     13  O   LIG    1       26.555 -30.826   9.798  0.00  0.00    -0.357 OA
ATOM     14  C   LIG    1       25.941 -32.046  10.189  0.00  0.00    +0.164 C 
ATOM     15  C   LIG    1       24.821 -30.006   6.696  0.00  0.00    +0.269 C 
ATOM     16  O   LIG    1       24.243 -30.553   5.754  0.00  0.00    -0.268 OA
ATOM     17  C   LIG    1       25.637 -32.863   8.952  0.00  0.00    +0.050 C 
ENDROOT
BRANCH  11  18
ATOM     18  C   LIG    1       25.648 -24.228   6.962  0.00  0.00    +0.250 C 
ATOM     19  N   LIG    1       24.527 -23.525   7.316  0.00  0.00    -0.307 N 
ATOM     20  H   LIG    1       23.622 -23.996   7.277  0.00  0.00    +0.149 HD
ATOM     21  O   LIG    1       26.758 -23.714   6.848  0.00  0.00    -0.270 OA
BRANCH  19  22
ATOM     22  C   LIG    1       24.541 -22.109   7.585  0.00  0.00    +0.143 C 
BRANCH  22  23
ATOM     23  C   LIG    1       24.198 -21.312   6.360  0.00  0.00    +0.005 C 
ATOM     24  C   LIG    1       25.208 -20.708   5.604  0.00  0.00    +0.131 C 
ATOM     25  F   LIG    1       26.491 -20.860   5.963  0.00  0.00    -0.205 F 
ATOM     26  C   LIG    1       24.913 -19.952   4.475  0.00  0.00    +0.077 C 
ATOM     27  C   LIG    1       23.586 -19.794   4.103  0.00  0.00    +0.126 C 
ATOM     28  F   LIG    1       23.286 -19.070   3.017  0.00  0.00    -0.205 F 
ATOM     29  C   LIG    1       22.558 -20.372   4.839  0.00  0.00    +0.039 C 
ATOM     30  C   LIG    1       22.862 -21.128   5.973  0.00  0.00    +0.011 C 
ENDBRANCH  22  23
ENDBRANCH  19  22
ENDBRANCH  11  18
BRANCH   8  31
ATOM     31  O   LIG    1       23.697 -28.334   4.652  0.00  0.00    -0.502 OA
ATOM     32  H   LIG    1       24.300 -28.610   3.927  0.00  0.00    +0.292 HD
ENDBRANCH   8  31
TORSDOF 4
ENDMDL
MODEL 5
REMARK VINA RESULT:      -7.9      5.729      8.474
REMARK  Name = *****
REMARK                            x       y       z     vdW  Elec       q    Type
REMARK                         _______ _______ _______ _____ _____    ______ ____
ROOT
ATOM      1  C   LIG    1       23.923 -31.667   9.006  0.00  0.00    +0.028 C 
ATOM      2  C   LIG    1       25.389 -31.527   8.570  0.00  0.00    +0.078 C 
ATOM      3  N   LIG    1       25.702 -30.145   8.191  0.00  0.00    -0.266 N 
ATOM      4  C   LIG    1       25.998 -29.199   9.262  0.00  0.00    +0.228 C 
ATOM      5  C   LIG    1       26.656 -27.914   8.731  0.00  0.00    +0.173 C 
ATOM      6  N   LIG    1       25.861 -27.338   7.641  0.00  0.00    -0.335 NA
ATOM      7  C   LIG    1       25.242 -28.189   6.715  0.00  0.00    +0.150 C 
ATOM      8  C   LIG    1       24.606 -27.733   5.610  0.00  0.00    +0.194 C 
ATOM      9  C   LIG    1       24.545 -26.242   5.403  0.00  0.00    +0.236 C 
ATOM     10  O   LIG    1       23.943 -25.755   4.446  0.00  0.00    -0.283 OA
ATOM     11  C   LIG    1       25.214 -25.365   6.400  0.00  0.00    +0.103 C 
ATOM     12  C   LIG    1       25.832 -25.969   7.425  0.00  0.00    +0.103 C 
ATOM     13  O   LIG    1       26.913 -29.773  10.199  0.00  0.00    -0.357 OA
ATOM     14  C   LIG    1       26.465 -31.000  10.754  0.00  0.00    +0.164 C 
ATOM     15  C   LIG    1       25.233 -29.688   6.962  0.00  0.00    +0.269 C 
ATOM     16  O   LIG    1       24.789 -30.449   6.099  0.00  0.00    -0.268 OA
ATOM     17  C   LIG    1       26.345 -32.027   9.648  0.00  0.00    +0.050 C 
ENDROOT
BRANCH  11  18
ATOM     18  C   LIG    1       25.192 -23.876   6.368  0.00  0.00    +0.250 C 
ATOM     19  N   LIG    1       25.393 -23.266   7.577  0.00  0.00    -0.307 N 
ATOM     20  H   LIG    1       25.387 -23.839   8.422  0.00  0.00    +0.149 HD
ATOM     21  O   LIG    1       25.050 -23.257   5.316  0.00  0.00    -0.270 OA
BRANCH  19  22
ATOM     22  C   LIG    1       25.451 -21.834   7.734  0.00  0.00    +0.143 C 
BRANCH  22  23
ATOM     23  C   LIG    1       26.806 -21.293   7.381  0.00  0.00    +0.005 C 
ATOM     24  C   LIG    1       26.963 -20.444   6.282  0.00  0.00    +0.131 C 
ATOM     25  F   LIG    1       25.894 -20.093   5.551  0.00  0.00    -0.205 F 
ATOM     26  C   LIG    1       28.210 -19.944   5.925  0.00  0.00    +0.077 C 
ATOM     27  C   LIG    1       29.317 -20.305   6.679  0.00  0.00    +0.126 C 
ATOM     28  F   LIG    1       30.525 -19.830   6.351  0.00  0.00    -0.205 F 
ATOM     29  C   LIG    1       29.196 -21.157   7.773  0.00  0.00    +0.039 C 
ATOM     30  C   LIG    1       27.940 -21.657   8.122  0.00  0.00    +0.011 C 
ENDBRANCH  22  23
ENDBRANCH  19  22
ENDBRANCH  11  18
BRANCH   8  31
ATOM     31  O   LIG    1       23.980 -28.524   4.658  0.00  0.00    -0.502 OA
ATOM     32  H   LIG    1       23.064 -28.192   4.531  0.00  0.00    +0.292 HD
ENDBRANCH   8  31
TORSDOF 4
ENDMDL
MODEL 6
REMARK VINA RESULT:      -7.7      6.569      9.772
REMARK  Name = *****
REMARK                            x       y       z     vdW  Elec       q    Type
REMARK                         _______ _______ _______ _____ _____    ______ ____
ROOT
ATOM      1  C   LIG    1       27.114 -32.883   6.646  0.00  0.00    +0.028 C 
ATOM      2  C   LIG    1       25.738 -32.722   7.308  0.00  0.00    +0.078 C 
ATOM      3  N   LIG    1       25.170 -31.397   7.040  0.00  0.00    -0.266 N 
ATOM      4  C   LIG    1       24.504 -31.191   5.757  0.00  0.00    +0.228 C 
ATOM      5  C   LIG    1       23.650 -29.912   5.750  0.00  0.00    +0.173 C 
ATOM      6  N   LIG    1       24.441 -28.759   6.193  0.00  0.00    -0.335 NA
ATOM      7  C   LIG    1       25.373 -28.919   7.228  0.00  0.00    +0.150 C 
ATOM      8  C   LIG    1       26.041 -27.879   7.781  0.00  0.00    +0.194 C 
ATOM      9  C   LIG    1       25.781 -26.505   7.223  0.00  0.00    +0.236 C 
ATOM     10  O   LIG    1       26.387 -25.520   7.645  0.00  0.00    -0.283 OA
ATOM     11  C   LIG    1       24.785 -26.365   6.128  0.00  0.00    +0.103 C 
ATOM     12  C   LIG    1       24.180 -27.486   5.709  0.00  0.00    +0.103 C 
ATOM     13  O   LIG    1       23.620 -32.278   5.471  0.00  0.00    -0.357 OA
ATOM     14  C   LIG    1       24.256 -33.548   5.483  0.00  0.00    +0.164 C 
ATOM     15  C   LIG    1       25.696 -30.313   7.739  0.00  0.00    +0.269 C 
ATOM     16  O   LIG    1       26.429 -30.452   8.720  0.00  0.00    -0.268 OA
ATOM     17  C   LIG    1       24.776 -33.825   6.878  0.00  0.00    +0.050 C 
ENDROOT
BRANCH  11  18
ATOM     18  C   LIG    1       24.461 -25.088   5.434  0.00  0.00    +0.250 C 
ATOM     19  N   LIG    1       23.844 -24.144   6.211  0.00  0.00    -0.307 N 
ATOM     20  H   LIG    1       23.510 -24.415   7.137  0.00  0.00    +0.149 HD
ATOM     21  O   LIG    1       24.775 -24.895   4.262  0.00  0.00    -0.270 OA
BRANCH  19  22
ATOM     22  C   LIG    1       23.496 -22.833   5.726  0.00  0.00    +0.143 C 
BRANCH  22  23
ATOM     23  C   LIG    1       24.675 -21.903   5.750  0.00  0.00    +0.005 C 
ATOM     24  C   LIG    1       24.838 -20.942   4.749  0.00  0.00    +0.131 C 
ATOM     25  F   LIG    1       23.925 -20.834   3.772  0.00  0.00    -0.205 F 
ATOM     26  C   LIG    1       25.930 -20.082   4.741  0.00  0.00    +0.077 C 
ATOM     27  C   LIG    1       26.875 -20.191   5.750  0.00  0.00    +0.126 C 
ATOM     28  F   LIG    1       27.932 -19.368   5.759  0.00  0.00    -0.205 F 
ATOM     29  C   LIG    1       26.748 -21.144   6.756  0.00  0.00    +0.039 C 
ATOM     30  C   LIG    1       25.649 -22.007   6.754  0.00  0.00    +0.011 C 
ENDBRANCH  22  23
ENDBRANCH  19  22
ENDBRANCH  11  18
BRANCH   8  31
ATOM     31  O   LIG    1       26.969 -27.975   8.807  0.00  0.00    -0.502 OA
ATOM     32  H   LIG    1       27.782 -27.493   8.537  0.00  0.00    +0.292 HD
ENDBRANCH   8  31
TORSDOF 4
ENDMDL
MODEL 7
REMARK VINA RESULT:      -7.5      5.391      7.771
REMARK  Name = *****
REMARK                            x       y       z     vdW  Elec       q    Type
REMARK                         _______ _______ _______ _____ _____    ______ ____
ROOT
ATOM      1  C   LIG    1       23.810 -31.567   6.459  0.00  0.00    +0.028 C 
ATOM      2  C   LIG    1       25.316 -31.345   6.659  0.00  0.00    +0.078 C 
ATOM      3  N   LIG    1       25.626 -29.923   6.840  0.00  0.00    -0.266 N 
ATOM      4  C   LIG    1       25.432 -29.349   8.168  0.00  0.00    +0.228 C 
ATOM      5  C   LIG    1       26.125 -27.984   8.313  0.00  0.00    +0.173 C 
ATOM      6  N   LIG    1       25.732 -27.086   7.222  0.00  0.00    -0.335 NA
ATOM      7  C   LIG    1       25.566 -27.602   5.930  0.00  0.00    +0.150 C 
ATOM      8  C   LIG    1       25.337 -26.817   4.850  0.00  0.00    +0.194 C 
ATOM      9  C   LIG    1       25.228 -25.333   5.075  0.00  0.00    +0.236 C 
ATOM     10  O   LIG    1       24.974 -24.563   4.148  0.00  0.00    -0.283 OA
ATOM     11  C   LIG    1       25.412 -24.813   6.456  0.00  0.00    +0.103 C 
ATOM     12  C   LIG    1       25.666 -25.714   7.416  0.00  0.00    +0.103 C 
ATOM     13  O   LIG    1       25.991 -30.204   9.169  0.00  0.00    -0.357 OA
ATOM     14  C   LIG    1       25.479 -31.528   9.139  0.00  0.00    +0.164 C 
ATOM     15  C   LIG    1       25.597 -29.106   5.712  0.00  0.00    +0.269 C 
ATOM     16  O   LIG    1       25.562 -29.560   4.566  0.00  0.00    -0.268 OA
ATOM     17  C   LIG    1       25.856 -32.172   7.821  0.00  0.00    +0.050 C 
ENDROOT
BRANCH  11  18
ATOM     18  C   LIG    1       25.277 -23.383   6.849  0.00  0.00    +0.250 C 
ATOM     19  N   LIG    1       26.288 -22.565   6.422  0.00  0.00    -0.307 N 
ATOM     20  H   LIG    1       27.122 -22.989   6.014  0.00  0.00    +0.149 HD
ATOM     21  O   LIG    1       24.298 -22.977   7.472  0.00  0.00    -0.270 OA
BRANCH  19  22
ATOM     22  C   LIG    1       26.305 -21.144   6.668  0.00  0.00    +0.143 C 
BRANCH  22  23
ATOM     23  C   LIG    1       27.705 -20.603   6.683  0.00  0.00    +0.005 C 
ATOM     24  C   LIG    1       28.608 -21.007   7.671  0.00  0.00    +0.131 C 
ATOM     25  F   LIG    1       28.228 -21.898   8.598  0.00  0.00    -0.205 F 
ATOM     26  C   LIG    1       29.905 -20.508   7.715  0.00  0.00    +0.077 C 
ATOM     27  C   LIG    1       30.300 -19.585   6.757  0.00  0.00    +0.126 C 
ATOM     28  F   LIG    1       31.546 -19.096   6.784  0.00  0.00    -0.205 F 
ATOM     29  C   LIG    1       29.422 -19.155   5.767  0.00  0.00    +0.039 C 
ATOM     30  C   LIG    1       28.121 -19.660   5.732  0.00  0.00    +0.011 C 
ENDBRANCH  22  23
ENDBRANCH  19  22
ENDBRANCH  11  18
BRANCH   8  31
ATOM     31  O   LIG    1       25.169 -27.269   3.549  0.00  0.00    -0.502 OA
ATOM     32  H   LIG    1       24.253 -27.614   3.456  0.00  0.00    +0.292 HD
ENDBRANCH   8  31
TORSDOF 4
ENDMDL
MODEL 8
REMARK VINA RESULT:      -7.1      9.678     13.483
REMARK  Name = *****
REMARK                            x       y       z     vdW  Elec       q    Type
REMARK                         _______ _______ _______ _____ _____    ______ ____
ROOT
ATOM      1  C   LIG    1       17.920 -32.309  14.894  0.00  0.00    +0.028 C 
ATOM      2  C   LIG    1       17.379 -31.330  13.842  0.00  0.00    +0.078 C 
ATOM      3  N   LIG    1       18.395 -31.022  12.829  0.00  0.00    -0.266 N 
ATOM      4  C   LIG    1       18.584 -31.980  11.745  0.00  0.00    +0.228 C 
ATOM      5  C   LIG    1       19.390 -31.381  10.581  0.00  0.00    +0.173 C 
ATOM      6  N   LIG    1       20.642 -30.790  11.067  0.00  0.00    -0.335 NA
ATOM      7  C   LIG    1       20.651 -30.107  12.291  0.00  0.00    +0.150 C 
ATOM      8  C   LIG    1       21.729 -29.422  12.741  0.00  0.00    +0.194 C 
ATOM      9  C   LIG    1       22.972 -29.436  11.891  0.00  0.00    +0.236 C 
ATOM     10  O   LIG    1       24.004 -28.875  12.259  0.00  0.00    -0.283 OA
ATOM     11  C   LIG    1       22.931 -30.166  10.596  0.00  0.00    +0.103 C 
ATOM     12  C   LIG    1       21.778 -30.769  10.272  0.00  0.00    +0.103 C 
ATOM     13  O   LIG    1       17.323 -32.384  11.207  0.00  0.00    -0.357 OA
ATOM     14  C   LIG    1       16.437 -32.926  12.177  0.00  0.00    +0.164 C 
ATOM     15  C   LIG    1       19.425 -30.157  13.188  0.00  0.00    +0.269 C 
ATOM     16  O   LIG    1       19.386 -29.469  14.211  0.00  0.00    -0.268 OA
ATOM     17  C   LIG    1       16.103 -31.853  13.192  0.00  0.00    +0.050 C 
ENDROOT
BRANCH  11  18
ATOM     18  C   LIG    1       24.090 -30.322   9.674  0.00  0.00    +0.250 C 
ATOM     19  N   LIG    1       23.952 -29.709   8.458  0.00  0.00    -0.307 N 
ATOM     20  H   LIG    1       23.039 -29.332   8.201  0.00  0.00    +0.149 HD
ATOM     21  O   LIG    1       25.108 -30.921  10.015  0.00  0.00    -0.270 OA
BRANCH  19  22
ATOM     22  C   LIG    1       24.987 -29.712   7.454  0.00  0.00    +0.143 C 
BRANCH  22  23
ATOM     23  C   LIG    1       25.103 -28.378   6.775  0.00  0.00    +0.005 C 
ATOM     24  C   LIG    1       25.929 -27.384   7.308  0.00  0.00    +0.131 C 
ATOM     25  F   LIG    1       26.637 -27.630   8.419  0.00  0.00    -0.205 F 
ATOM     26  C   LIG    1       26.040 -26.136   6.706  0.00  0.00    +0.077 C 
ATOM     27  C   LIG    1       25.307 -25.879   5.556  0.00  0.00    +0.126 C 
ATOM     28  F   LIG    1       25.405 -24.683   4.963  0.00  0.00    -0.205 F 
ATOM     29  C   LIG    1       24.468 -26.843   5.007  0.00  0.00    +0.039 C 
ATOM     30  C   LIG    1       24.360 -28.094   5.620  0.00  0.00    +0.011 C 
ENDBRANCH  22  23
ENDBRANCH  19  22
ENDBRANCH  11  18
BRANCH   8  31
ATOM     31  O   LIG    1       21.796 -28.725  13.938  0.00  0.00    -0.502 OA
ATOM     32  H   LIG    1       22.329 -27.912  13.795  0.00  0.00    +0.292 HD
ENDBRANCH   8  31
TORSDOF 4
ENDMDL
MODEL 9
REMARK VINA RESULT:      -6.5     11.653     13.176
REMARK  Name = *****
REMARK                            x       y       z     vdW  Elec       q    Type
REMARK                         _______ _______ _______ _____ _____    ______ ____
ROOT
ATOM      1  C   LIG    1       26.141 -31.395   5.808  0.00  0.00    +0.028 C 
ATOM      2  C   LIG    1       25.715 -32.514   6.770  0.00  0.00    +0.078 C 
ATOM      3  N   LIG    1       25.271 -31.969   8.057  0.00  0.00    -0.266 N 
ATOM      4  C   LIG    1       23.905 -31.463   8.146  0.00  0.00    +0.228 C 
ATOM      5  C   LIG    1       23.455 -31.269   9.603  0.00  0.00    +0.173 C 
ATOM      6  N   LIG    1       24.430 -30.460  10.342  0.00  0.00    -0.335 NA
ATOM      7  C   LIG    1       25.799 -30.635  10.096  0.00  0.00    +0.150 C 
ATOM      8  C   LIG    1       26.760 -30.025  10.830  0.00  0.00    +0.194 C 
ATOM      9  C   LIG    1       26.317 -29.098  11.931  0.00  0.00    +0.236 C 
ATOM     10  O   LIG    1       27.135 -28.474  12.607  0.00  0.00    -0.283 OA
ATOM     11  C   LIG    1       24.859 -28.935  12.171  0.00  0.00    +0.103 C 
ATOM     12  C   LIG    1       24.030 -29.633  11.381  0.00  0.00    +0.103 C 
ATOM     13  O   LIG    1       22.989 -32.387   7.552  0.00  0.00    -0.357 OA
ATOM     14  C   LIG    1       23.296 -32.706   6.202  0.00  0.00    +0.164 C 
ATOM     15  C   LIG    1       26.248 -31.508   8.936  0.00  0.00    +0.269 C 
ATOM     16  O   LIG    1       27.446 -31.754   8.783  0.00  0.00    -0.268 OA
ATOM     17  C   LIG    1       24.640 -33.404   6.155  0.00  0.00    +0.050 C 
ENDROOT
BRANCH  11  18
ATOM     18  C   LIG    1       24.264 -28.013  13.178  0.00  0.00    +0.250 C 
ATOM     19  N   LIG    1       23.323 -28.578  13.998  0.00  0.00    -0.307 N 
ATOM     20  H   LIG    1       22.982 -29.514  13.778  0.00  0.00    +0.149 HD
ATOM     21  O   LIG    1       24.635 -26.847  13.282  0.00  0.00    -0.270 OA
BRANCH  19  22
ATOM     22  C   LIG    1       22.672 -27.854  15.061  0.00  0.00    +0.143 C 
BRANCH  22  23
ATOM     23  C   LIG    1       21.214 -27.643  14.773  0.00  0.00    +0.005 C 
ATOM     24  C   LIG    1       20.812 -26.727  13.796  0.00  0.00    +0.131 C 
ATOM     25  F   LIG    1       21.734 -26.049  13.098  0.00  0.00    -0.205 F 
ATOM     26  C   LIG    1       19.467 -26.503  13.523  0.00  0.00    +0.077 C 
ATOM     27  C   LIG    1       18.512 -27.205  14.245  0.00  0.00    +0.126 C 
ATOM     28  F   LIG    1       17.212 -27.002  13.992  0.00  0.00    -0.205 F 
ATOM     29  C   LIG    1       18.879 -28.116  15.230  0.00  0.00    +0.039 C 
ATOM     30  C   LIG    1       20.232 -28.332  15.500  0.00  0.00    +0.011 C 
ENDBRANCH  22  23
ENDBRANCH  19  22
ENDBRANCH  11  18
BRANCH   8  31
ATOM     31  O   LIG    1       28.127 -30.162  10.637  0.00  0.00    -0.502 OA
ATOM     32  H   LIG    1       28.481 -30.757  11.335  0.00  0.00    +0.292 HD
ENDBRANCH   8  31
TORSDOF 4
ENDMDL
