MODEL 1
REMARK VINA RESULT:      -1.8      0.000      0.000
REMARK  Name = *****
REMARK                            x       y       z     vdW  Elec       q    Type
REMARK                         _______ _______ _______ _____ _____    ______ ____
ROOT
ATOM      1  C   LIG    1       26.039 -13.668   4.590  0.00  0.00    +0.080 A 
ATOM      2  C   LIG    1       26.410 -14.653   3.647  0.00  0.00    +0.045 A 
ATOM      3  C   LIG    1       27.756 -14.680   3.234  0.00  0.00    +0.024 A 
ATOM      4  C   LIG    1       28.715 -13.820   3.765  0.00  0.00    +0.002 A 
ATOM      5  C   LIG    1       28.354 -12.901   4.738  0.00  0.00    +0.001 A 
ATOM      6  C   LIG    1       27.024 -12.817   5.144  0.00  0.00    +0.017 A 
ENDROOT
BRANCH   1   8
ATOM      7  O   LIG    1       23.744 -14.263   5.002  0.00  0.00    -0.245 OA
ATOM      8  C   LIG    1       24.612 -13.427   4.966  0.00  0.00    +0.341 C 
BRANCH   8   9
ATOM      9  O   LIG    1       24.432 -12.073   5.065  0.00  0.00    -0.458 OA
BRANCH   9  10
ATOM     10  C   LIG    1       23.438 -11.493   4.205  0.00  0.00    +0.266 C 
BRANCH  10  11
ATOM     11  C   LIG    1       23.718 -11.790   2.729  0.00  0.00    +0.177 C 
BRANCH  11  12
ATOM     12  O   LIG    1       23.501 -13.172   2.405  0.00  0.00    -0.386 OA
ATOM     13  H   LIG    1       22.611 -13.423   2.715  0.00  0.00    +0.210 HD
ENDBRANCH  11  12
BRANCH  11  14
ATOM     14  C   LIG    1       25.176 -11.448   2.401  0.00  0.00    +0.190 C 
BRANCH  14  15
ATOM     15  O   LIG    1       25.825 -12.570   1.814  0.00  0.00    -0.392 OA
ATOM     16  H   LIG    1       25.224 -13.329   1.953  0.00  0.00    +0.209 HD
ENDBRANCH  14  15
ENDBRANCH  11  14
ENDBRANCH  10  11
ENDBRANCH   9  10
ENDBRANCH   8   9
ENDBRANCH   1   8
BRANCH   2  17
ATOM     17  N   LIG    1       25.545 -15.643   3.118  0.00  0.00    -0.313 N 
ATOM     18  H   LIG    1       24.788 -15.287   2.538  0.00  0.00    +0.152 HD
BRANCH  17  19
ATOM     19  C   LIG    1       25.416 -17.017   3.494  0.00  0.00    +0.042 A 
ATOM     20  C   LIG    1       24.165 -17.567   3.905  0.00  0.00    +0.022 A 
ATOM     21  C   LIG    1       22.946 -16.848   3.884  0.00  0.00    +0.012 A 
ATOM     22  C   LIG    1       21.772 -17.390   4.401  0.00  0.00    +0.001 A 
ATOM     23  C   LIG    1       21.794 -18.664   4.944  0.00  0.00    +0.014 A 
ATOM     24  C   LIG    1       22.975 -19.432   4.921  0.00  0.00    +0.081 A 
ATOM     25  C   LIG    1       24.145 -18.916   4.363  0.00  0.00    +0.084 A 
ATOM     26  N   LIG    1       25.227 -19.702   4.275  0.00  0.00    -0.254 NA
ATOM     27  C   LIG    1       26.371 -19.194   3.788  0.00  0.00    +0.113 A 
ATOM     28  C   LIG    1       26.519 -17.876   3.420  0.00  0.00    +0.043 A 
BRANCH  24  29
ATOM     29  C   LIG    1       22.923 -20.798   5.559  0.00  0.00    +0.419 C 
ATOM     30  F   LIG    1       23.988 -21.570   5.187  0.00  0.00    -0.166 F 
ATOM     31  F   LIG    1       21.824 -21.496   5.139  0.00  0.00    -0.166 F 
ATOM     32  F   LIG    1       22.885 -20.866   6.917  0.00  0.00    -0.166 F 
ENDBRANCH  24  29
ENDBRANCH  17  19
ENDBRANCH   2  17
TORSDOF 10
ENDMDL
MODEL 2
REMARK VINA RESULT:      -1.4      4.660      7.594
REMARK  Name = *****
REMARK                            x       y       z     vdW  Elec       q    Type
REMARK                         _______ _______ _______ _____ _____    ______ ____
ROOT
ATOM      1  C   LIG    1       24.174 -19.890   4.803  0.00  0.00    +0.080 A 
ATOM      2  C   LIG    1       24.288 -18.863   3.841  0.00  0.00    +0.045 A 
ATOM      3  C   LIG    1       23.118 -18.148   3.515  0.00  0.00    +0.024 A 
ATOM      4  C   LIG    1       21.901 -18.386   4.148  0.00  0.00    +0.002 A 
ATOM      5  C   LIG    1       21.815 -19.352   5.139  0.00  0.00    +0.001 A 
ATOM      6  C   LIG    1       22.941 -20.107   5.461  0.00  0.00    +0.017 A 
ENDROOT
BRANCH   1   8
ATOM      7  O   LIG    1       26.036 -21.323   4.279  0.00  0.00    -0.245 OA
ATOM      8  C   LIG    1       25.300 -20.830   5.097  0.00  0.00    +0.341 C 
BRANCH   8   9
ATOM      9  O   LIG    1       25.214 -21.179   6.419  0.00  0.00    -0.458 OA
BRANCH   9  10
ATOM     10  C   LIG    1       26.439 -21.566   7.062  0.00  0.00    +0.266 C 
BRANCH  10  11
ATOM     11  C   LIG    1       27.466 -20.430   7.062  0.00  0.00    +0.177 C 
BRANCH  11  12
ATOM     12  O   LIG    1       27.187 -19.448   6.051  0.00  0.00    -0.386 OA
ATOM     13  H   LIG    1       26.587 -18.780   6.430  0.00  0.00    +0.210 HD
ENDBRANCH  11  12
BRANCH  11  14
ATOM     14  C   LIG    1       28.865 -20.999   6.798  0.00  0.00    +0.190 C 
BRANCH  14  15
ATOM     15  O   LIG    1       29.474 -20.323   5.703  0.00  0.00    -0.392 OA
ATOM     16  H   LIG    1       30.384 -20.113   5.992  0.00  0.00    +0.209 HD
ENDBRANCH  14  15
ENDBRANCH  11  14
ENDBRANCH  10  11
ENDBRANCH   9  10
ENDBRANCH   8   9
ENDBRANCH   1   8
BRANCH   2  17
ATOM     17  N   LIG    1       25.492 -18.465   3.209  0.00  0.00    -0.313 N 
ATOM     18  H   LIG    1       25.806 -19.077   2.458  0.00  0.00    +0.152 HD
BRANCH  17  19
ATOM     19  C   LIG    1       26.458 -17.503   3.641  0.00  0.00    +0.042 A 
ATOM     20  C   LIG    1       26.208 -16.100   3.557  0.00  0.00    +0.022 A 
ATOM     21  C   LIG    1       24.974 -15.546   3.144  0.00  0.00    +0.012 A 
ATOM     22  C   LIG    1       24.812 -14.174   2.970  0.00  0.00    +0.001 A 
ATOM     23  C   LIG    1       25.883 -13.329   3.211  0.00  0.00    +0.014 A 
ATOM     24  C   LIG    1       27.107 -13.841   3.687  0.00  0.00    +0.081 A 
ATOM     25  C   LIG    1       27.263 -15.211   3.909  0.00  0.00    +0.084 A 
ATOM     26  N   LIG    1       28.407 -15.657   4.446  0.00  0.00    -0.254 NA
ATOM     27  C   LIG    1       28.584 -16.978   4.612  0.00  0.00    +0.113 A 
ATOM     28  C   LIG    1       27.669 -17.923   4.206  0.00  0.00    +0.043 A 
BRANCH  24  29
ATOM     29  C   LIG    1       28.233 -12.860   3.896  0.00  0.00    +0.419 C 
ATOM     30  F   LIG    1       28.380 -12.532   5.215  0.00  0.00    -0.166 F 
ATOM     31  F   LIG    1       27.971 -11.671   3.270  0.00  0.00    -0.166 F 
ATOM     32  F   LIG    1       29.475 -13.215   3.471  0.00  0.00    -0.166 F 
ENDBRANCH  24  29
ENDBRANCH  17  19
ENDBRANCH   2  17
TORSDOF 10
ENDMDL
MODEL 3
REMARK VINA RESULT:      -1.3      1.661      3.442
REMARK  Name = *****
REMARK                            x       y       z     vdW  Elec       q    Type
REMARK                         _______ _______ _______ _____ _____    ______ ____
ROOT
ATOM      1  C   LIG    1       25.731 -12.995   2.581  0.00  0.00    +0.080 A 
ATOM      2  C   LIG    1       25.018 -13.554   3.665  0.00  0.00    +0.045 A 
ATOM      3  C   LIG    1       23.771 -12.981   3.985  0.00  0.00    +0.024 A 
ATOM      4  C   LIG    1       23.216 -11.945   3.239  0.00  0.00    +0.002 A 
ATOM      5  C   LIG    1       23.894 -11.447   2.136  0.00  0.00    +0.001 A 
ATOM      6  C   LIG    1       25.148 -11.961   1.812  0.00  0.00    +0.017 A 
ENDROOT
BRANCH   1   8
ATOM      7  O   LIG    1       27.480 -14.477   1.848  0.00  0.00    -0.245 OA
ATOM      8  C   LIG    1       27.136 -13.398   2.263  0.00  0.00    +0.341 C 
BRANCH   8   9
ATOM      9  O   LIG    1       27.964 -12.404   2.711  0.00  0.00    -0.458 OA
BRANCH   9  10
ATOM     10  C   LIG    1       28.878 -12.756   3.763  0.00  0.00    +0.266 C 
BRANCH  10  11
ATOM     11  C   LIG    1       28.302 -12.443   5.147  0.00  0.00    +0.177 C 
BRANCH  11  12
ATOM     12  O   LIG    1       29.276 -11.843   6.015  0.00  0.00    -0.386 OA
ATOM     13  H   LIG    1       29.842 -11.255   5.481  0.00  0.00    +0.210 HD
ENDBRANCH  11  12
BRANCH  11  14
ATOM     14  C   LIG    1       27.811 -13.738   5.806  0.00  0.00    +0.190 C 
BRANCH  14  15
ATOM     15  O   LIG    1       26.730 -13.462   6.690  0.00  0.00    -0.392 OA
ATOM     16  H   LIG    1       26.918 -12.583   7.075  0.00  0.00    +0.209 HD
ENDBRANCH  14  15
ENDBRANCH  11  14
ENDBRANCH  10  11
ENDBRANCH   9  10
ENDBRANCH   8   9
ENDBRANCH   1   8
BRANCH   2  17
ATOM     17  N   LIG    1       25.437 -14.672   4.428  0.00  0.00    -0.313 N 
ATOM     18  H   LIG    1       26.019 -14.450   5.233  0.00  0.00    +0.152 HD
BRANCH  17  19
ATOM     19  C   LIG    1       25.392 -16.060   4.086  0.00  0.00    +0.042 A 
ATOM     20  C   LIG    1       24.187 -16.819   4.188  0.00  0.00    +0.022 A 
ATOM     21  C   LIG    1       22.934 -16.259   4.531  0.00  0.00    +0.012 A 
ATOM     22  C   LIG    1       21.809 -17.056   4.728  0.00  0.00    +0.001 A 
ATOM     23  C   LIG    1       21.916 -18.429   4.581  0.00  0.00    +0.014 A 
ATOM     24  C   LIG    1       23.133 -19.013   4.176  0.00  0.00    +0.081 A 
ATOM     25  C   LIG    1       24.253 -18.218   3.930  0.00  0.00    +0.084 A 
ATOM     26  N   LIG    1       25.370 -18.792   3.461  0.00  0.00    -0.254 NA
ATOM     27  C   LIG    1       26.466 -18.041   3.273  0.00  0.00    +0.113 A 
ATOM     28  C   LIG    1       26.534 -16.704   3.594  0.00  0.00    +0.043 A 
BRANCH  24  29
ATOM     29  C   LIG    1       23.175 -20.517   4.068  0.00  0.00    +0.419 C 
ATOM     30  F   LIG    1       23.560 -20.924   2.821  0.00  0.00    -0.166 F 
ATOM     31  F   LIG    1       21.930 -21.058   4.241  0.00  0.00    -0.166 F 
ATOM     32  F   LIG    1       23.977 -21.196   4.932  0.00  0.00    -0.166 F 
ENDBRANCH  24  29
ENDBRANCH  17  19
ENDBRANCH   2  17
TORSDOF 10
ENDMDL
MODEL 4
REMARK VINA RESULT:      -0.3      4.514      7.732
REMARK  Name = *****
REMARK                            x       y       z     vdW  Elec       q    Type
REMARK                         _______ _______ _______ _____ _____    ______ ____
ROOT
ATOM      1  C   LIG    1       21.516 -19.768   4.431  0.00  0.00    +0.080 A 
ATOM      2  C   LIG    1       21.978 -18.511   3.982  0.00  0.00    +0.045 A 
ATOM      3  C   LIG    1       21.116 -17.760   3.159  0.00  0.00    +0.024 A 
ATOM      4  C   LIG    1       19.831 -18.191   2.839  0.00  0.00    +0.002 A 
ATOM      5  C   LIG    1       19.362 -19.396   3.339  0.00  0.00    +0.001 A 
ATOM      6  C   LIG    1       20.200 -20.186   4.124  0.00  0.00    +0.017 A 
ENDROOT
BRANCH   1   8
ATOM      7  O   LIG    1       22.040 -21.566   5.943  0.00  0.00    -0.245 OA
ATOM      8  C   LIG    1       22.405 -20.727   5.157  0.00  0.00    +0.341 C 
BRANCH   8   9
ATOM      9  O   LIG    1       23.700 -20.351   4.922  0.00  0.00    -0.458 OA
BRANCH   9  10
ATOM     10  C   LIG    1       24.657 -20.669   5.945  0.00  0.00    +0.266 C 
BRANCH  10  11
ATOM     11  C   LIG    1       26.048 -20.121   5.614  0.00  0.00    +0.177 C 
BRANCH  11  12
ATOM     12  O   LIG    1       26.417 -20.372   4.248  0.00  0.00    -0.386 OA
ATOM     13  H   LIG    1       27.072 -21.094   4.235  0.00  0.00    +0.210 HD
ENDBRANCH  11  12
BRANCH  11  14
ATOM     14  C   LIG    1       27.093 -20.787   6.518  0.00  0.00    +0.190 C 
BRANCH  14  15
ATOM     15  O   LIG    1       28.388 -20.681   5.935  0.00  0.00    -0.392 OA
ATOM     16  H   LIG    1       28.239 -20.524   4.982  0.00  0.00    +0.209 HD
ENDBRANCH  14  15
ENDBRANCH  11  14
ENDBRANCH  10  11
ENDBRANCH   9  10
ENDBRANCH   8   9
ENDBRANCH   1   8
BRANCH   2  17
ATOM     17  N   LIG    1       23.222 -17.927   4.328  0.00  0.00    -0.313 N 
ATOM     18  H   LIG    1       23.807 -18.492   4.941  0.00  0.00    +0.152 HD
BRANCH  17  19
ATOM     19  C   LIG    1       23.653 -16.573   4.172  0.00  0.00    +0.042 A 
ATOM     20  C   LIG    1       25.008 -16.249   3.858  0.00  0.00    +0.022 A 
ATOM     21  C   LIG    1       26.002 -17.217   3.581  0.00  0.00    +0.012 A 
ATOM     22  C   LIG    1       27.335 -16.859   3.391  0.00  0.00    +0.001 A 
ATOM     23  C   LIG    1       27.696 -15.525   3.471  0.00  0.00    +0.014 A 
ATOM     24  C   LIG    1       26.721 -14.529   3.680  0.00  0.00    +0.081 A 
ATOM     25  C   LIG    1       25.377 -14.874   3.824  0.00  0.00    +0.084 A 
ATOM     26  N   LIG    1       24.462 -13.900   3.932  0.00  0.00    -0.254 NA
ATOM     27  C   LIG    1       23.174 -14.226   4.124  0.00  0.00    +0.113 A 
ATOM     28  C   LIG    1       22.734 -15.522   4.278  0.00  0.00    +0.043 A 
BRANCH  24  29
ATOM     29  C   LIG    1       27.201 -13.103   3.784  0.00  0.00    +0.419 C 
ATOM     30  F   LIG    1       26.661 -12.315   2.805  0.00  0.00    -0.166 F 
ATOM     31  F   LIG    1       28.553 -13.023   3.587  0.00  0.00    -0.166 F 
ATOM     32  F   LIG    1       26.975 -12.438   4.948  0.00  0.00    -0.166 F 
ENDBRANCH  24  29
ENDBRANCH  17  19
ENDBRANCH   2  17
TORSDOF 10
ENDMDL
