MODEL 1
REMARK VINA RESULT:      -6.5      0.000      0.000
REMARK  Name = *****
REMARK                            x       y       z     vdW  Elec       q    Type
REMARK                         _______ _______ _______ _____ _____    ______ ____
ROOT
ATOM      1  C   LIG    1       26.969 -20.511   6.223  0.00  0.00    -0.034 A 
ATOM      2  C   LIG    1       27.242 -21.263   7.379  0.00  0.00    +0.007 A 
ATOM      3  C   LIG    1       28.475 -21.160   8.024  0.00  0.00    +0.029 A 
ATOM      4  C   LIG    1       29.444 -20.294   7.512  0.00  0.00    +0.105 A 
ATOM      5  C   LIG    1       29.196 -19.546   6.358  0.00  0.00    +0.029 A 
ATOM      6  C   LIG    1       27.959 -19.654   5.719  0.00  0.00    +0.007 A 
ENDROOT
BRANCH   4   7
ATOM      7  S   LIG    1       31.019 -20.165   8.313  0.00  0.00    +0.056 S 
ATOM      8  O   LIG    1       30.817 -19.654   9.648  0.00  0.00    -0.153 OA
ATOM      9  O   LIG    1       31.960 -19.576   7.388  0.00  0.00    -0.153 OA
BRANCH   7  10
ATOM     10  N   LIG    1       31.464 -21.785   8.442  0.00  0.00    -0.203 NA
ATOM     11  H   LIG    1       31.997 -22.118   7.639  0.00  0.00    +0.144 HD
ATOM     12  H   LIG    1       31.974 -21.916   9.317  0.00  0.00    +0.144 HD
ENDBRANCH   7  10
ENDBRANCH   4   7
BRANCH   1  13
ATOM     13  C   LIG    1       25.641 -20.649   5.522  0.00  0.00    +0.113 C 
BRANCH  13  14
ATOM     14  N   LIG    1       25.747 -20.315   4.107  0.00  0.00    -0.326 NA
ATOM     15  H   LIG    1       26.406 -20.954   3.666  0.00  0.00    +0.118 HD
ATOM     16  H   LIG    1       24.847 -20.476   3.660  0.00  0.00    +0.118 HD
ENDBRANCH  13  14
ENDBRANCH   1  13
TORSDOF 4
ENDMDL
MODEL 2
REMARK VINA RESULT:      -6.5      5.278      5.978
REMARK  Name = *****
REMARK                            x       y       z     vdW  Elec       q    Type
REMARK                         _______ _______ _______ _____ _____    ______ ____
ROOT
ATOM      1  C   LIG    1       24.649 -25.426   6.403  0.00  0.00    -0.034 A 
ATOM      2  C   LIG    1       23.512 -24.602   6.466  0.00  0.00    +0.007 A 
ATOM      3  C   LIG    1       23.620 -23.264   6.848  0.00  0.00    +0.029 A 
ATOM      4  C   LIG    1       24.876 -22.743   7.166  0.00  0.00    +0.105 A 
ATOM      5  C   LIG    1       26.017 -23.548   7.119  0.00  0.00    +0.029 A 
ATOM      6  C   LIG    1       25.900 -24.886   6.736  0.00  0.00    +0.007 A 
ENDROOT
BRANCH   4   7
ATOM      7  S   LIG    1       25.024 -21.050   7.666  0.00  0.00    +0.056 S 
ATOM      8  O   LIG    1       23.702 -20.521   7.904  0.00  0.00    -0.153 OA
ATOM      9  O   LIG    1       25.980 -20.395   6.802  0.00  0.00    -0.153 OA
BRANCH   7  10
ATOM     10  N   LIG    1       25.794 -21.206   9.157  0.00  0.00    -0.203 NA
ATOM     11  H   LIG    1       25.450 -20.547   9.854  0.00  0.00    +0.144 HD
ATOM     12  H   LIG    1       25.702 -22.174   9.472  0.00  0.00    +0.144 HD
ENDBRANCH   7  10
ENDBRANCH   4   7
BRANCH   1  13
ATOM     13  C   LIG    1       24.515 -26.876   6.012  0.00  0.00    +0.113 C 
BRANCH  13  14
ATOM     14  N   LIG    1       25.808 -27.551   6.015  0.00  0.00    -0.326 NA
ATOM     15  H   LIG    1       25.886 -28.109   6.864  0.00  0.00    +0.118 HD
ATOM     16  H   LIG    1       25.842 -28.206   5.237  0.00  0.00    +0.118 HD
ENDBRANCH  13  14
ENDBRANCH   1  13
TORSDOF 4
ENDMDL
MODEL 3
REMARK VINA RESULT:      -6.5      5.282      6.006
REMARK  Name = *****
REMARK                            x       y       z     vdW  Elec       q    Type
REMARK                         _______ _______ _______ _____ _____    ______ ____
ROOT
ATOM      1  C   LIG    1       24.648 -25.435   6.384  0.00  0.00    -0.034 A 
ATOM      2  C   LIG    1       25.904 -24.883   6.691  0.00  0.00    +0.007 A 
ATOM      3  C   LIG    1       26.021 -23.549   7.080  0.00  0.00    +0.029 A 
ATOM      4  C   LIG    1       24.873 -22.759   7.169  0.00  0.00    +0.105 A 
ATOM      5  C   LIG    1       23.616 -23.286   6.858  0.00  0.00    +0.029 A 
ATOM      6  C   LIG    1       23.508 -24.623   6.469  0.00  0.00    +0.007 A 
ENDROOT
BRANCH   4   7
ATOM      7  S   LIG    1       25.010 -21.059   7.649  0.00  0.00    +0.056 S 
ATOM      8  O   LIG    1       23.685 -20.540   7.891  0.00  0.00    -0.153 OA
ATOM      9  O   LIG    1       25.953 -20.406   6.770  0.00  0.00    -0.153 OA
BRANCH   7  10
ATOM     10  N   LIG    1       25.793 -21.191   9.135  0.00  0.00    -0.203 NA
ATOM     11  H   LIG    1       25.254 -21.714   9.824  0.00  0.00    +0.144 HD
ATOM     12  H   LIG    1       26.716 -21.602   8.983  0.00  0.00    +0.144 HD
ENDBRANCH   7  10
ENDBRANCH   4   7
BRANCH   1  13
ATOM     13  C   LIG    1       24.538 -26.873   5.941  0.00  0.00    +0.113 C 
BRANCH  13  14
ATOM     14  N   LIG    1       25.840 -27.529   5.932  0.00  0.00    -0.326 NA
ATOM     15  H   LIG    1       26.525 -26.907   6.358  0.00  0.00    +0.118 HD
ATOM     16  H   LIG    1       25.798 -28.357   6.521  0.00  0.00    +0.118 HD
ENDBRANCH  13  14
ENDBRANCH   1  13
TORSDOF 4
ENDMDL
MODEL 4
REMARK VINA RESULT:      -6.4      1.506      1.619
REMARK  Name = *****
REMARK                            x       y       z     vdW  Elec       q    Type
REMARK                         _______ _______ _______ _____ _____    ______ ____
ROOT
ATOM      1  C   LIG    1       27.531 -20.074   6.388  0.00  0.00    -0.034 A 
ATOM      2  C   LIG    1       27.626 -20.362   7.761  0.00  0.00    +0.007 A 
ATOM      3  C   LIG    1       28.781 -20.050   8.478  0.00  0.00    +0.029 A 
ATOM      4  C   LIG    1       29.850 -19.439   7.820  0.00  0.00    +0.105 A 
ATOM      5  C   LIG    1       29.780 -19.153   6.454  0.00  0.00    +0.029 A 
ATOM      6  C   LIG    1       28.620 -19.469   5.743  0.00  0.00    +0.007 A 
ENDROOT
BRANCH   4   7
ATOM      7  S   LIG    1       31.328 -19.051   8.717  0.00  0.00    +0.056 S 
ATOM      8  O   LIG    1       31.954 -17.905   8.101  0.00  0.00    -0.153 OA
ATOM      9  O   LIG    1       32.042 -20.278   8.983  0.00  0.00    -0.153 OA
BRANCH   7  10
ATOM     10  N   LIG    1       30.701 -18.561  10.202  0.00  0.00    -0.203 NA
ATOM     11  H   LIG    1       31.174 -17.743  10.584  0.00  0.00    +0.144 HD
ATOM     12  H   LIG    1       29.696 -18.404  10.097  0.00  0.00    +0.144 HD
ENDBRANCH   7  10
ENDBRANCH   4   7
BRANCH   1  13
ATOM     13  C   LIG    1       26.286 -20.438   5.619  0.00  0.00    +0.113 C 
BRANCH  13  14
ATOM     14  N   LIG    1       26.361 -19.984   4.235  0.00  0.00    -0.326 NA
ATOM     15  H   LIG    1       25.564 -19.380   4.043  0.00  0.00    +0.118 HD
ATOM     16  H   LIG    1       27.192 -19.408   4.121  0.00  0.00    +0.118 HD
ENDBRANCH  13  14
ENDBRANCH   1  13
TORSDOF 4
ENDMDL
MODEL 5
REMARK VINA RESULT:      -6.4      0.667      1.550
REMARK  Name = *****
REMARK                            x       y       z     vdW  Elec       q    Type
REMARK                         _______ _______ _______ _____ _____    ______ ____
ROOT
ATOM      1  C   LIG    1       26.901 -20.652   6.273  0.00  0.00    -0.034 A 
ATOM      2  C   LIG    1       27.850 -19.752   5.758  0.00  0.00    +0.007 A 
ATOM      3  C   LIG    1       29.099 -19.609   6.363  0.00  0.00    +0.029 A 
ATOM      4  C   LIG    1       29.405 -20.374   7.490  0.00  0.00    +0.105 A 
ATOM      5  C   LIG    1       28.472 -21.267   8.023  0.00  0.00    +0.029 A 
ATOM      6  C   LIG    1       27.224 -21.405   7.412  0.00  0.00    +0.007 A 
ENDROOT
BRANCH   4   7
ATOM      7  S   LIG    1       30.983 -20.191   8.275  0.00  0.00    +0.056 S 
ATOM      8  O   LIG    1       30.780 -19.637   9.593  0.00  0.00    -0.153 OA
ATOM      9  O   LIG    1       31.908 -19.618   7.324  0.00  0.00    -0.153 OA
BRANCH   7  10
ATOM     10  N   LIG    1       31.457 -21.797   8.457  0.00  0.00    -0.203 NA
ATOM     11  H   LIG    1       31.687 -22.039   9.421  0.00  0.00    +0.144 HD
ATOM     12  H   LIG    1       30.723 -22.400   8.080  0.00  0.00    +0.144 HD
ENDBRANCH   7  10
ENDBRANCH   4   7
BRANCH   1  13
ATOM     13  C   LIG    1       25.545 -20.780   5.624  0.00  0.00    +0.113 C 
BRANCH  13  14
ATOM     14  N   LIG    1       25.229 -22.171   5.320  0.00  0.00    -0.326 NA
ATOM     15  H   LIG    1       25.633 -22.766   6.041  0.00  0.00    +0.118 HD
ATOM     16  H   LIG    1       24.221 -22.301   5.372  0.00  0.00    +0.118 HD
ENDBRANCH  13  14
ENDBRANCH   1  13
TORSDOF 4
ENDMDL
MODEL 6
REMARK VINA RESULT:      -6.3      4.767      6.516
REMARK  Name = *****
REMARK                            x       y       z     vdW  Elec       q    Type
REMARK                         _______ _______ _______ _____ _____    ______ ____
ROOT
ATOM      1  C   LIG    1       32.177 -16.576  11.233  0.00  0.00    -0.034 A 
ATOM      2  C   LIG    1       30.955 -17.240  11.444  0.00  0.00    +0.007 A 
ATOM      3  C   LIG    1       30.353 -17.969  10.418  0.00  0.00    +0.029 A 
ATOM      4  C   LIG    1       30.978 -18.040   9.171  0.00  0.00    +0.105 A 
ATOM      5  C   LIG    1       32.187 -17.379   8.939  0.00  0.00    +0.029 A 
ATOM      6  C   LIG    1       32.783 -16.651   9.971  0.00  0.00    +0.007 A 
ENDROOT
BRANCH   4   7
ATOM      7  S   LIG    1       30.215 -18.950   7.857  0.00  0.00    +0.056 S 
ATOM      8  O   LIG    1       30.064 -18.077   6.717  0.00  0.00    -0.153 OA
ATOM      9  O   LIG    1       29.118 -19.716   8.401  0.00  0.00    -0.153 OA
BRANCH   7  10
ATOM     10  N   LIG    1       31.414 -20.076   7.488  0.00  0.00    -0.203 NA
ATOM     11  H   LIG    1       31.104 -21.040   7.601  0.00  0.00    +0.144 HD
ATOM     12  H   LIG    1       31.754 -19.894   6.541  0.00  0.00    +0.144 HD
ENDBRANCH   7  10
ENDBRANCH   4   7
BRANCH   1  13
ATOM     13  C   LIG    1       32.805 -15.772  12.343  0.00  0.00    +0.113 C 
BRANCH  13  14
ATOM     14  N   LIG    1       31.820 -15.388  13.347  0.00  0.00    -0.326 NA
ATOM     15  H   LIG    1       32.297 -14.918  14.115  0.00  0.00    +0.118 HD
ATOM     16  H   LIG    1       31.185 -14.703  12.943  0.00  0.00    +0.118 HD
ENDBRANCH  13  14
ENDBRANCH   1  13
TORSDOF 4
ENDMDL
MODEL 7
REMARK VINA RESULT:      -6.3      5.085      6.180
REMARK  Name = *****
REMARK                            x       y       z     vdW  Elec       q    Type
REMARK                         _______ _______ _______ _____ _____    ______ ____
ROOT
ATOM      1  C   LIG    1       24.683 -25.510   6.312  0.00  0.00    -0.034 A 
ATOM      2  C   LIG    1       25.952 -24.996   6.632  0.00  0.00    +0.007 A 
ATOM      3  C   LIG    1       26.100 -23.681   7.072  0.00  0.00    +0.029 A 
ATOM      4  C   LIG    1       24.969 -22.872   7.200  0.00  0.00    +0.105 A 
ATOM      5  C   LIG    1       23.700 -23.360   6.878  0.00  0.00    +0.029 A 
ATOM      6  C   LIG    1       23.561 -24.678   6.438  0.00  0.00    +0.007 A 
ENDROOT
BRANCH   4   7
ATOM      7  S   LIG    1       25.145 -21.195   7.745  0.00  0.00    +0.056 S 
ATOM      8  O   LIG    1       25.852 -20.452   6.730  0.00  0.00    -0.153 OA
ATOM      9  O   LIG    1       25.553 -21.201   9.132  0.00  0.00    -0.153 OA
BRANCH   7  10
ATOM     10  N   LIG    1       23.543 -20.672   7.746  0.00  0.00    -0.203 NA
ATOM     11  H   LIG    1       23.008 -21.025   6.953  0.00  0.00    +0.144 HD
ATOM     12  H   LIG    1       23.115 -20.930   8.638  0.00  0.00    +0.144 HD
ENDBRANCH   7  10
ENDBRANCH   4   7
BRANCH   1  13
ATOM     13  C   LIG    1       24.540 -26.926   5.814  0.00  0.00    +0.113 C 
BRANCH  13  14
ATOM     14  N   LIG    1       25.617 -27.776   6.308  0.00  0.00    -0.326 NA
ATOM     15  H   LIG    1       26.479 -27.233   6.335  0.00  0.00    +0.118 HD
ATOM     16  H   LIG    1       25.415 -28.042   7.269  0.00  0.00    +0.118 HD
ENDBRANCH  13  14
ENDBRANCH   1  13
TORSDOF 4
ENDMDL
MODEL 8
REMARK VINA RESULT:      -6.2      5.108      6.193
REMARK  Name = *****
REMARK                            x       y       z     vdW  Elec       q    Type
REMARK                         _______ _______ _______ _____ _____    ______ ____
ROOT
ATOM      1  C   LIG    1       24.651 -25.605   6.335  0.00  0.00    -0.034 A 
ATOM      2  C   LIG    1       23.531 -24.760   6.422  0.00  0.00    +0.007 A 
ATOM      3  C   LIG    1       23.668 -23.433   6.829  0.00  0.00    +0.029 A 
ATOM      4  C   LIG    1       24.936 -22.943   7.148  0.00  0.00    +0.105 A 
ATOM      5  C   LIG    1       26.060 -23.770   7.079  0.00  0.00    +0.029 A 
ATOM      6  C   LIG    1       25.915 -25.097   6.670  0.00  0.00    +0.007 A 
ENDROOT
BRANCH   4   7
ATOM      7  S   LIG    1       25.121 -21.263   7.681  0.00  0.00    +0.056 S 
ATOM      8  O   LIG    1       25.860 -20.539   6.674  0.00  0.00    -0.153 OA
ATOM      9  O   LIG    1       25.499 -21.260   9.075  0.00  0.00    -0.153 OA
BRANCH   7  10
ATOM     10  N   LIG    1       23.526 -20.721   7.642  0.00  0.00    -0.203 NA
ATOM     11  H   LIG    1       23.452 -19.707   7.557  0.00  0.00    +0.144 HD
ATOM     12  H   LIG    1       23.035 -21.202   6.887  0.00  0.00    +0.144 HD
ENDBRANCH   7  10
ENDBRANCH   4   7
BRANCH   1  13
ATOM     13  C   LIG    1       24.485 -27.045   5.917  0.00  0.00    +0.113 C 
BRANCH  13  14
ATOM     14  N   LIG    1       25.774 -27.678   5.664  0.00  0.00    -0.326 NA
ATOM     15  H   LIG    1       26.507 -27.119   6.099  0.00  0.00    +0.118 HD
ATOM     16  H   LIG    1       25.794 -28.585   6.126  0.00  0.00    +0.118 HD
ENDBRANCH  13  14
ENDBRANCH   1  13
TORSDOF 4
ENDMDL
MODEL 9
REMARK VINA RESULT:      -6.2      4.379      5.646
REMARK  Name = *****
REMARK                            x       y       z     vdW  Elec       q    Type
REMARK                         _______ _______ _______ _____ _____    ______ ____
ROOT
ATOM      1  C   LIG    1       27.964 -20.122   6.755  0.00  0.00    -0.034 A 
ATOM      2  C   LIG    1       27.276 -20.434   7.941  0.00  0.00    +0.007 A 
ATOM      3  C   LIG    1       25.911 -20.721   7.920  0.00  0.00    +0.029 A 
ATOM      4  C   LIG    1       25.227 -20.702   6.703  0.00  0.00    +0.105 A 
ATOM      5  C   LIG    1       25.891 -20.385   5.514  0.00  0.00    +0.029 A 
ATOM      6  C   LIG    1       27.257 -20.099   5.544  0.00  0.00    +0.007 A 
ENDROOT
BRANCH   4   7
ATOM      7  S   LIG    1       23.491 -21.051   6.665  0.00  0.00    +0.056 S 
ATOM      8  O   LIG    1       22.813 -19.952   6.020  0.00  0.00    -0.153 OA
ATOM      9  O   LIG    1       23.093 -21.559   7.958  0.00  0.00    -0.153 OA
BRANCH   7  10
ATOM     10  N   LIG    1       23.437 -22.374   5.622  0.00  0.00    -0.203 NA
ATOM     11  H   LIG    1       24.204 -22.384   4.951  0.00  0.00    +0.144 HD
ATOM     12  H   LIG    1       23.408 -23.229   6.180  0.00  0.00    +0.144 HD
ENDBRANCH   7  10
ENDBRANCH   4   7
BRANCH   1  13
ATOM     13  C   LIG    1       29.435 -19.790   6.796  0.00  0.00    +0.113 C 
BRANCH  13  14
ATOM     14  N   LIG    1       30.183 -20.777   7.565  0.00  0.00    -0.326 NA
ATOM     15  H   LIG    1       31.174 -20.541   7.529  0.00  0.00    +0.118 HD
ATOM     16  H   LIG    1       29.909 -20.714   8.543  0.00  0.00    +0.118 HD
ENDBRANCH  13  14
ENDBRANCH   1  13
TORSDOF 4
ENDMDL
