MODEL 1
REMARK VINA RESULT:      -5.7      0.000      0.000
REMARK  Name = *****
REMARK                            x       y       z     vdW  Elec       q    Type
REMARK                         _______ _______ _______ _____ _____    ______ ____
ROOT
ATOM      1  C   LIG    1       26.271 -28.205   9.061  0.00  0.00    +0.016 C 
ATOM      2  C   LIG    1       25.703 -29.449   9.790  0.00  0.00    -0.003 C 
ATOM      3  C   LIG    1       25.900 -29.250  11.284  0.00  0.00    -0.036 C 
ATOM      4  C   LIG    1       27.041 -29.815  11.711  0.00  0.00    -0.022 C 
ATOM      5  C   LIG    1       27.751 -30.508  10.593  0.00  0.00    +0.032 C 
ATOM      6  C   LIG    1       26.625 -30.690   9.542  0.00  0.00    +0.007 C 
ATOM      7  C   LIG    1       25.930 -32.072   9.754  0.00  0.00    +0.001 C 
ATOM      8  C   LIG    1       26.814 -33.262   9.337  0.00  0.00    +0.031 C 
ATOM      9  C   LIG    1       26.912 -33.388   7.855  0.00  0.00    -0.027 C 
ATOM     10  C   LIG    1       25.899 -33.059   7.038  0.00  0.00    -0.065 C 
ATOM     11  C   LIG    1       24.524 -32.597   7.546  0.00  0.00    -0.008 C 
ATOM     12  C   LIG    1       23.567 -33.824   7.438  0.00  0.00    +0.016 C 
ATOM     13  C   LIG    1       23.960 -31.532   6.552  0.00  0.00    +0.013 C 
ATOM     14  C   LIG    1       25.055 -30.728   5.844  0.00  0.00    +0.032 C 
ATOM     15  C   LIG    1       25.927 -31.638   4.966  0.00  0.00    +0.119 C 
ATOM     16  C   LIG    1       26.084 -33.056   5.539  0.00  0.00    +0.062 C 
ATOM     17  C   LIG    1       24.541 -32.193   9.090  0.00  0.00    +0.003 C 
ATOM     18  C   LIG    1       23.656 -31.028   9.551  0.00  0.00    +0.005 C 
ATOM     19  C   LIG    1       24.254 -29.649   9.310  0.00  0.00    +0.012 C 
ENDROOT
BRANCH   3  20
ATOM     20  C   LIG    1       25.056 -28.421  12.132  0.00  0.00    -0.004 A 
ATOM     21  C   LIG    1       25.557 -27.281  12.753  0.00  0.00    +0.119 A 
ATOM     22  N   LIG    1       24.835 -26.470  13.568  0.00  0.00    -0.263 NA
ATOM     23  C   LIG    1       23.550 -26.822  13.778  0.00  0.00    +0.111 A 
ATOM     24  C   LIG    1       22.957 -27.943  13.220  0.00  0.00    +0.020 A 
ATOM     25  C   LIG    1       23.727 -28.757  12.391  0.00  0.00    +0.011 A 
ENDBRANCH   3  20
BRANCH  15  26
ATOM     26  O   LIG    1       25.339 -31.744   3.668  0.00  0.00    -0.392 OA
ATOM     27  H   LIG    1       24.475 -32.178   3.772  0.00  0.00    +0.210 HD
ENDBRANCH  15  26
TORSDOF 2
ENDMDL
MODEL 2
REMARK VINA RESULT:      -5.6      3.444      7.222
REMARK  Name = *****
REMARK                            x       y       z     vdW  Elec       q    Type
REMARK                         _______ _______ _______ _____ _____    ______ ____
ROOT
ATOM      1  C   LIG    1       26.085 -28.648   8.703  0.00  0.00    +0.016 C 
ATOM      2  C   LIG    1       25.821 -29.741   9.769  0.00  0.00    -0.003 C 
ATOM      3  C   LIG    1       25.399 -31.010   9.046  0.00  0.00    -0.036 C 
ATOM      4  C   LIG    1       24.063 -31.108   8.959  0.00  0.00    -0.022 C 
ATOM      5  C   LIG    1       23.393 -29.958   9.639  0.00  0.00    +0.032 C 
ATOM      6  C   LIG    1       24.513 -29.417  10.565  0.00  0.00    +0.007 C 
ATOM      7  C   LIG    1       24.413 -30.105  11.964  0.00  0.00    +0.001 C 
ATOM      8  C   LIG    1       23.200 -29.629  12.785  0.00  0.00    +0.031 C 
ATOM      9  C   LIG    1       23.402 -28.255  13.326  0.00  0.00    -0.027 C 
ATOM     10  C   LIG    1       24.609 -27.796  13.692  0.00  0.00    -0.065 C 
ATOM     11  C   LIG    1       25.881 -28.659  13.662  0.00  0.00    -0.008 C 
ATOM     12  C   LIG    1       26.151 -29.116  15.128  0.00  0.00    +0.016 C 
ATOM     13  C   LIG    1       27.089 -27.749  13.272  0.00  0.00    +0.013 C 
ATOM     14  C   LIG    1       26.693 -26.571  12.378  0.00  0.00    +0.032 C 
ATOM     15  C   LIG    1       25.728 -25.624  13.108  0.00  0.00    +0.119 C 
ATOM     16  C   LIG    1       24.800 -26.354  14.093  0.00  0.00    +0.062 C 
ATOM     17  C   LIG    1       25.697 -30.000  12.816  0.00  0.00    +0.003 C 
ATOM     18  C   LIG    1       26.889 -30.521  12.003  0.00  0.00    +0.005 C 
ATOM     19  C   LIG    1       27.077 -29.841  10.653  0.00  0.00    +0.012 C 
ENDROOT
BRANCH   3  20
ATOM     20  C   LIG    1       26.310 -31.934   8.385  0.00  0.00    -0.004 A 
ATOM     21  C   LIG    1       26.541 -31.862   7.014  0.00  0.00    +0.119 A 
ATOM     22  N   LIG    1       27.362 -32.697   6.329  0.00  0.00    -0.263 NA
ATOM     23  C   LIG    1       27.977 -33.657   7.049  0.00  0.00    +0.111 A 
ATOM     24  C   LIG    1       27.807 -33.825   8.414  0.00  0.00    +0.020 A 
ATOM     25  C   LIG    1       26.953 -32.953   9.088  0.00  0.00    +0.011 A 
ENDBRANCH   3  20
BRANCH  15  26
ATOM     26  O   LIG    1       26.481 -24.654  13.839  0.00  0.00    -0.392 OA
ATOM     27  H   LIG    1       25.854 -24.136  14.372  0.00  0.00    +0.210 HD
ENDBRANCH  15  26
TORSDOF 2
ENDMDL
MODEL 3
REMARK VINA RESULT:      -5.6      3.880      6.698
REMARK  Name = *****
REMARK                            x       y       z     vdW  Elec       q    Type
REMARK                         _______ _______ _______ _____ _____    ______ ____
ROOT
ATOM      1  C   LIG    1       21.184 -29.724  11.120  0.00  0.00    +0.016 C 
ATOM      2  C   LIG    1       21.715 -29.599  12.570  0.00  0.00    -0.003 C 
ATOM      3  C   LIG    1       20.521 -29.417  13.493  0.00  0.00    -0.036 C 
ATOM      4  C   LIG    1       20.269 -28.119  13.725  0.00  0.00    -0.022 C 
ATOM      5  C   LIG    1       21.269 -27.245  13.039  0.00  0.00    +0.032 C 
ATOM      6  C   LIG    1       22.440 -28.225  12.765  0.00  0.00    +0.007 C 
ATOM      7  C   LIG    1       23.447 -28.183  13.957  0.00  0.00    +0.001 C 
ATOM      8  C   LIG    1       24.263 -26.877  14.011  0.00  0.00    +0.031 C 
ATOM      9  C   LIG    1       25.309 -26.832  12.950  0.00  0.00    -0.027 C 
ATOM     10  C   LIG    1       25.942 -27.934  12.517  0.00  0.00    -0.065 C 
ATOM     11  C   LIG    1       25.709 -29.329  13.120  0.00  0.00    -0.008 C 
ATOM     12  C   LIG    1       26.905 -29.612  14.080  0.00  0.00    +0.016 C 
ATOM     13  C   LIG    1       25.823 -30.389  11.978  0.00  0.00    +0.013 C 
ATOM     14  C   LIG    1       25.416 -29.843  10.606  0.00  0.00    +0.032 C 
ATOM     15  C   LIG    1       26.354 -28.709  10.164  0.00  0.00    +0.119 C 
ATOM     16  C   LIG    1       26.885 -27.874  11.340  0.00  0.00    +0.062 C 
ATOM     17  C   LIG    1       24.398 -29.398  14.028  0.00  0.00    +0.003 C 
ATOM     18  C   LIG    1       23.571 -30.689  14.021  0.00  0.00    +0.005 C 
ATOM     19  C   LIG    1       22.613 -30.818  12.844  0.00  0.00    +0.012 C 
ENDROOT
BRANCH   3  20
ATOM     20  C   LIG    1       19.650 -30.490  13.950  0.00  0.00    -0.004 A 
ATOM     21  C   LIG    1       18.460 -30.784  13.289  0.00  0.00    +0.119 A 
ATOM     22  N   LIG    1       17.592 -31.757  13.665  0.00  0.00    -0.263 NA
ATOM     23  C   LIG    1       17.928 -32.467  14.762  0.00  0.00    +0.111 A 
ATOM     24  C   LIG    1       19.080 -32.248  15.500  0.00  0.00    +0.020 A 
ATOM     25  C   LIG    1       19.948 -31.238  15.089  0.00  0.00    +0.011 A 
ENDBRANCH   3  20
BRANCH  15  26
ATOM     26  O   LIG    1       27.474 -29.267   9.472  0.00  0.00    -0.392 OA
ATOM     27  H   LIG    1       27.131 -29.744   8.696  0.00  0.00    +0.210 HD
ENDBRANCH  15  26
TORSDOF 2
ENDMDL
MODEL 4
REMARK VINA RESULT:      -5.2      1.389      1.745
REMARK  Name = *****
REMARK                            x       y       z     vdW  Elec       q    Type
REMARK                         _______ _______ _______ _____ _____    ______ ____
ROOT
ATOM      1  C   LIG    1       25.831 -28.553  10.203  0.00  0.00    +0.016 C 
ATOM      2  C   LIG    1       24.853 -29.665  10.659  0.00  0.00    -0.003 C 
ATOM      3  C   LIG    1       24.522 -29.428  12.124  0.00  0.00    -0.036 C 
ATOM      4  C   LIG    1       25.328 -30.133  12.933  0.00  0.00    -0.022 C 
ATOM      5  C   LIG    1       26.281 -30.974  12.145  0.00  0.00    +0.032 C 
ATOM      6  C   LIG    1       25.601 -31.038  10.753  0.00  0.00    +0.007 C 
ATOM      7  C   LIG    1       24.673 -32.292  10.681  0.00  0.00    +0.001 C 
ATOM      8  C   LIG    1       25.455 -33.617  10.604  0.00  0.00    +0.031 C 
ATOM      9  C   LIG    1       26.065 -33.824   9.260  0.00  0.00    -0.027 C 
ATOM     10  C   LIG    1       25.482 -33.388   8.132  0.00  0.00    -0.065 C 
ATOM     11  C   LIG    1       24.104 -32.707   8.105  0.00  0.00    -0.008 C 
ATOM     12  C   LIG    1       23.076 -33.784   7.642  0.00  0.00    +0.016 C 
ATOM     13  C   LIG    1       24.111 -31.617   6.986  0.00  0.00    +0.013 C 
ATOM     14  C   LIG    1       25.497 -31.016   6.737  0.00  0.00    +0.032 C 
ATOM     15  C   LIG    1       26.478 -32.084   6.230  0.00  0.00    +0.119 C 
ATOM     16  C   LIG    1       26.197 -33.481   6.805  0.00  0.00    +0.062 C 
ATOM     17  C   LIG    1       23.620 -32.238   9.553  0.00  0.00    +0.003 C 
ATOM     18  C   LIG    1       22.818 -30.937   9.670  0.00  0.00    +0.005 C 
ATOM     19  C   LIG    1       23.666 -29.672   9.680  0.00  0.00    +0.012 C 
ENDROOT
BRANCH   3  20
ATOM     20  C   LIG    1       23.565 -28.447  12.612  0.00  0.00    -0.004 A 
ATOM     21  C   LIG    1       22.194 -28.676  12.536  0.00  0.00    +0.119 A 
ATOM     22  N   LIG    1       21.244 -27.802  12.955  0.00  0.00    -0.263 NA
ATOM     23  C   LIG    1       21.688 -26.638  13.470  0.00  0.00    +0.111 A 
ATOM     24  C   LIG    1       23.028 -26.304  13.580  0.00  0.00    +0.020 A 
ATOM     25  C   LIG    1       23.978 -27.222  13.136  0.00  0.00    +0.011 A 
ENDBRANCH   3  20
BRANCH  15  26
ATOM     26  O   LIG    1       26.394 -32.162   4.805  0.00  0.00    -0.392 OA
ATOM     27  H   LIG    1       26.670 -31.301   4.447  0.00  0.00    +0.210 HD
ENDBRANCH  15  26
TORSDOF 2
ENDMDL
MODEL 5
REMARK VINA RESULT:      -5.2      3.325      5.171
REMARK  Name = *****
REMARK                            x       y       z     vdW  Elec       q    Type
REMARK                         _______ _______ _______ _____ _____    ______ ____
ROOT
ATOM      1  C   LIG    1       22.644 -27.446  12.922  0.00  0.00    +0.016 C 
ATOM      2  C   LIG    1       21.991 -28.841  13.081  0.00  0.00    -0.003 C 
ATOM      3  C   LIG    1       21.093 -28.803  14.307  0.00  0.00    -0.036 C 
ATOM      4  C   LIG    1       21.734 -29.240  15.402  0.00  0.00    -0.022 C 
ATOM      5  C   LIG    1       23.126 -29.675  15.075  0.00  0.00    +0.032 C 
ATOM      6  C   LIG    1       23.059 -29.890  13.541  0.00  0.00    +0.007 C 
ATOM      7  C   LIG    1       22.686 -31.376  13.237  0.00  0.00    +0.001 C 
ATOM      8  C   LIG    1       23.830 -32.360  13.546  0.00  0.00    +0.031 C 
ATOM      9  C   LIG    1       24.917 -32.284  12.529  0.00  0.00    -0.027 C 
ATOM     10  C   LIG    1       24.675 -32.010  11.238  0.00  0.00    -0.065 C 
ATOM     11  C   LIG    1       23.259 -31.825  10.668  0.00  0.00    -0.008 C 
ATOM     12  C   LIG    1       22.883 -33.158   9.951  0.00  0.00    +0.016 C 
ATOM     13  C   LIG    1       23.314 -30.740   9.545  0.00  0.00    +0.013 C 
ATOM     14  C   LIG    1       24.416 -29.700   9.765  0.00  0.00    +0.032 C 
ATOM     15  C   LIG    1       25.806 -30.354   9.725  0.00  0.00    +0.119 C 
ATOM     16  C   LIG    1       25.810 -31.793  10.266  0.00  0.00    +0.062 C 
ATOM     17  C   LIG    1       22.158 -31.618  11.806  0.00  0.00    +0.003 C 
ATOM     18  C   LIG    1       20.990 -30.665  11.528  0.00  0.00    +0.005 C 
ATOM     19  C   LIG    1       21.312 -29.193  11.745  0.00  0.00    +0.012 C 
ENDROOT
BRANCH   3  20
ATOM     20  C   LIG    1       19.759 -28.221  14.344  0.00  0.00    -0.004 A 
ATOM     21  C   LIG    1       18.623 -29.025  14.375  0.00  0.00    +0.119 A 
ATOM     22  N   LIG    1       17.350 -28.555  14.395  0.00  0.00    -0.263 NA
ATOM     23  C   LIG    1       17.206 -27.214  14.375  0.00  0.00    +0.111 A 
ATOM     24  C   LIG    1       18.268 -26.325  14.331  0.00  0.00    +0.020 A 
ATOM     25  C   LIG    1       19.563 -26.841  14.307  0.00  0.00    +0.011 A 
ENDBRANCH   3  20
BRANCH  15  26
ATOM     26  O   LIG    1       26.275 -30.384   8.375  0.00  0.00    -0.392 OA
ATOM     27  H   LIG    1       25.570 -30.020   7.812  0.00  0.00    +0.210 HD
ENDBRANCH  15  26
TORSDOF 2
ENDMDL
MODEL 6
REMARK VINA RESULT:      -5.2      3.697      6.847
REMARK  Name = *****
REMARK                            x       y       z     vdW  Elec       q    Type
REMARK                         _______ _______ _______ _____ _____    ______ ____
ROOT
ATOM      1  C   LIG    1       25.622 -32.919  10.567  0.00  0.00    +0.016 C 
ATOM      2  C   LIG    1       25.074 -31.494  10.302  0.00  0.00    -0.003 C 
ATOM      3  C   LIG    1       25.964 -30.834   9.263  0.00  0.00    -0.036 C 
ATOM      4  C   LIG    1       26.931 -30.099   9.835  0.00  0.00    -0.022 C 
ATOM      5  C   LIG    1       26.811 -30.117  11.325  0.00  0.00    +0.032 C 
ATOM      6  C   LIG    1       25.344 -30.572  11.539  0.00  0.00    +0.007 C 
ATOM      7  C   LIG    1       24.416 -29.319  11.631  0.00  0.00    +0.001 C 
ATOM      8  C   LIG    1       24.595 -28.533  12.944  0.00  0.00    +0.031 C 
ATOM      9  C   LIG    1       23.980 -29.241  14.103  0.00  0.00    -0.027 C 
ATOM     10  C   LIG    1       22.874 -29.991  13.982  0.00  0.00    -0.065 C 
ATOM     11  C   LIG    1       22.092 -30.132  12.666  0.00  0.00    -0.008 C 
ATOM     12  C   LIG    1       20.853 -29.191  12.773  0.00  0.00    +0.016 C 
ATOM     13  C   LIG    1       21.517 -31.582  12.582  0.00  0.00    +0.013 C 
ATOM     14  C   LIG    1       22.377 -32.615  13.318  0.00  0.00    +0.032 C 
ATOM     15  C   LIG    1       22.430 -32.316  14.824  0.00  0.00    +0.119 C 
ATOM     16  C   LIG    1       22.365 -30.813  15.142  0.00  0.00    +0.062 C 
ATOM     17  C   LIG    1       22.919 -29.619  11.400  0.00  0.00    +0.003 C 
ATOM     18  C   LIG    1       22.751 -30.360  10.068  0.00  0.00    +0.005 C 
ATOM     19  C   LIG    1       23.583 -31.629   9.943  0.00  0.00    +0.012 C 
ENDROOT
BRANCH   3  20
ATOM     20  C   LIG    1       25.895 -31.080   7.830  0.00  0.00    -0.004 A 
ATOM     21  C   LIG    1       26.621 -32.112   7.240  0.00  0.00    +0.119 A 
ATOM     22  N   LIG    1       26.618 -32.392   5.912  0.00  0.00    -0.263 NA
ATOM     23  C   LIG    1       25.858 -31.594   5.134  0.00  0.00    +0.111 A 
ATOM     24  C   LIG    1       25.108 -30.533   5.616  0.00  0.00    +0.020 A 
ATOM     25  C   LIG    1       25.136 -30.270   6.985  0.00  0.00    +0.011 A 
ENDBRANCH   3  20
BRANCH  15  26
ATOM     26  O   LIG    1       21.328 -32.957  15.470  0.00  0.00    -0.392 OA
ATOM     27  H   LIG    1       20.667 -32.272  15.672  0.00  0.00    +0.210 HD
ENDBRANCH  15  26
TORSDOF 2
ENDMDL
MODEL 7
REMARK VINA RESULT:      -5.2      2.585      4.173
REMARK  Name = *****
REMARK                            x       y       z     vdW  Elec       q    Type
REMARK                         _______ _______ _______ _____ _____    ______ ____
ROOT
ATOM      1  C   LIG    1       26.982 -27.825  11.361  0.00  0.00    +0.016 C 
ATOM      2  C   LIG    1       26.119 -28.276  12.567  0.00  0.00    -0.003 C 
ATOM      3  C   LIG    1       26.739 -27.700  13.830  0.00  0.00    -0.036 C 
ATOM      4  C   LIG    1       27.579 -28.572  14.409  0.00  0.00    -0.022 C 
ATOM      5  C   LIG    1       27.617 -29.865  13.658  0.00  0.00    +0.032 C 
ATOM      6  C   LIG    1       26.309 -29.808  12.827  0.00  0.00    +0.007 C 
ATOM      7  C   LIG    1       25.150 -30.482  13.628  0.00  0.00    +0.001 C 
ATOM      8  C   LIG    1       25.290 -32.014  13.714  0.00  0.00    +0.031 C 
ATOM      9  C   LIG    1       24.960 -32.675  12.420  0.00  0.00    -0.027 C 
ATOM     10  C   LIG    1       24.032 -32.189  11.580  0.00  0.00    -0.065 C 
ATOM     11  C   LIG    1       23.170 -30.958  11.901  0.00  0.00    -0.008 C 
ATOM     12  C   LIG    1       21.776 -31.488  12.357  0.00  0.00    +0.016 C 
ATOM     13  C   LIG    1       22.911 -30.173  10.575  0.00  0.00    +0.013 C 
ATOM     14  C   LIG    1       24.040 -30.329   9.552  0.00  0.00    +0.032 C 
ATOM     15  C   LIG    1       24.180 -31.792   9.104  0.00  0.00    +0.119 C 
ATOM     16  C   LIG    1       23.830 -32.797  10.213  0.00  0.00    +0.062 C 
ATOM     17  C   LIG    1       23.736 -30.111  13.131  0.00  0.00    +0.003 C 
ATOM     18  C   LIG    1       23.596 -28.585  13.094  0.00  0.00    +0.005 C 
ATOM     19  C   LIG    1       24.663 -27.874  12.273  0.00  0.00    +0.012 C 
ENDROOT
BRANCH   3  20
ATOM     20  C   LIG    1       26.580 -26.327  14.284  0.00  0.00    -0.004 A 
ATOM     21  C   LIG    1       27.527 -25.352  13.980  0.00  0.00    +0.119 A 
ATOM     22  N   LIG    1       27.454 -24.058  14.380  0.00  0.00    -0.263 NA
ATOM     23  C   LIG    1       26.383 -23.723  15.130  0.00  0.00    +0.111 A 
ATOM     24  C   LIG    1       25.391 -24.616  15.500  0.00  0.00    +0.020 A 
ATOM     25  C   LIG    1       25.498 -25.940  15.075  0.00  0.00    +0.011 A 
ENDBRANCH   3  20
BRANCH  15  26
ATOM     26  O   LIG    1       23.311 -32.030   7.995  0.00  0.00    -0.392 OA
ATOM     27  H   LIG    1       22.639 -31.327   7.993  0.00  0.00    +0.210 HD
ENDBRANCH  15  26
TORSDOF 2
ENDMDL
MODEL 8
REMARK VINA RESULT:      -4.9      4.608      7.074
REMARK  Name = *****
REMARK                            x       y       z     vdW  Elec       q    Type
REMARK                         _______ _______ _______ _____ _____    ______ ____
ROOT
ATOM      1  C   LIG    1       22.152 -28.011  13.209  0.00  0.00    +0.016 C 
ATOM      2  C   LIG    1       23.037 -29.278  13.094  0.00  0.00    -0.003 C 
ATOM      3  C   LIG    1       22.138 -30.494  13.241  0.00  0.00    -0.036 C 
ATOM      4  C   LIG    1       22.096 -30.927  14.511  0.00  0.00    -0.022 C 
ATOM      5  C   LIG    1       22.983 -30.106  15.390  0.00  0.00    +0.032 C 
ATOM      6  C   LIG    1       23.934 -29.429  14.370  0.00  0.00    +0.007 C 
ATOM      7  C   LIG    1       25.205 -30.314  14.171  0.00  0.00    +0.001 C 
ATOM      8  C   LIG    1       26.146 -30.299  15.390  0.00  0.00    +0.031 C 
ATOM      9  C   LIG    1       26.894 -29.014  15.498  0.00  0.00    -0.027 C 
ATOM     10  C   LIG    1       27.274 -28.311  14.420  0.00  0.00    -0.065 C 
ATOM     11  C   LIG    1       27.048 -28.794  12.978  0.00  0.00    -0.008 C 
ATOM     12  C   LIG    1       28.407 -29.371  12.476  0.00  0.00    +0.016 C 
ATOM     13  C   LIG    1       26.757 -27.550  12.078  0.00  0.00    +0.013 C 
ATOM     14  C   LIG    1       26.084 -26.402  12.835  0.00  0.00    +0.032 C 
ATOM     15  C   LIG    1       27.001 -25.860  13.943  0.00  0.00    +0.119 C 
ATOM     16  C   LIG    1       27.895 -26.943  14.567  0.00  0.00    +0.062 C 
ATOM     17  C   LIG    1       26.004 -29.999  12.888  0.00  0.00    +0.003 C 
ATOM     18  C   LIG    1       25.065 -30.063  11.677  0.00  0.00    +0.005 C 
ATOM     19  C   LIG    1       23.837 -29.170  11.784  0.00  0.00    +0.012 C 
ENDROOT
BRANCH   3  20
ATOM     20  C   LIG    1       21.296 -31.039  12.186  0.00  0.00    -0.004 A 
ATOM     21  C   LIG    1       19.943 -30.723  12.108  0.00  0.00    +0.119 A 
ATOM     22  N   LIG    1       19.094 -31.204  11.165  0.00  0.00    -0.263 NA
ATOM     23  C   LIG    1       19.625 -32.050  10.258  0.00  0.00    +0.111 A 
ATOM     24  C   LIG    1       20.955 -32.440  10.252  0.00  0.00    +0.020 A 
ATOM     25  C   LIG    1       21.799 -31.931  11.238  0.00  0.00    +0.011 A 
ENDBRANCH   3  20
BRANCH  15  26
ATOM     26  O   LIG    1       27.845 -24.842  13.400  0.00  0.00    -0.392 OA
ATOM     27  H   LIG    1       28.371 -25.246  12.689  0.00  0.00    +0.210 HD
ENDBRANCH  15  26
TORSDOF 2
ENDMDL
MODEL 9
REMARK VINA RESULT:      -4.9      3.563      7.190
REMARK  Name = *****
REMARK                            x       y       z     vdW  Elec       q    Type
REMARK                         _______ _______ _______ _____ _____    ______ ____
ROOT
ATOM      1  C   LIG    1       22.794 -30.392  10.250  0.00  0.00    +0.016 C 
ATOM      2  C   LIG    1       24.286 -30.694  10.540  0.00  0.00    -0.003 C 
ATOM      3  C   LIG    1       24.682 -31.922   9.735  0.00  0.00    -0.036 C 
ATOM      4  C   LIG    1       24.558 -33.047  10.457  0.00  0.00    -0.022 C 
ATOM      5  C   LIG    1       24.111 -32.746  11.851  0.00  0.00    +0.032 C 
ATOM      6  C   LIG    1       24.455 -31.241  11.998  0.00  0.00    +0.007 C 
ATOM      7  C   LIG    1       25.893 -31.088  12.588  0.00  0.00    +0.001 C 
ATOM      8  C   LIG    1       25.977 -31.478  14.076  0.00  0.00    +0.031 C 
ATOM      9  C   LIG    1       25.360 -30.445  14.956  0.00  0.00    -0.027 C 
ATOM     10  C   LIG    1       25.395 -29.136  14.661  0.00  0.00    -0.065 C 
ATOM     11  C   LIG    1       26.134 -28.568  13.438  0.00  0.00    -0.008 C 
ATOM     12  C   LIG    1       27.486 -27.989  13.956  0.00  0.00    +0.016 C 
ATOM     13  C   LIG    1       25.328 -27.344  12.895  0.00  0.00    +0.013 C 
ATOM     14  C   LIG    1       23.823 -27.448  13.160  0.00  0.00    +0.032 C 
ATOM     15  C   LIG    1       23.528 -27.455  14.668  0.00  0.00    +0.119 C 
ATOM     16  C   LIG    1       24.632 -28.134  15.494  0.00  0.00    +0.062 C 
ATOM     17  C   LIG    1       26.522 -29.694  12.375  0.00  0.00    +0.003 C 
ATOM     18  C   LIG    1       26.473 -29.339  10.884  0.00  0.00    +0.005 C 
ATOM     19  C   LIG    1       25.084 -29.408  10.264  0.00  0.00    +0.012 C 
ENDROOT
BRANCH   3  20
ATOM     20  C   LIG    1       25.002 -31.919   8.315  0.00  0.00    -0.004 A 
ATOM     21  C   LIG    1       24.002 -31.820   7.351  0.00  0.00    +0.119 A 
ATOM     22  N   LIG    1       24.223 -31.826   6.012  0.00  0.00    -0.263 NA
ATOM     23  C   LIG    1       25.508 -31.945   5.618  0.00  0.00    +0.111 A 
ATOM     24  C   LIG    1       26.575 -32.062   6.493  0.00  0.00    +0.020 A 
ATOM     25  C   LIG    1       26.314 -32.057   7.862  0.00  0.00    +0.011 A 
ENDBRANCH   3  20
BRANCH  15  26
ATOM     26  O   LIG    1       23.390 -26.109  15.128  0.00  0.00    -0.392 OA
ATOM     27  H   LIG    1       24.244 -25.840  15.509  0.00  0.00    +0.210 HD
ENDBRANCH  15  26
TORSDOF 2
ENDMDL
