MODEL 1
REMARK VINA RESULT:      -5.2      0.000      0.000
REMARK  Name = *****
REMARK                            x       y       z     vdW  Elec       q    Type
REMARK                         _______ _______ _______ _____ _____    ______ ____
ROOT
ATOM      1  C   LIG    1       23.568 -19.384   4.150  0.00  0.00    -0.047 A 
ATOM      2  C   LIG    1       22.372 -18.823   4.606  0.00  0.00    +0.007 A 
ATOM      3  C   LIG    1       22.175 -17.438   4.607  0.00  0.00    +0.046 A 
ATOM      4  C   LIG    1       23.169 -16.573   4.157  0.00  0.00    +0.121 A 
ATOM      5  C   LIG    1       24.375 -17.125   3.711  0.00  0.00    +0.046 A 
ATOM      6  C   LIG    1       24.574 -18.517   3.704  0.00  0.00    +0.007 A 
ENDROOT
BRANCH   1   7
ATOM      7  C   LIG    1       23.717 -20.886   4.069  0.00  0.00    +0.046 C 
BRANCH   7   8
ATOM      8  C   LIG    1       24.707 -21.497   5.058  0.00  0.00    +0.125 C 
BRANCH   8   9
ATOM      9  C   LIG    1       24.368 -21.162   6.490  0.00  0.00    +0.307 C 
ATOM     10  O   LIG    1       23.324 -21.442   7.038  0.00  0.00    -0.251 OA
BRANCH   9  12
ATOM     11  C   LIG    1       26.642 -20.574   6.365  0.00  0.00    +0.280 C 
ATOM     12  O   LIG    1       25.401 -20.467   7.057  0.00  0.00    -0.468 OA
ENDBRANCH   9  12
ENDBRANCH   8   9
ENDBRANCH   7   8
ENDBRANCH   1   7
BRANCH   4  13
ATOM     13  O   LIG    1       23.073 -15.204   4.114  0.00  0.00    -0.489 OA
BRANCH  13  14
ATOM     14  C   LIG    1       24.230 -14.428   4.511  0.00  0.00    +0.261 C 
BRANCH  14  15
ATOM     15  C   LIG    1       24.584 -13.473   3.361  0.00  0.00    +0.166 C 
BRANCH  15  16
ATOM     16  O   LIG    1       23.426 -13.342   2.514  0.00  0.00    -0.387 OA
ATOM     17  H   LIG    1       23.555 -14.010   1.811  0.00  0.00    +0.210 HD
ENDBRANCH  15  16
BRANCH  15  18
ATOM     18  C   LIG    1       25.799 -13.894   2.486  0.00  0.00    +0.115 C 
BRANCH  18  19
ATOM     19  N   LIG    1       27.024 -13.097   2.704  0.00  0.00    -0.311 NA
ATOM     20  H   LIG    1       26.724 -12.174   3.030  0.00  0.00    +0.122 HD
BRANCH  19  21
ATOM     21  C   LIG    1       27.952 -13.677   3.699  0.00  0.00    +0.048 C 
ATOM     22  C   LIG    1       27.632 -15.170   3.877  0.00  0.00    +0.024 C 
ATOM     23  C   LIG    1       27.865 -13.003   5.073  0.00  0.00    +0.024 C 
ENDBRANCH  19  21
ENDBRANCH  18  19
ENDBRANCH  15  18
ENDBRANCH  14  15
ENDBRANCH  13  14
ENDBRANCH   4  13
TORSDOF 11
ENDMDL
MODEL 2
REMARK VINA RESULT:      -5.1      2.639      6.658
REMARK  Name = *****
REMARK                            x       y       z     vdW  Elec       q    Type
REMARK                         _______ _______ _______ _____ _____    ______ ____
ROOT
ATOM      1  C   LIG    1       24.078 -16.137   3.955  0.00  0.00    -0.047 A 
ATOM      2  C   LIG    1       22.817 -16.565   4.379  0.00  0.00    +0.007 A 
ATOM      3  C   LIG    1       22.490 -17.923   4.423  0.00  0.00    +0.046 A 
ATOM      4  C   LIG    1       23.411 -18.895   4.040  0.00  0.00    +0.121 A 
ATOM      5  C   LIG    1       24.672 -18.475   3.601  0.00  0.00    +0.046 A 
ATOM      6  C   LIG    1       25.005 -17.109   3.560  0.00  0.00    +0.007 A 
ENDROOT
BRANCH   1   7
ATOM      7  C   LIG    1       24.438 -14.669   4.009  0.00  0.00    +0.046 C 
BRANCH   7   8
ATOM      8  C   LIG    1       25.920 -14.368   4.218  0.00  0.00    +0.125 C 
BRANCH   8   9
ATOM      9  C   LIG    1       26.633 -14.075   2.920  0.00  0.00    +0.307 C 
ATOM     10  O   LIG    1       26.097 -13.999   1.837  0.00  0.00    -0.251 OA
BRANCH   9  12
ATOM     11  C   LIG    1       28.320 -12.943   4.106  0.00  0.00    +0.280 C 
ATOM     12  O   LIG    1       27.975 -13.945   3.153  0.00  0.00    -0.468 OA
ENDBRANCH   9  12
ENDBRANCH   8   9
ENDBRANCH   7   8
ENDBRANCH   1   7
BRANCH   4  13
ATOM     13  O   LIG    1       23.189 -20.250   4.050  0.00  0.00    -0.489 OA
BRANCH  13  14
ATOM     14  C   LIG    1       24.298 -21.118   4.393  0.00  0.00    +0.261 C 
BRANCH  14  15
ATOM     15  C   LIG    1       24.122 -21.567   5.851  0.00  0.00    +0.166 C 
BRANCH  15  16
ATOM     16  O   LIG    1       22.854 -21.073   6.323  0.00  0.00    -0.387 OA
ATOM     17  H   LIG    1       23.069 -20.249   6.802  0.00  0.00    +0.210 HD
ENDBRANCH  15  16
BRANCH  15  18
ATOM     18  C   LIG    1       25.235 -21.107   6.837  0.00  0.00    +0.115 C 
BRANCH  18  19
ATOM     19  N   LIG    1       26.600 -21.539   6.473  0.00  0.00    -0.311 NA
ATOM     20  H   LIG    1       26.589 -21.746   5.470  0.00  0.00    +0.122 HD
BRANCH  19  21
ATOM     21  C   LIG    1       27.644 -20.526   6.740  0.00  0.00    +0.048 C 
ATOM     22  C   LIG    1       27.797 -19.622   5.508  0.00  0.00    +0.024 C 
ATOM     23  C   LIG    1       29.014 -21.137   7.058  0.00  0.00    +0.024 C 
ENDBRANCH  19  21
ENDBRANCH  18  19
ENDBRANCH  15  18
ENDBRANCH  14  15
ENDBRANCH  13  14
ENDBRANCH   4  13
TORSDOF 11
ENDMDL
MODEL 3
REMARK VINA RESULT:      -4.9      2.058      3.483
REMARK  Name = *****
REMARK                            x       y       z     vdW  Elec       q    Type
REMARK                         _______ _______ _______ _____ _____    ______ ____
ROOT
ATOM      1  C   LIG    1       25.993 -19.803   4.602  0.00  0.00    -0.047 A 
ATOM      2  C   LIG    1       27.229 -19.254   4.953  0.00  0.00    +0.007 A 
ATOM      3  C   LIG    1       27.619 -17.993   4.493  0.00  0.00    +0.046 A 
ATOM      4  C   LIG    1       26.788 -17.244   3.664  0.00  0.00    +0.121 A 
ATOM      5  C   LIG    1       25.554 -17.791   3.296  0.00  0.00    +0.046 A 
ATOM      6  C   LIG    1       25.156 -19.058   3.761  0.00  0.00    +0.007 A 
ENDROOT
BRANCH   1   7
ATOM      7  C   LIG    1       25.556 -21.126   5.191  0.00  0.00    +0.046 C 
BRANCH   7   8
ATOM      8  C   LIG    1       24.146 -21.572   4.817  0.00  0.00    +0.125 C 
BRANCH   8   9
ATOM      9  C   LIG    1       23.117 -21.132   5.830  0.00  0.00    +0.307 C 
ATOM     10  O   LIG    1       23.225 -21.266   7.029  0.00  0.00    -0.251 OA
BRANCH   9  12
ATOM     11  C   LIG    1       22.182 -19.224   4.819  0.00  0.00    +0.280 C 
ATOM     12  O   LIG    1       22.037 -20.594   5.185  0.00  0.00    -0.468 OA
ENDBRANCH   9  12
ENDBRANCH   8   9
ENDBRANCH   7   8
ENDBRANCH   1   7
BRANCH   4  13
ATOM     13  O   LIG    1       27.075 -15.998   3.164  0.00  0.00    -0.489 OA
BRANCH  13  14
ATOM     14  C   LIG    1       27.567 -14.993   4.084  0.00  0.00    +0.261 C 
BRANCH  14  15
ATOM     15  C   LIG    1       27.793 -13.693   3.296  0.00  0.00    +0.166 C 
BRANCH  15  16
ATOM     16  O   LIG    1       28.656 -12.841   4.073  0.00  0.00    -0.387 OA
ATOM     17  H   LIG    1       29.313 -13.446   4.471  0.00  0.00    +0.210 HD
ENDBRANCH  15  16
BRANCH  15  18
ATOM     18  C   LIG    1       26.508 -12.898   2.927  0.00  0.00    +0.115 C 
BRANCH  18  19
ATOM     19  N   LIG    1       25.440 -13.704   2.301  0.00  0.00    -0.311 NA
ATOM     20  H   LIG    1       25.711 -14.686   2.401  0.00  0.00    +0.122 HD
BRANCH  19  21
ATOM     21  C   LIG    1       24.105 -13.513   2.909  0.00  0.00    +0.048 C 
ATOM     22  C   LIG    1       23.982 -12.067   3.412  0.00  0.00    +0.024 C 
ATOM     23  C   LIG    1       23.837 -14.454   4.090  0.00  0.00    +0.024 C 
ENDBRANCH  19  21
ENDBRANCH  18  19
ENDBRANCH  15  18
ENDBRANCH  14  15
ENDBRANCH  13  14
ENDBRANCH   4  13
TORSDOF 11
ENDMDL
MODEL 4
REMARK VINA RESULT:      -4.5      2.563      6.799
REMARK  Name = *****
REMARK                            x       y       z     vdW  Elec       q    Type
REMARK                         _______ _______ _______ _____ _____    ______ ____
ROOT
ATOM      1  C   LIG    1       23.401 -16.167   4.242  0.00  0.00    -0.047 A 
ATOM      2  C   LIG    1       22.312 -16.896   4.727  0.00  0.00    +0.007 A 
ATOM      3  C   LIG    1       22.305 -18.294   4.695  0.00  0.00    +0.046 A 
ATOM      4  C   LIG    1       23.383 -19.004   4.173  0.00  0.00    +0.121 A 
ATOM      5  C   LIG    1       24.472 -18.282   3.672  0.00  0.00    +0.046 A 
ATOM      6  C   LIG    1       24.484 -16.876   3.708  0.00  0.00    +0.007 A 
ENDROOT
BRANCH   1   7
ATOM      7  C   LIG    1       23.424 -14.660   4.378  0.00  0.00    +0.046 C 
BRANCH   7   8
ATOM      8  C   LIG    1       23.973 -13.906   3.170  0.00  0.00    +0.125 C 
BRANCH   8   9
ATOM      9  C   LIG    1       25.373 -13.392   3.403  0.00  0.00    +0.307 C 
ATOM     10  O   LIG    1       26.066 -13.678   4.354  0.00  0.00    -0.251 OA
BRANCH   9  12
ATOM     11  C   LIG    1       24.631 -11.826   1.813  0.00  0.00    +0.280 C 
ATOM     12  O   LIG    1       25.721 -12.534   2.396  0.00  0.00    -0.468 OA
ENDBRANCH   9  12
ENDBRANCH   8   9
ENDBRANCH   7   8
ENDBRANCH   1   7
BRANCH   4  13
ATOM     13  O   LIG    1       23.474 -20.372   4.099  0.00  0.00    -0.489 OA
BRANCH  13  14
ATOM     14  C   LIG    1       24.701 -20.998   4.552  0.00  0.00    +0.261 C 
BRANCH  14  15
ATOM     15  C   LIG    1       24.456 -21.570   5.956  0.00  0.00    +0.166 C 
BRANCH  15  16
ATOM     16  O   LIG    1       23.314 -20.900   6.522  0.00  0.00    -0.387 OA
ATOM     17  H   LIG    1       23.671 -20.071   6.898  0.00  0.00    +0.210 HD
ENDBRANCH  15  16
BRANCH  15  18
ATOM     18  C   LIG    1       25.649 -21.449   6.949  0.00  0.00    +0.115 C 
BRANCH  18  19
ATOM     19  N   LIG    1       26.984 -21.481   6.318  0.00  0.00    -0.311 NA
ATOM     20  H   LIG    1       26.834 -21.535   5.307  0.00  0.00    +0.122 HD
BRANCH  19  21
ATOM     21  C   LIG    1       27.819 -20.297   6.615  0.00  0.00    +0.048 C 
ATOM     22  C   LIG    1       27.918 -19.421   5.356  0.00  0.00    +0.024 C 
ATOM     23  C   LIG    1       29.241 -20.654   7.062  0.00  0.00    +0.024 C 
ENDBRANCH  19  21
ENDBRANCH  18  19
ENDBRANCH  15  18
ENDBRANCH  14  15
ENDBRANCH  13  14
ENDBRANCH   4  13
TORSDOF 11
ENDMDL
MODEL 5
REMARK VINA RESULT:      -4.1      2.862      7.373
REMARK  Name = *****
REMARK                            x       y       z     vdW  Elec       q    Type
REMARK                         _______ _______ _______ _____ _____    ______ ____
ROOT
ATOM      1  C   LIG    1       26.766 -15.077   3.323  0.00  0.00    -0.047 A 
ATOM      2  C   LIG    1       25.911 -16.128   2.980  0.00  0.00    +0.007 A 
ATOM      3  C   LIG    1       26.152 -17.432   3.424  0.00  0.00    +0.046 A 
ATOM      4  C   LIG    1       27.257 -17.726   4.218  0.00  0.00    +0.121 A 
ATOM      5  C   LIG    1       28.127 -16.682   4.554  0.00  0.00    +0.046 A 
ATOM      6  C   LIG    1       27.884 -15.369   4.114  0.00  0.00    +0.007 A 
ENDROOT
BRANCH   1   7
ATOM      7  C   LIG    1       26.429 -13.661   2.910  0.00  0.00    +0.046 C 
BRANCH   7   8
ATOM      8  C   LIG    1       24.991 -13.443   2.445  0.00  0.00    +0.125 C 
BRANCH   8   9
ATOM      9  C   LIG    1       24.153 -12.738   3.484  0.00  0.00    +0.307 C 
ATOM     10  O   LIG    1       23.676 -11.632   3.354  0.00  0.00    -0.251 OA
BRANCH   9  12
ATOM     11  C   LIG    1       23.274 -14.706   4.425  0.00  0.00    +0.280 C 
ATOM     12  O   LIG    1       24.048 -13.523   4.599  0.00  0.00    -0.468 OA
ENDBRANCH   9  12
ENDBRANCH   8   9
ENDBRANCH   7   8
ENDBRANCH   1   7
BRANCH   4  13
ATOM     13  O   LIG    1       27.579 -18.968   4.706  0.00  0.00    -0.489 OA
BRANCH  13  14
ATOM     14  C   LIG    1       28.741 -19.082   5.564  0.00  0.00    +0.261 C 
BRANCH  14  15
ATOM     15  C   LIG    1       28.372 -19.981   6.754  0.00  0.00    +0.166 C 
BRANCH  15  16
ATOM     16  O   LIG    1       29.137 -21.197   6.653  0.00  0.00    -0.387 OA
ATOM     17  H   LIG    1       28.709 -21.815   7.277  0.00  0.00    +0.210 HD
ENDBRANCH  15  16
BRANCH  15  18
ATOM     18  C   LIG    1       26.865 -20.348   6.878  0.00  0.00    +0.115 C 
BRANCH  18  19
ATOM     19  N   LIG    1       26.386 -21.336   5.889  0.00  0.00    -0.311 NA
ATOM     20  H   LIG    1       26.739 -22.250   6.186  0.00  0.00    +0.122 HD
BRANCH  19  21
ATOM     21  C   LIG    1       24.913 -21.408   5.774  0.00  0.00    +0.048 C 
ATOM     22  C   LIG    1       24.466 -20.638   4.522  0.00  0.00    +0.024 C 
ATOM     23  C   LIG    1       24.181 -20.819   6.985  0.00  0.00    +0.024 C 
ENDBRANCH  19  21
ENDBRANCH  18  19
ENDBRANCH  15  18
ENDBRANCH  14  15
ENDBRANCH  13  14
ENDBRANCH   4  13
TORSDOF 11
ENDMDL
MODEL 6
REMARK VINA RESULT:      -3.9      2.746      6.857
REMARK  Name = *****
REMARK                            x       y       z     vdW  Elec       q    Type
REMARK                         _______ _______ _______ _____ _____    ______ ____
ROOT
ATOM      1  C   LIG    1       24.324 -14.817   4.251  0.00  0.00    -0.047 A 
ATOM      2  C   LIG    1       23.052 -15.055   4.781  0.00  0.00    +0.007 A 
ATOM      3  C   LIG    1       22.474 -16.326   4.732  0.00  0.00    +0.046 A 
ATOM      4  C   LIG    1       23.145 -17.398   4.148  0.00  0.00    +0.121 A 
ATOM      5  C   LIG    1       24.413 -17.166   3.603  0.00  0.00    +0.046 A 
ATOM      6  C   LIG    1       25.000 -15.889   3.655  0.00  0.00    +0.007 A 
ENDROOT
BRANCH   1   7
ATOM      7  C   LIG    1       24.965 -13.456   4.404  0.00  0.00    +0.046 C 
BRANCH   7   8
ATOM      8  C   LIG    1       25.480 -12.830   3.110  0.00  0.00    +0.125 C 
BRANCH   8   9
ATOM      9  C   LIG    1       26.732 -13.504   2.605  0.00  0.00    +0.307 C 
ATOM     10  O   LIG    1       26.753 -14.427   1.820  0.00  0.00    -0.251 OA
BRANCH   9  12
ATOM     11  C   LIG    1       27.966 -13.210   4.586  0.00  0.00    +0.280 C 
ATOM     12  O   LIG    1       27.829 -12.938   3.194  0.00  0.00    -0.468 OA
ENDBRANCH   9  12
ENDBRANCH   8   9
ENDBRANCH   7   8
ENDBRANCH   1   7
BRANCH   4  13
ATOM     13  O   LIG    1       22.667 -18.681   4.054  0.00  0.00    -0.489 OA
BRANCH  13  14
ATOM     14  C   LIG    1       22.346 -19.379   5.283  0.00  0.00    +0.261 C 
BRANCH  14  15
ATOM     15  C   LIG    1       22.690 -20.864   5.093  0.00  0.00    +0.166 C 
BRANCH  15  16
ATOM     16  O   LIG    1       21.474 -21.572   4.786  0.00  0.00    -0.387 OA
ATOM     17  H   LIG    1       21.366 -22.213   5.515  0.00  0.00    +0.210 HD
ENDBRANCH  15  16
BRANCH  15  18
ATOM     18  C   LIG    1       23.377 -21.556   6.306  0.00  0.00    +0.115 C 
BRANCH  18  19
ATOM     19  N   LIG    1       24.513 -20.807   6.883  0.00  0.00    -0.311 NA
ATOM     20  H   LIG    1       24.622 -21.130   7.849  0.00  0.00    +0.122 HD
BRANCH  19  21
ATOM     21  C   LIG    1       25.792 -21.005   6.167  0.00  0.00    +0.048 C 
ATOM     22  C   LIG    1       26.949 -20.537   7.062  0.00  0.00    +0.024 C 
ATOM     23  C   LIG    1       25.870 -20.236   4.843  0.00  0.00    +0.024 C 
ENDBRANCH  19  21
ENDBRANCH  18  19
ENDBRANCH  15  18
ENDBRANCH  14  15
ENDBRANCH  13  14
ENDBRANCH   4  13
TORSDOF 11
ENDMDL
MODEL 7
REMARK VINA RESULT:      -3.7      2.646      7.107
REMARK  Name = *****
REMARK                            x       y       z     vdW  Elec       q    Type
REMARK                         _______ _______ _______ _____ _____    ______ ____
ROOT
ATOM      1  C   LIG    1       27.122 -16.383   3.720  0.00  0.00    -0.047 A 
ATOM      2  C   LIG    1       25.942 -16.932   3.210  0.00  0.00    +0.007 A 
ATOM      3  C   LIG    1       25.586 -18.257   3.476  0.00  0.00    +0.046 A 
ATOM      4  C   LIG    1       26.399 -19.076   4.255  0.00  0.00    +0.121 A 
ATOM      5  C   LIG    1       27.589 -18.539   4.759  0.00  0.00    +0.046 A 
ATOM      6  C   LIG    1       27.948 -17.205   4.498  0.00  0.00    +0.007 A 
ENDROOT
BRANCH   1   7
ATOM      7  C   LIG    1       27.436 -14.920   3.498  0.00  0.00    +0.046 C 
BRANCH   7   8
ATOM      8  C   LIG    1       26.762 -13.955   4.470  0.00  0.00    +0.125 C 
BRANCH   8   9
ATOM      9  C   LIG    1       25.535 -13.307   3.875  0.00  0.00    +0.307 C 
ATOM     10  O   LIG    1       24.556 -12.971   4.505  0.00  0.00    -0.251 OA
BRANCH   9  12
ATOM     11  C   LIG    1       24.526 -12.740   1.828  0.00  0.00    +0.280 C 
ATOM     12  O   LIG    1       25.686 -13.192   2.521  0.00  0.00    -0.468 OA
ENDBRANCH   9  12
ENDBRANCH   8   9
ENDBRANCH   7   8
ENDBRANCH   1   7
BRANCH   4  13
ATOM     13  O   LIG    1       26.136 -20.385   4.576  0.00  0.00    -0.489 OA
BRANCH  13  14
ATOM     14  C   LIG    1       25.452 -20.655   5.824  0.00  0.00    +0.261 C 
BRANCH  14  15
ATOM     15  C   LIG    1       24.039 -21.161   5.497  0.00  0.00    +0.166 C 
BRANCH  15  16
ATOM     16  O   LIG    1       24.018 -21.570   4.116  0.00  0.00    -0.387 OA
ATOM     17  H   LIG    1       23.142 -21.986   3.992  0.00  0.00    +0.210 HD
ENDBRANCH  15  16
BRANCH  15  18
ATOM     18  C   LIG    1       22.888 -20.141   5.733  0.00  0.00    +0.115 C 
BRANCH  18  19
ATOM     19  N   LIG    1       21.844 -20.134   4.688  0.00  0.00    -0.311 NA
ATOM     20  H   LIG    1       20.948 -20.280   5.161  0.00  0.00    +0.122 HD
BRANCH  19  21
ATOM     21  C   LIG    1       21.775 -18.875   3.914  0.00  0.00    +0.048 C 
ATOM     22  C   LIG    1       22.274 -17.716   4.790  0.00  0.00    +0.024 C 
ATOM     23  C   LIG    1       20.360 -18.536   3.433  0.00  0.00    +0.024 C 
ENDBRANCH  19  21
ENDBRANCH  18  19
ENDBRANCH  15  18
ENDBRANCH  14  15
ENDBRANCH  13  14
ENDBRANCH   4  13
TORSDOF 11
ENDMDL
MODEL 8
REMARK VINA RESULT:      -2.6      1.304      1.968
REMARK  Name = *****
REMARK                            x       y       z     vdW  Elec       q    Type
REMARK                         _______ _______ _______ _____ _____    ______ ____
ROOT
ATOM      1  C   LIG    1       22.846 -17.678   4.644  0.00  0.00    -0.047 A 
ATOM      2  C   LIG    1       22.161 -16.644   5.289  0.00  0.00    +0.007 A 
ATOM      3  C   LIG    1       22.551 -15.310   5.135  0.00  0.00    +0.046 A 
ATOM      4  C   LIG    1       23.640 -14.969   4.338  0.00  0.00    +0.121 A 
ATOM      5  C   LIG    1       24.341 -15.998   3.699  0.00  0.00    +0.046 A 
ATOM      6  C   LIG    1       23.948 -17.341   3.847  0.00  0.00    +0.007 A 
ENDROOT
BRANCH   1   7
ATOM      7  C   LIG    1       22.345 -19.101   4.750  0.00  0.00    +0.046 C 
BRANCH   7   8
ATOM      8  C   LIG    1       23.238 -20.156   4.103  0.00  0.00    +0.125 C 
BRANCH   8   9
ATOM      9  C   LIG    1       24.421 -20.515   4.970  0.00  0.00    +0.307 C 
ATOM     10  O   LIG    1       25.507 -19.981   4.915  0.00  0.00    -0.251 OA
BRANCH   9  12
ATOM     11  C   LIG    1       24.739 -21.543   7.062  0.00  0.00    +0.280 C 
ATOM     12  O   LIG    1       24.087 -21.554   5.795  0.00  0.00    -0.468 OA
ENDBRANCH   9  12
ENDBRANCH   8   9
ENDBRANCH   7   8
ENDBRANCH   1   7
BRANCH   4  13
ATOM     13  O   LIG    1       24.099 -13.693   4.121  0.00  0.00    -0.489 OA
BRANCH  13  14
ATOM     14  C   LIG    1       23.914 -13.120   2.803  0.00  0.00    +0.261 C 
BRANCH  14  15
ATOM     15  C   LIG    1       25.292 -13.004   2.134  0.00  0.00    +0.166 C 
BRANCH  15  16
ATOM     16  O   LIG    1       25.748 -14.332   1.812  0.00  0.00    -0.387 OA
ATOM     17  H   LIG    1       24.959 -14.789   1.460  0.00  0.00    +0.210 HD
ENDBRANCH  15  16
BRANCH  15  18
ATOM     18  C   LIG    1       26.390 -12.289   2.973  0.00  0.00    +0.115 C 
BRANCH  18  19
ATOM     19  N   LIG    1       27.710 -12.953   2.957  0.00  0.00    -0.311 NA
ATOM     20  H   LIG    1       28.362 -12.307   2.502  0.00  0.00    +0.122 HD
BRANCH  19  21
ATOM     21  C   LIG    1       28.231 -13.290   4.300  0.00  0.00    +0.048 C 
ATOM     22  C   LIG    1       27.068 -13.751   5.192  0.00  0.00    +0.024 C 
ATOM     23  C   LIG    1       28.927 -12.112   4.994  0.00  0.00    +0.024 C 
ENDBRANCH  19  21
ENDBRANCH  18  19
ENDBRANCH  15  18
ENDBRANCH  14  15
ENDBRANCH  13  14
ENDBRANCH   4  13
TORSDOF 11
ENDMDL
MODEL 9
REMARK VINA RESULT:      -2.6      2.849      6.975
REMARK  Name = *****
REMARK                            x       y       z     vdW  Elec       q    Type
REMARK                         _______ _______ _______ _____ _____    ______ ____
ROOT
ATOM      1  C   LIG    1       24.857 -15.360   3.687  0.00  0.00    -0.047 A 
ATOM      2  C   LIG    1       23.766 -16.160   4.035  0.00  0.00    +0.007 A 
ATOM      3  C   LIG    1       23.853 -17.555   4.010  0.00  0.00    +0.046 A 
ATOM      4  C   LIG    1       25.031 -18.193   3.630  0.00  0.00    +0.121 A 
ATOM      5  C   LIG    1       26.125 -17.400   3.266  0.00  0.00    +0.046 A 
ATOM      6  C   LIG    1       26.042 -15.996   3.296  0.00  0.00    +0.007 A 
ENDROOT
BRANCH   1   7
ATOM      7  C   LIG    1       24.766 -13.856   3.816  0.00  0.00    +0.046 C 
BRANCH   7   8
ATOM      8  C   LIG    1       26.098 -13.114   3.748  0.00  0.00    +0.125 C 
BRANCH   8   9
ATOM      9  C   LIG    1       26.993 -13.434   4.920  0.00  0.00    +0.307 C 
ATOM     10  O   LIG    1       26.651 -13.403   6.082  0.00  0.00    -0.251 OA
BRANCH   9  12
ATOM     11  C   LIG    1       28.819 -12.751   3.604  0.00  0.00    +0.280 C 
ATOM     12  O   LIG    1       28.251 -13.729   4.471  0.00  0.00    -0.468 OA
ENDBRANCH   9  12
ENDBRANCH   8   9
ENDBRANCH   7   8
ENDBRANCH   1   7
BRANCH   4  13
ATOM     13  O   LIG    1       25.219 -19.552   3.576  0.00  0.00    -0.489 OA
BRANCH  13  14
ATOM     14  C   LIG    1       26.311 -20.119   4.342  0.00  0.00    +0.261 C 
BRANCH  14  15
ATOM     15  C   LIG    1       25.871 -20.203   5.812  0.00  0.00    +0.166 C 
BRANCH  15  16
ATOM     16  O   LIG    1       27.006 -20.616   6.597  0.00  0.00    -0.387 OA
ATOM     17  H   LIG    1       27.716 -19.987   6.361  0.00  0.00    +0.210 HD
ENDBRANCH  15  16
BRANCH  15  18
ATOM     18  C   LIG    1       24.685 -21.166   6.105  0.00  0.00    +0.115 C 
BRANCH  18  19
ATOM     19  N   LIG    1       23.392 -20.495   6.355  0.00  0.00    -0.311 NA
ATOM     20  H   LIG    1       23.582 -19.491   6.404  0.00  0.00    +0.122 HD
BRANCH  19  21
ATOM     21  C   LIG    1       22.374 -20.739   5.309  0.00  0.00    +0.048 C 
ATOM     22  C   LIG    1       23.002 -21.569   4.178  0.00  0.00    +0.024 C 
ATOM     23  C   LIG    1       21.811 -19.450   4.701  0.00  0.00    +0.024 C 
ENDBRANCH  19  21
ENDBRANCH  18  19
ENDBRANCH  15  18
ENDBRANCH  14  15
ENDBRANCH  13  14
ENDBRANCH   4  13
TORSDOF 11
ENDMDL
