MODEL 1
REMARK VINA RESULT:     -10.2      0.000      0.000
REMARK  Name = *****
REMARK                            x       y       z     vdW  Elec       q    Type
REMARK                         _______ _______ _______ _____ _____    ______ ____
ROOT
ATOM      1  N   LIG    1       29.775 -19.754   7.374  0.00  0.00    -0.296 NA
ATOM      2  C   LIG    1       29.663 -21.206   7.601  0.00  0.00    +0.100 C 
ATOM      3  C   LIG    1       28.206 -21.737   7.637  0.00  0.00    +0.100 C 
ATOM      4  N   LIG    1       27.347 -21.346   6.490  0.00  0.00    -0.289 NA
ATOM      5  C   LIG    1       27.575 -19.923   6.125  0.00  0.00    +0.100 C 
ATOM      6  C   LIG    1       29.057 -19.476   6.119  0.00  0.00    +0.100 C 
ENDROOT
BRANCH   1   7
ATOM      7  C   LIG    1       29.254 -18.999   8.535  0.00  0.00    +0.119 C 
BRANCH   7  11
ATOM      8  C   LIG    1       31.393 -17.229  12.766  0.00  0.00    +0.044 C 
ATOM      9  C   LIG    1       31.311 -17.277  11.271  0.00  0.00    -0.050 A 
ATOM     10  C   LIG    1       30.375 -18.101  10.626  0.00  0.00    +0.008 A 
ATOM     11  C   LIG    1       30.275 -18.118   9.229  0.00  0.00    -0.033 A 
ATOM     12  C   LIG    1       31.139 -17.299   8.483  0.00  0.00    +0.005 A 
ATOM     13  C   LIG    1       32.100 -16.510   9.113  0.00  0.00    +0.001 A 
ATOM     14  C   LIG    1       32.183 -16.497  10.500  0.00  0.00    +0.003 A 
ENDBRANCH   7  11
ENDBRANCH   1   7
BRANCH   4  15
ATOM     15  C   LIG    1       25.893 -21.566   6.800  0.00  0.00    +0.117 C 
BRANCH  15  16
ATOM     16  C   LIG    1       25.455 -23.036   6.715  0.00  0.00    -0.026 A 
ATOM     17  C   LIG    1       26.394 -24.078   6.673  0.00  0.00    +0.007 A 
ATOM     18  C   LIG    1       25.977 -25.406   6.547  0.00  0.00    +0.020 A 
ATOM     19  C   LIG    1       24.619 -25.701   6.459  0.00  0.00    +0.041 A 
ATOM     20 CL   LIG    1       24.107 -27.333   6.276  0.00  0.00    -0.084 Cl
ATOM     21  C   LIG    1       23.671 -24.682   6.512  0.00  0.00    +0.020 A 
ATOM     22  C   LIG    1       24.086 -23.355   6.640  0.00  0.00    +0.007 A 
ENDBRANCH  15  16
BRANCH  15  23
ATOM     23  C   LIG    1       24.919 -20.707   5.976  0.00  0.00    -0.026 A 
ATOM     24  C   LIG    1       25.199 -20.314   4.657  0.00  0.00    +0.005 A 
ATOM     25  C   LIG    1       24.258 -19.604   3.906  0.00  0.00    +0.000 A 
ATOM     26  C   LIG    1       23.017 -19.289   4.454  0.00  0.00    +0.000 A 
ATOM     27  C   LIG    1       22.716 -19.678   5.756  0.00  0.00    +0.000 A 
ATOM     28  C   LIG    1       23.658 -20.379   6.512  0.00  0.00    +0.005 A 
ENDBRANCH  15  23
ENDBRANCH   4  15
TORSDOF 5
ENDMDL
MODEL 2
REMARK VINA RESULT:      -9.8      3.647      6.887
REMARK  Name = *****
REMARK                            x       y       z     vdW  Elec       q    Type
REMARK                         _______ _______ _______ _____ _____    ______ ____
ROOT
ATOM      1  N   LIG    1       23.628 -19.100   3.472  0.00  0.00    -0.296 NA
ATOM      2  C   LIG    1       23.854 -20.512   3.113  0.00  0.00    +0.100 C 
ATOM      3  C   LIG    1       24.323 -21.404   4.291  0.00  0.00    +0.100 C 
ATOM      4  N   LIG    1       23.498 -21.332   5.524  0.00  0.00    -0.289 NA
ATOM      5  C   LIG    1       23.104 -19.928   5.810  0.00  0.00    +0.100 C 
ATOM      6  C   LIG    1       22.655 -19.107   4.577  0.00  0.00    +0.100 C 
ENDROOT
BRANCH   1   7
ATOM      7  C   LIG    1       24.905 -18.432   3.810  0.00  0.00    +0.119 C 
BRANCH   7  11
ATOM      8  C   LIG    1       27.106 -13.990   2.796  0.00  0.00    +0.044 C 
ATOM      9  C   LIG    1       25.921 -14.780   3.263  0.00  0.00    -0.050 A 
ATOM     10  C   LIG    1       25.956 -16.182   3.294  0.00  0.00    +0.008 A 
ATOM     11  C   LIG    1       24.860 -16.917   3.765  0.00  0.00    -0.033 A 
ATOM     12  C   LIG    1       23.720 -16.222   4.197  0.00  0.00    +0.005 A 
ATOM     13  C   LIG    1       23.660 -14.831   4.130  0.00  0.00    +0.001 A 
ATOM     14  C   LIG    1       24.757 -14.113   3.668  0.00  0.00    +0.003 A 
ENDBRANCH   7  11
ENDBRANCH   1   7
BRANCH   4  15
ATOM     15  C   LIG    1       24.231 -21.907   6.703  0.00  0.00    +0.117 C 
BRANCH  15  16
ATOM     16  C   LIG    1       25.548 -21.185   7.029  0.00  0.00    -0.026 A 
ATOM     17  C   LIG    1       26.477 -20.869   6.025  0.00  0.00    +0.007 A 
ATOM     18  C   LIG    1       27.690 -20.255   6.347  0.00  0.00    +0.020 A 
ATOM     19  C   LIG    1       27.985 -19.956   7.675  0.00  0.00    +0.041 A 
ATOM     20 CL   LIG    1       29.490 -19.226   8.073  0.00  0.00    -0.084 Cl
ATOM     21  C   LIG    1       27.071 -20.250   8.684  0.00  0.00    +0.020 A 
ATOM     22  C   LIG    1       25.857 -20.862   8.363  0.00  0.00    +0.007 A 
ENDBRANCH  15  16
BRANCH  15  23
ATOM     23  C   LIG    1       24.500 -23.419   6.622  0.00  0.00    -0.026 A 
ATOM     24  C   LIG    1       23.484 -24.347   6.343  0.00  0.00    +0.005 A 
ATOM     25  C   LIG    1       23.774 -25.706   6.195  0.00  0.00    +0.000 A 
ATOM     26  C   LIG    1       25.087 -26.159   6.308  0.00  0.00    +0.000 A 
ATOM     27  C   LIG    1       26.111 -25.254   6.575  0.00  0.00    +0.000 A 
ATOM     28  C   LIG    1       25.821 -23.897   6.733  0.00  0.00    +0.005 A 
ENDBRANCH  15  23
ENDBRANCH   4  15
TORSDOF 5
ENDMDL
MODEL 3
REMARK VINA RESULT:      -9.6      4.792      9.006
REMARK  Name = *****
REMARK                            x       y       z     vdW  Elec       q    Type
REMARK                         _______ _______ _______ _____ _____    ______ ____
ROOT
ATOM      1  N   LIG    1       25.469 -25.491   5.821  0.00  0.00    -0.296 NA
ATOM      2  C   LIG    1       26.340 -26.173   6.796  0.00  0.00    +0.100 C 
ATOM      3  C   LIG    1       25.810 -27.550   7.274  0.00  0.00    +0.100 C 
ATOM      4  N   LIG    1       25.425 -28.502   6.201  0.00  0.00    -0.289 NA
ATOM      5  C   LIG    1       24.696 -27.800   5.113  0.00  0.00    +0.100 C 
ATOM      6  C   LIG    1       25.289 -26.431   4.701  0.00  0.00    +0.100 C 
ENDROOT
BRANCH   1   7
ATOM      7  C   LIG    1       24.197 -25.074   6.454  0.00  0.00    +0.119 C 
BRANCH   7  11
ATOM      8  C   LIG    1       26.144 -20.861   8.473  0.00  0.00    +0.044 C 
ATOM      9  C   LIG    1       25.049 -21.563   7.729  0.00  0.00    -0.050 A 
ATOM     10  C   LIG    1       25.141 -22.931   7.429  0.00  0.00    +0.008 A 
ATOM     11  C   LIG    1       24.101 -23.592   6.765  0.00  0.00    -0.033 A 
ATOM     12  C   LIG    1       22.963 -22.857   6.395  0.00  0.00    +0.005 A 
ATOM     13  C   LIG    1       22.881 -21.488   6.651  0.00  0.00    +0.001 A 
ATOM     14  C   LIG    1       23.918 -20.846   7.317  0.00  0.00    +0.003 A 
ENDBRANCH   7  11
ENDBRANCH   1   7
BRANCH   4  15
ATOM     15  C   LIG    1       24.580 -29.620   6.743  0.00  0.00    +0.117 C 
BRANCH  15  16
ATOM     16  C   LIG    1       24.871 -29.963   8.212  0.00  0.00    -0.026 A 
ATOM     17  C   LIG    1       26.131 -30.430   8.619  0.00  0.00    +0.007 A 
ATOM     18  C   LIG    1       26.362 -30.783   9.950  0.00  0.00    +0.020 A 
ATOM     19  C   LIG    1       25.335 -30.675  10.885  0.00  0.00    +0.041 A 
ATOM     20 CL   LIG    1       25.613 -31.136  12.519  0.00  0.00    -0.084 Cl
ATOM     21  C   LIG    1       24.082 -30.202  10.504  0.00  0.00    +0.020 A 
ATOM     22  C   LIG    1       23.850 -29.847   9.174  0.00  0.00    +0.007 A 
ENDBRANCH  15  16
BRANCH  15  23
ATOM     23  C   LIG    1       24.610 -30.915   5.914  0.00  0.00    -0.026 A 
ATOM     24  C   LIG    1       25.661 -31.215   5.032  0.00  0.00    +0.005 A 
ATOM     25  C   LIG    1       25.701 -32.437   4.355  0.00  0.00    +0.000 A 
ATOM     26  C   LIG    1       24.701 -33.385   4.559  0.00  0.00    +0.000 A 
ATOM     27  C   LIG    1       23.656 -33.111   5.436  0.00  0.00    +0.000 A 
ATOM     28  C   LIG    1       23.608 -31.887   6.107  0.00  0.00    +0.005 A 
ENDBRANCH  15  23
ENDBRANCH   4  15
TORSDOF 5
ENDMDL
MODEL 4
REMARK VINA RESULT:      -9.1      3.377      8.391
REMARK  Name = *****
REMARK                            x       y       z     vdW  Elec       q    Type
REMARK                         _______ _______ _______ _____ _____    ______ ____
ROOT
ATOM      1  N   LIG    1       24.208 -25.179   6.854  0.00  0.00    -0.296 NA
ATOM      2  C   LIG    1       25.413 -24.659   7.527  0.00  0.00    +0.100 C 
ATOM      3  C   LIG    1       26.017 -23.392   6.868  0.00  0.00    +0.100 C 
ATOM      4  N   LIG    1       25.066 -22.277   6.621  0.00  0.00    -0.289 NA
ATOM      5  C   LIG    1       23.772 -22.796   6.107  0.00  0.00    +0.100 C 
ATOM      6  C   LIG    1       23.244 -24.066   6.817  0.00  0.00    +0.100 C 
ENDROOT
BRANCH   1   7
ATOM      7  C   LIG    1       24.544 -25.718   5.517  0.00  0.00    +0.119 C 
BRANCH   7  11
ATOM      8  C   LIG    1       24.022 -30.351   7.484  0.00  0.00    +0.044 C 
ATOM      9  C   LIG    1       24.576 -29.437   6.434  0.00  0.00    -0.050 A 
ATOM     10  C   LIG    1       24.293 -28.062   6.450  0.00  0.00    +0.008 A 
ATOM     11  C   LIG    1       24.841 -27.204   5.489  0.00  0.00    -0.033 A 
ATOM     12  C   LIG    1       25.675 -27.748   4.499  0.00  0.00    +0.005 A 
ATOM     13  C   LIG    1       25.928 -29.119   4.449  0.00  0.00    +0.001 A 
ATOM     14  C   LIG    1       25.383 -29.958   5.414  0.00  0.00    +0.003 A 
ENDBRANCH   7  11
ENDBRANCH   1   7
BRANCH   4  15
ATOM     15  C   LIG    1       25.638 -21.281   5.651  0.00  0.00    +0.117 C 
BRANCH  15  16
ATOM     16  C   LIG    1       26.860 -20.521   6.188  0.00  0.00    -0.026 A 
ATOM     17  C   LIG    1       27.769 -19.892   5.322  0.00  0.00    +0.007 A 
ATOM     18  C   LIG    1       28.901 -19.247   5.827  0.00  0.00    +0.020 A 
ATOM     19  C   LIG    1       29.134 -19.228   7.200  0.00  0.00    +0.041 A 
ATOM     20 CL   LIG    1       30.542 -18.457   7.818  0.00  0.00    -0.084 Cl
ATOM     21  C   LIG    1       28.238 -19.835   8.076  0.00  0.00    +0.020 A 
ATOM     22  C   LIG    1       27.105 -20.478   7.573  0.00  0.00    +0.007 A 
ENDBRANCH  15  16
BRANCH  15  23
ATOM     23  C   LIG    1       24.625 -20.265   5.096  0.00  0.00    -0.026 A 
ATOM     24  C   LIG    1       24.814 -19.615   3.865  0.00  0.00    +0.005 A 
ATOM     25  C   LIG    1       23.837 -18.760   3.350  0.00  0.00    +0.000 A 
ATOM     26  C   LIG    1       22.648 -18.552   4.046  0.00  0.00    +0.000 A 
ATOM     27  C   LIG    1       22.437 -19.193   5.263  0.00  0.00    +0.000 A 
ATOM     28  C   LIG    1       23.416 -20.041   5.785  0.00  0.00    +0.005 A 
ENDBRANCH  15  23
ENDBRANCH   4  15
TORSDOF 5
ENDMDL
MODEL 5
REMARK VINA RESULT:      -8.9      1.579      2.830
REMARK  Name = *****
REMARK                            x       y       z     vdW  Elec       q    Type
REMARK                         _______ _______ _______ _____ _____    ______ ____
ROOT
ATOM      1  N   LIG    1       27.091 -20.804   8.781  0.00  0.00    -0.296 NA
ATOM      2  C   LIG    1       25.774 -20.176   8.996  0.00  0.00    +0.100 C 
ATOM      3  C   LIG    1       24.672 -20.649   8.015  0.00  0.00    +0.100 C 
ATOM      4  N   LIG    1       24.505 -22.121   7.891  0.00  0.00    -0.289 NA
ATOM      5  C   LIG    1       25.828 -22.797   7.852  0.00  0.00    +0.100 C 
ATOM      6  C   LIG    1       26.871 -22.258   8.861  0.00  0.00    +0.100 C 
ENDROOT
BRANCH   1   7
ATOM      7  C   LIG    1       27.680 -20.363   7.497  0.00  0.00    +0.119 C 
BRANCH   7  11
ATOM      8  C   LIG    1       30.735 -17.104   9.876  0.00  0.00    +0.044 C 
ATOM      9  C   LIG    1       30.490 -18.096   8.779  0.00  0.00    -0.050 A 
ATOM     10  C   LIG    1       29.257 -18.759   8.668  0.00  0.00    +0.008 A 
ATOM     11  C   LIG    1       29.017 -19.658   7.622  0.00  0.00    -0.033 A 
ATOM     12  C   LIG    1       30.040 -19.893   6.688  0.00  0.00    +0.005 A 
ATOM     13  C   LIG    1       31.282 -19.271   6.815  0.00  0.00    +0.001 A 
ATOM     14  C   LIG    1       31.504 -18.375   7.854  0.00  0.00    +0.003 A 
ENDBRANCH   7  11
ENDBRANCH   1   7
BRANCH   4  15
ATOM     15  C   LIG    1       23.713 -22.476   6.664  0.00  0.00    +0.117 C 
BRANCH  15  16
ATOM     16  C   LIG    1       24.067 -23.849   6.073  0.00  0.00    -0.026 A 
ATOM     17  C   LIG    1       23.679 -25.041   6.706  0.00  0.00    +0.007 A 
ATOM     18  C   LIG    1       24.052 -26.280   6.178  0.00  0.00    +0.020 A 
ATOM     19  C   LIG    1       24.816 -26.337   5.015  0.00  0.00    +0.041 A 
ATOM     20 CL   LIG    1       25.297 -27.862   4.381  0.00  0.00    -0.084 Cl
ATOM     21  C   LIG    1       25.200 -25.166   4.365  0.00  0.00    +0.020 A 
ATOM     22  C   LIG    1       24.827 -23.928   4.891  0.00  0.00    +0.007 A 
ENDBRANCH  15  16
BRANCH  15  23
ATOM     23  C   LIG    1       23.753 -21.426   5.542  0.00  0.00    -0.026 A 
ATOM     24  C   LIG    1       22.626 -20.670   5.183  0.00  0.00    +0.005 A 
ATOM     25  C   LIG    1       22.715 -19.666   4.215  0.00  0.00    +0.000 A 
ATOM     26  C   LIG    1       23.934 -19.389   3.602  0.00  0.00    +0.000 A 
ATOM     27  C   LIG    1       25.067 -20.120   3.950  0.00  0.00    +0.000 A 
ATOM     28  C   LIG    1       24.978 -21.131   4.910  0.00  0.00    +0.005 A 
ENDBRANCH  15  23
ENDBRANCH   4  15
TORSDOF 5
ENDMDL
MODEL 6
REMARK VINA RESULT:      -8.5      2.288      4.223
REMARK  Name = *****
REMARK                            x       y       z     vdW  Elec       q    Type
REMARK                         _______ _______ _______ _____ _____    ______ ____
ROOT
ATOM      1  N   LIG    1       27.792 -20.345   8.784  0.00  0.00    -0.296 NA
ATOM      2  C   LIG    1       26.330 -20.157   8.805  0.00  0.00    +0.100 C 
ATOM      3  C   LIG    1       25.595 -20.720   7.562  0.00  0.00    +0.100 C 
ATOM      4  N   LIG    1       25.908 -22.128   7.208  0.00  0.00    -0.289 NA
ATOM      5  C   LIG    1       27.363 -22.394   7.353  0.00  0.00    +0.100 C 
ATOM      6  C   LIG    1       28.019 -21.791   8.619  0.00  0.00    +0.100 C 
ENDROOT
BRANCH   1   7
ATOM      7  C   LIG    1       28.413 -19.523   7.722  0.00  0.00    +0.119 C 
BRANCH   7  11
ATOM      8  C   LIG    1       30.976 -16.457  10.828  0.00  0.00    +0.044 C 
ATOM      9  C   LIG    1       30.934 -17.363   9.634  0.00  0.00    -0.050 A 
ATOM     10  C   LIG    1       29.747 -18.014   9.264  0.00  0.00    +0.008 A 
ATOM     11  C   LIG    1       29.701 -18.831   8.127  0.00  0.00    -0.033 A 
ATOM     12  C   LIG    1       30.870 -18.994   7.368  0.00  0.00    +0.005 A 
ATOM     13  C   LIG    1       32.065 -18.386   7.752  0.00  0.00    +0.001 A 
ATOM     14  C   LIG    1       32.095 -17.572   8.878  0.00  0.00    +0.003 A 
ENDBRANCH   7  11
ENDBRANCH   1   7
BRANCH   4  15
ATOM     15  C   LIG    1       25.468 -22.448   5.807  0.00  0.00    +0.117 C 
BRANCH  15  16
ATOM     16  C   LIG    1       24.419 -21.475   5.248  0.00  0.00    -0.026 A 
ATOM     17  C   LIG    1       24.764 -20.483   4.316  0.00  0.00    +0.007 A 
ATOM     18  C   LIG    1       23.806 -19.577   3.855  0.00  0.00    +0.020 A 
ATOM     19  C   LIG    1       22.496 -19.654   4.324  0.00  0.00    +0.041 A 
ATOM     20 CL   LIG    1       21.324 -18.521   3.776  0.00  0.00    -0.084 Cl
ATOM     21  C   LIG    1       22.131 -20.639   5.239  0.00  0.00    +0.020 A 
ATOM     22  C   LIG    1       23.088 -21.546   5.698  0.00  0.00    +0.007 A 
ENDBRANCH  15  16
BRANCH  15  23
ATOM     23  C   LIG    1       24.972 -23.889   5.598  0.00  0.00    -0.026 A 
ATOM     24  C   LIG    1       25.165 -24.580   4.391  0.00  0.00    +0.005 A 
ATOM     25  C   LIG    1       24.776 -25.915   4.260  0.00  0.00    +0.000 A 
ATOM     26  C   LIG    1       24.202 -26.588   5.336  0.00  0.00    +0.000 A 
ATOM     27  C   LIG    1       24.011 -25.924   6.545  0.00  0.00    +0.000 A 
ATOM     28  C   LIG    1       24.390 -24.586   6.676  0.00  0.00    +0.005 A 
ENDBRANCH  15  23
ENDBRANCH   4  15
TORSDOF 5
ENDMDL
MODEL 7
REMARK VINA RESULT:      -8.4      3.439      9.074
REMARK  Name = *****
REMARK                            x       y       z     vdW  Elec       q    Type
REMARK                         _______ _______ _______ _____ _____    ______ ____
ROOT
ATOM      1  N   LIG    1       25.461 -26.884   5.267  0.00  0.00    -0.296 NA
ATOM      2  C   LIG    1       25.017 -25.875   4.288  0.00  0.00    +0.100 C 
ATOM      3  C   LIG    1       24.704 -24.485   4.898  0.00  0.00    +0.100 C 
ATOM      4  N   LIG    1       25.764 -23.904   5.761  0.00  0.00    -0.289 NA
ATOM      5  C   LIG    1       26.356 -24.948   6.639  0.00  0.00    +0.100 C 
ATOM      6  C   LIG    1       26.631 -26.307   5.950  0.00  0.00    +0.100 C 
ENDROOT
BRANCH   1   7
ATOM      7  C   LIG    1       24.358 -27.247   6.185  0.00  0.00    +0.119 C 
BRANCH   7  11
ATOM      8  C   LIG    1       23.574 -32.240   5.945  0.00  0.00    +0.044 C 
ATOM      9  C   LIG    1       24.100 -31.038   6.668  0.00  0.00    -0.050 A 
ATOM     10  C   LIG    1       24.009 -29.757   6.101  0.00  0.00    +0.008 A 
ATOM     11  C   LIG    1       24.469 -28.631   6.795  0.00  0.00    -0.033 A 
ATOM     12  C   LIG    1       25.034 -28.808   8.068  0.00  0.00    +0.005 A 
ATOM     13  C   LIG    1       25.168 -30.081   8.621  0.00  0.00    +0.001 A 
ATOM     14  C   LIG    1       24.700 -31.190   7.925  0.00  0.00    +0.003 A 
ENDBRANCH   7  11
ENDBRANCH   1   7
BRANCH   4  15
ATOM     15  C   LIG    1       25.228 -22.778   6.598  0.00  0.00    +0.117 C 
BRANCH  15  16
ATOM     16  C   LIG    1       24.289 -21.829   5.837  0.00  0.00    -0.026 A 
ATOM     17  C   LIG    1       24.780 -20.929   4.878  0.00  0.00    +0.007 A 
ATOM     18  C   LIG    1       23.917 -20.041   4.231  0.00  0.00    +0.020 A 
ATOM     19  C   LIG    1       22.559 -20.044   4.539  0.00  0.00    +0.041 A 
ATOM     20 CL   LIG    1       21.503 -18.931   3.762  0.00  0.00    -0.084 Cl
ATOM     21  C   LIG    1       22.051 -20.938   5.479  0.00  0.00    +0.020 A 
ATOM     22  C   LIG    1       22.912 -21.827   6.125  0.00  0.00    +0.007 A 
ENDBRANCH  15  16
BRANCH  15  23
ATOM     23  C   LIG    1       26.298 -21.944   7.322  0.00  0.00    -0.026 A 
ATOM     24  C   LIG    1       27.658 -22.007   6.977  0.00  0.00    +0.005 A 
ATOM     25  C   LIG    1       28.594 -21.176   7.597  0.00  0.00    +0.000 A 
ATOM     26  C   LIG    1       28.187 -20.257   8.562  0.00  0.00    +0.000 A 
ATOM     27  C   LIG    1       26.843 -20.172   8.912  0.00  0.00    +0.000 A 
ATOM     28  C   LIG    1       25.906 -21.008   8.300  0.00  0.00    +0.005 A 
ENDBRANCH  15  23
ENDBRANCH   4  15
TORSDOF 5
ENDMDL
MODEL 8
REMARK VINA RESULT:      -8.1      3.559      8.332
REMARK  Name = *****
REMARK                            x       y       z     vdW  Elec       q    Type
REMARK                         _______ _______ _______ _____ _____    ______ ____
ROOT
ATOM      1  N   LIG    1       25.444 -26.849   6.343  0.00  0.00    -0.296 NA
ATOM      2  C   LIG    1       24.158 -26.268   5.916  0.00  0.00    +0.100 C 
ATOM      3  C   LIG    1       23.983 -24.769   6.273  0.00  0.00    +0.100 C 
ATOM      4  N   LIG    1       25.094 -23.872   5.860  0.00  0.00    -0.289 NA
ATOM      5  C   LIG    1       26.409 -24.514   6.118  0.00  0.00    +0.100 C 
ATOM      6  C   LIG    1       26.495 -26.013   5.738  0.00  0.00    +0.100 C 
ENDROOT
BRANCH   1   7
ATOM      7  C   LIG    1       25.523 -26.923   7.820  0.00  0.00    +0.119 C 
BRANCH   7  11
ATOM      8  C   LIG    1       27.935 -29.814  11.201  0.00  0.00    +0.044 C 
ATOM      9  C   LIG    1       27.040 -29.678  10.007  0.00  0.00    -0.050 A 
ATOM     10  C   LIG    1       26.693 -28.414   9.505  0.00  0.00    +0.008 A 
ATOM     11  C   LIG    1       25.885 -28.290   8.367  0.00  0.00    -0.033 A 
ATOM     12  C   LIG    1       25.421 -29.458   7.741  0.00  0.00    +0.005 A 
ATOM     13  C   LIG    1       25.725 -30.717   8.257  0.00  0.00    +0.001 A 
ATOM     14  C   LIG    1       26.533 -30.826   9.383  0.00  0.00    +0.003 A 
ENDBRANCH   7  11
ENDBRANCH   1   7
BRANCH   4  15
ATOM     15  C   LIG    1       25.021 -22.553   6.575  0.00  0.00    +0.117 C 
BRANCH  15  16
ATOM     16  C   LIG    1       24.129 -21.516   5.877  0.00  0.00    -0.026 A 
ATOM     17  C   LIG    1       24.125 -21.374   4.480  0.00  0.00    +0.007 A 
ATOM     18  C   LIG    1       23.343 -20.393   3.867  0.00  0.00    +0.020 A 
ATOM     19  C   LIG    1       22.560 -19.543   4.646  0.00  0.00    +0.041 A 
ATOM     20 CL   LIG    1       21.618 -18.318   3.892  0.00  0.00    -0.084 Cl
ATOM     21  C   LIG    1       22.539 -19.676   6.032  0.00  0.00    +0.020 A 
ATOM     22  C   LIG    1       23.320 -20.658   6.646  0.00  0.00    +0.007 A 
ENDBRANCH  15  16
BRANCH  15  23
ATOM     23  C   LIG    1       26.384 -21.909   6.884  0.00  0.00    -0.026 A 
ATOM     24  C   LIG    1       26.973 -20.958   6.035  0.00  0.00    +0.005 A 
ATOM     25  C   LIG    1       28.172 -20.331   6.384  0.00  0.00    +0.000 A 
ATOM     26  C   LIG    1       28.794 -20.631   7.594  0.00  0.00    +0.000 A 
ATOM     27  C   LIG    1       28.222 -21.564   8.454  0.00  0.00    +0.000 A 
ATOM     28  C   LIG    1       27.029 -22.200   8.103  0.00  0.00    +0.005 A 
ENDBRANCH  15  23
ENDBRANCH   4  15
TORSDOF 5
ENDMDL
MODEL 9
REMARK VINA RESULT:      -8.1      8.219     11.185
REMARK  Name = *****
REMARK                            x       y       z     vdW  Elec       q    Type
REMARK                         _______ _______ _______ _____ _____    ______ ____
ROOT
ATOM      1  N   LIG    1       23.648 -30.791  11.568  0.00  0.00    -0.296 NA
ATOM      2  C   LIG    1       22.776 -30.321  10.476  0.00  0.00    +0.100 C 
ATOM      3  C   LIG    1       23.492 -30.165   9.109  0.00  0.00    +0.100 C 
ATOM      4  N   LIG    1       24.272 -31.344   8.650  0.00  0.00    -0.289 NA
ATOM      5  C   LIG    1       25.024 -31.947   9.780  0.00  0.00    +0.100 C 
ATOM      6  C   LIG    1       24.237 -32.059  11.109  0.00  0.00    +0.100 C 
ENDROOT
BRANCH   1   7
ATOM      7  C   LIG    1       24.653 -29.762  11.918  0.00  0.00    +0.119 C 
BRANCH   7  11
ATOM      8  C   LIG    1       20.684 -26.920  13.252  0.00  0.00    +0.044 C 
ATOM      9  C   LIG    1       22.165 -27.142  13.190  0.00  0.00    -0.050 A 
ATOM     10  C   LIG    1       22.696 -28.313  12.628  0.00  0.00    +0.008 A 
ATOM     11  C   LIG    1       24.081 -28.502  12.538  0.00  0.00    -0.033 A 
ATOM     12  C   LIG    1       24.930 -27.499  13.032  0.00  0.00    +0.005 A 
ATOM     13  C   LIG    1       24.411 -26.351  13.632  0.00  0.00    +0.001 A 
ATOM     14  C   LIG    1       23.035 -26.173  13.707  0.00  0.00    +0.003 A 
ENDBRANCH   7  11
ENDBRANCH   1   7
BRANCH   4  15
ATOM     15  C   LIG    1       25.220 -30.971   7.546  0.00  0.00    +0.117 C 
BRANCH  15  16
ATOM     16  C   LIG    1       25.122 -29.500   7.112  0.00  0.00    -0.026 A 
ATOM     17  C   LIG    1       24.275 -29.101   6.066  0.00  0.00    +0.007 A 
ATOM     18  C   LIG    1       24.236 -27.767   5.653  0.00  0.00    +0.020 A 
ATOM     19  C   LIG    1       25.044 -26.823   6.281  0.00  0.00    +0.041 A 
ATOM     20 CL   LIG    1       25.014 -25.186   5.754  0.00  0.00    -0.084 Cl
ATOM     21  C   LIG    1       25.882 -27.196   7.329  0.00  0.00    +0.020 A 
ATOM     22  C   LIG    1       25.921 -28.529   7.744  0.00  0.00    +0.007 A 
ENDBRANCH  15  16
BRANCH  15  23
ATOM     23  C   LIG    1       25.142 -31.865   6.297  0.00  0.00    -0.026 A 
ATOM     24  C   LIG    1       23.999 -32.617   5.984  0.00  0.00    +0.005 A 
ATOM     25  C   LIG    1       23.928 -33.355   4.799  0.00  0.00    +0.000 A 
ATOM     26  C   LIG    1       24.992 -33.341   3.900  0.00  0.00    +0.000 A 
ATOM     27  C   LIG    1       26.131 -32.595   4.186  0.00  0.00    +0.000 A 
ATOM     28  C   LIG    1       26.208 -31.864   5.374  0.00  0.00    +0.005 A 
ENDBRANCH  15  23
ENDBRANCH   4  15
TORSDOF 5
ENDMDL
