MODEL 1
REMARK VINA RESULT:      -6.7      0.000      0.000
REMARK  Name = *****
REMARK                            x       y       z     vdW  Elec       q    Type
REMARK                         _______ _______ _______ _____ _____    ______ ____
ROOT
ATOM      1  C   LIG    1       28.969 -18.772   5.624  0.00  0.00    +0.195 C 
ATOM      2  N   LIG    1       28.227 -19.929   5.760  0.00  0.00    -0.293 N 
ATOM      3  H   LIG    1       27.451 -20.110   5.145  0.00  0.00    +0.172 HD
ATOM      4  C   LIG    1       28.415 -20.873   6.757  0.00  0.00    +0.280 C 
ATOM      5  O   LIG    1       27.709 -21.876   6.844  0.00  0.00    -0.265 OA
ATOM      6  C   LIG    1       29.507 -20.526   7.638  0.00  0.00    +0.172 A 
ATOM      7  N   LIG    1       30.014 -21.188   8.724  0.00  0.00    -0.229 NA
ATOM      8  C   LIG    1       30.998 -20.418   9.140  0.00  0.00    +0.203 A 
ATOM      9  N   LIG    1       31.142 -19.293   8.367  0.00  0.00    -0.291 N 
ATOM     10  C   LIG    1       30.182 -19.350   7.395  0.00  0.00    +0.171 A 
ATOM     11  N   LIG    1       29.957 -18.441   6.413  0.00  0.00    -0.196 NA
ENDROOT
BRANCH   1  12
ATOM     12  N   LIG    1       28.623 -17.963   4.591  0.00  0.00    -0.329 N 
ATOM     13  H   LIG    1       28.113 -18.389   3.828  0.00  0.00    +0.145 HD
ATOM     14  H   LIG    1       29.396 -17.386   4.275  0.00  0.00    +0.145 HD
ENDBRANCH   1  12
BRANCH   9  15
ATOM     15  C   LIG    1       32.120 -18.236   8.539  0.00  0.00    +0.287 C 
BRANCH  15  16
ATOM     16  O   LIG    1       32.351 -18.033   9.937  0.00  0.00    -0.357 OA
BRANCH  16  17
ATOM     17  C   LIG    1       32.416 -16.644  10.267  0.00  0.00    +0.190 C 
BRANCH  17  18
ATOM     18  C   LIG    1       31.582 -16.395  11.522  0.00  0.00    +0.184 C 
BRANCH  18  19
ATOM     19  O   LIG    1       30.190 -16.457  11.224  0.00  0.00    -0.393 OA
ATOM     20  H   LIG    1       29.788 -17.011  11.918  0.00  0.00    +0.209 HD
ENDBRANCH  18  19
ENDBRANCH  17  18
ENDBRANCH  16  17
ENDBRANCH  15  16
ENDBRANCH   9  15
TORSDOF 6
ENDMDL
MODEL 2
REMARK VINA RESULT:      -6.7      2.104      5.476
REMARK  Name = *****
REMARK                            x       y       z     vdW  Elec       q    Type
REMARK                         _______ _______ _______ _____ _____    ______ ____
ROOT
ATOM      1  C   LIG    1       30.761 -21.173   8.973  0.00  0.00    +0.195 C 
ATOM      2  N   LIG    1       31.667 -20.139   8.834  0.00  0.00    -0.293 N 
ATOM      3  H   LIG    1       32.466 -20.080   9.441  0.00  0.00    +0.172 HD
ATOM      4  C   LIG    1       31.530 -19.088   7.942  0.00  0.00    +0.280 C 
ATOM      5  O   LIG    1       32.357 -18.180   7.877  0.00  0.00    -0.265 OA
ATOM      6  C   LIG    1       30.334 -19.204   7.140  0.00  0.00    +0.172 A 
ATOM      7  N   LIG    1       29.846 -18.391   6.152  0.00  0.00    -0.229 NA
ATOM      8  C   LIG    1       28.731 -18.979   5.770  0.00  0.00    +0.203 A 
ATOM      9  N   LIG    1       28.486 -20.134   6.472  0.00  0.00    -0.291 N 
ATOM     10  C   LIG    1       29.512 -20.288   7.362  0.00  0.00    +0.171 A 
ATOM     11  N   LIG    1       29.673 -21.293   8.258  0.00  0.00    -0.196 NA
ENDROOT
BRANCH   1  12
ATOM     12  N   LIG    1       31.063 -22.103   9.914  0.00  0.00    -0.329 N 
ATOM     13  H   LIG    1       31.223 -23.047   9.589  0.00  0.00    +0.145 HD
ATOM     14  H   LIG    1       30.438 -22.062  10.713  0.00  0.00    +0.145 HD
ENDBRANCH   1  12
BRANCH   9  15
ATOM     15  C   LIG    1       27.354 -21.027   6.311  0.00  0.00    +0.287 C 
BRANCH  15  16
ATOM     16  O   LIG    1       26.143 -20.267   6.379  0.00  0.00    -0.357 OA
BRANCH  16  17
ATOM     17  C   LIG    1       25.171 -20.894   7.219  0.00  0.00    +0.190 C 
BRANCH  17  18
ATOM     18  C   LIG    1       25.875 -21.457   8.451  0.00  0.00    +0.184 C 
BRANCH  18  19
ATOM     19  O   LIG    1       25.959 -20.471   9.478  0.00  0.00    -0.393 OA
ATOM     20  H   LIG    1       26.391 -20.907  10.236  0.00  0.00    +0.209 HD
ENDBRANCH  18  19
ENDBRANCH  17  18
ENDBRANCH  16  17
ENDBRANCH  15  16
ENDBRANCH   9  15
TORSDOF 6
ENDMDL
MODEL 3
REMARK VINA RESULT:      -6.6      3.026      6.514
REMARK  Name = *****
REMARK                            x       y       z     vdW  Elec       q    Type
REMARK                         _______ _______ _______ _____ _____    ______ ____
ROOT
ATOM      1  C   LIG    1       30.563 -20.881   8.345  0.00  0.00    +0.195 C 
ATOM      2  N   LIG    1       30.902 -19.899   7.434  0.00  0.00    -0.293 N 
ATOM      3  H   LIG    1       31.809 -19.466   7.468  0.00  0.00    +0.172 HD
ATOM      4  C   LIG    1       30.042 -19.381   6.479  0.00  0.00    +0.280 C 
ATOM      5  O   LIG    1       30.390 -18.489   5.706  0.00  0.00    -0.265 OA
ATOM      6  C   LIG    1       28.740 -20.006   6.520  0.00  0.00    +0.172 A 
ATOM      7  N   LIG    1       27.628 -19.790   5.751  0.00  0.00    -0.229 NA
ATOM      8  C   LIG    1       26.737 -20.636   6.226  0.00  0.00    +0.203 A 
ATOM      9  N   LIG    1       27.233 -21.383   7.266  0.00  0.00    -0.291 N 
ATOM     10  C   LIG    1       28.524 -20.983   7.468  0.00  0.00    +0.171 A 
ATOM     11  N   LIG    1       29.390 -21.455   8.398  0.00  0.00    -0.196 NA
ENDROOT
BRANCH   1  12
ATOM     12  N   LIG    1       31.541 -21.247   9.212  0.00  0.00    -0.329 N 
ATOM     13  H   LIG    1       32.231 -21.903   8.873  0.00  0.00    +0.145 HD
ATOM     14  H   LIG    1       31.174 -21.497  10.125  0.00  0.00    +0.145 HD
ENDBRANCH   1  12
BRANCH   9  15
ATOM     15  C   LIG    1       26.528 -22.404   8.017  0.00  0.00    +0.287 C 
BRANCH  15  16
ATOM     16  O   LIG    1       25.470 -22.934   7.212  0.00  0.00    -0.357 OA
BRANCH  16  17
ATOM     17  C   LIG    1       25.710 -24.297   6.854  0.00  0.00    +0.190 C 
BRANCH  17  18
ATOM     18  C   LIG    1       25.171 -24.538   5.445  0.00  0.00    +0.184 C 
BRANCH  18  19
ATOM     19  O   LIG    1       24.803 -23.306   4.829  0.00  0.00    -0.393 OA
ATOM     20  H   LIG    1       25.102 -22.601   5.432  0.00  0.00    +0.209 HD
ENDBRANCH  18  19
ENDBRANCH  17  18
ENDBRANCH  16  17
ENDBRANCH  15  16
ENDBRANCH   9  15
TORSDOF 6
ENDMDL
MODEL 4
REMARK VINA RESULT:      -6.4      3.020      4.212
REMARK  Name = *****
REMARK                            x       y       z     vdW  Elec       q    Type
REMARK                         _______ _______ _______ _____ _____    ______ ____
ROOT
ATOM      1  C   LIG    1       24.890 -20.508   4.909  0.00  0.00    +0.195 C 
ATOM      2  N   LIG    1       23.941 -20.846   5.855  0.00  0.00    -0.293 N 
ATOM      3  H   LIG    1       22.977 -20.958   5.590  0.00  0.00    +0.172 HD
ATOM      4  C   LIG    1       24.194 -20.979   7.211  0.00  0.00    +0.280 C 
ATOM      5  O   LIG    1       23.304 -21.259   8.013  0.00  0.00    -0.265 OA
ATOM      6  C   LIG    1       25.584 -20.751   7.532  0.00  0.00    +0.172 A 
ATOM      7  N   LIG    1       26.235 -20.795   8.736  0.00  0.00    -0.229 NA
ATOM      8  C   LIG    1       27.485 -20.507   8.438  0.00  0.00    +0.203 A 
ATOM      9  N   LIG    1       27.661 -20.280   7.095  0.00  0.00    -0.291 N 
ATOM     10  C   LIG    1       26.439 -20.431   6.500  0.00  0.00    +0.171 A 
ATOM     11  N   LIG    1       26.150 -20.296   5.182  0.00  0.00    -0.196 NA
ENDROOT
BRANCH   1  12
ATOM     12  N   LIG    1       24.444 -20.411   3.631  0.00  0.00    -0.329 N 
ATOM     13  H   LIG    1       24.311 -21.277   3.126  0.00  0.00    +0.145 HD
ATOM     14  H   LIG    1       24.955 -19.717   3.094  0.00  0.00    +0.145 HD
ENDBRANCH   1  12
BRANCH   9  15
ATOM     15  C   LIG    1       28.901 -19.941   6.425  0.00  0.00    +0.287 C 
BRANCH  15  16
ATOM     16  O   LIG    1       29.996 -20.163   7.321  0.00  0.00    -0.357 OA
BRANCH  16  17
ATOM     17  C   LIG    1       31.059 -19.234   7.097  0.00  0.00    +0.190 C 
BRANCH  17  18
ATOM     18  C   LIG    1       31.620 -18.793   8.447  0.00  0.00    +0.184 C 
BRANCH  18  19
ATOM     19  O   LIG    1       32.058 -19.919   9.204  0.00  0.00    -0.393 OA
ATOM     20  H   LIG    1       32.955 -19.701   9.519  0.00  0.00    +0.209 HD
ENDBRANCH  18  19
ENDBRANCH  17  18
ENDBRANCH  16  17
ENDBRANCH  15  16
ENDBRANCH   9  15
TORSDOF 6
ENDMDL
MODEL 5
REMARK VINA RESULT:      -6.4      4.216      7.050
REMARK  Name = *****
REMARK                            x       y       z     vdW  Elec       q    Type
REMARK                         _______ _______ _______ _____ _____    ______ ____
ROOT
ATOM      1  C   LIG    1       26.044 -19.953   4.609  0.00  0.00    +0.195 C 
ATOM      2  N   LIG    1       27.360 -19.775   4.992  0.00  0.00    -0.293 N 
ATOM      3  H   LIG    1       28.022 -19.363   4.356  0.00  0.00    +0.172 HD
ATOM      4  C   LIG    1       27.892 -20.196   6.200  0.00  0.00    +0.280 C 
ATOM      5  O   LIG    1       29.078 -20.032   6.479  0.00  0.00    -0.265 OA
ATOM      6  C   LIG    1       26.902 -20.828   7.042  0.00  0.00    +0.172 A 
ATOM      7  N   LIG    1       27.018 -21.364   8.297  0.00  0.00    -0.229 NA
ATOM      8  C   LIG    1       25.805 -21.797   8.576  0.00  0.00    +0.203 A 
ATOM      9  N   LIG    1       24.920 -21.560   7.553  0.00  0.00    -0.291 N 
ATOM     10  C   LIG    1       25.618 -20.938   6.555  0.00  0.00    +0.171 A 
ATOM     11  N   LIG    1       25.137 -20.524   5.357  0.00  0.00    -0.196 NA
ENDROOT
BRANCH   1  12
ATOM     12  N   LIG    1       25.716 -19.484   3.379  0.00  0.00    -0.329 N 
ATOM     13  H   LIG    1       26.469 -19.388   2.710  0.00  0.00    +0.145 HD
ATOM     14  H   LIG    1       25.123 -18.661   3.424  0.00  0.00    +0.145 HD
ENDBRANCH   1  12
BRANCH   9  15
ATOM     15  C   LIG    1       23.512 -21.904   7.524  0.00  0.00    +0.287 C 
BRANCH  15  16
ATOM     16  O   LIG    1       23.262 -22.770   6.412  0.00  0.00    -0.357 OA
BRANCH  16  17
ATOM     17  C   LIG    1       23.638 -24.119   6.697  0.00  0.00    +0.190 C 
BRANCH  17  18
ATOM     18  C   LIG    1       24.766 -24.526   5.751  0.00  0.00    +0.184 C 
BRANCH  18  19
ATOM     19  O   LIG    1       24.833 -23.641   4.635  0.00  0.00    -0.393 OA
ATOM     20  H   LIG    1       24.019 -23.794   4.120  0.00  0.00    +0.209 HD
ENDBRANCH  18  19
ENDBRANCH  17  18
ENDBRANCH  16  17
ENDBRANCH  15  16
ENDBRANCH   9  15
TORSDOF 6
ENDMDL
MODEL 6
REMARK VINA RESULT:      -6.4      4.335      6.113
REMARK  Name = *****
REMARK                            x       y       z     vdW  Elec       q    Type
REMARK                         _______ _______ _______ _____ _____    ______ ____
ROOT
ATOM      1  C   LIG    1       25.389 -24.967   6.124  0.00  0.00    +0.195 C 
ATOM      2  N   LIG    1       24.016 -24.834   6.213  0.00  0.00    -0.293 N 
ATOM      3  H   LIG    1       23.412 -25.548   5.843  0.00  0.00    +0.172 HD
ATOM      4  C   LIG    1       23.365 -23.723   6.723  0.00  0.00    +0.280 C 
ATOM      5  O   LIG    1       22.138 -23.647   6.758  0.00  0.00    -0.265 OA
ATOM      6  C   LIG    1       24.290 -22.713   7.185  0.00  0.00    +0.172 A 
ATOM      7  N   LIG    1       24.055 -21.490   7.756  0.00  0.00    -0.229 NA
ATOM      8  C   LIG    1       25.257 -21.000   7.975  0.00  0.00    +0.203 A 
ATOM      9  N   LIG    1       26.250 -21.856   7.569  0.00  0.00    -0.291 N 
ATOM     10  C   LIG    1       25.638 -22.965   7.054  0.00  0.00    +0.171 A 
ATOM     11  N   LIG    1       26.239 -24.063   6.533  0.00  0.00    -0.196 NA
ENDROOT
BRANCH   1  12
ATOM     12  N   LIG    1       25.837 -26.127   5.578  0.00  0.00    -0.329 N 
ATOM     13  H   LIG    1       26.349 -26.750   6.188  0.00  0.00    +0.145 HD
ATOM     14  H   LIG    1       26.299 -25.981   4.686  0.00  0.00    +0.145 HD
ENDBRANCH   1  12
BRANCH   9  15
ATOM     15  C   LIG    1       27.681 -21.637   7.661  0.00  0.00    +0.287 C 
BRANCH  15  16
ATOM     16  O   LIG    1       27.923 -20.349   8.238  0.00  0.00    -0.357 OA
BRANCH  16  17
ATOM     17  C   LIG    1       29.090 -19.734   7.689  0.00  0.00    +0.190 C 
BRANCH  17  18
ATOM     18  C   LIG    1       30.318 -20.534   8.119  0.00  0.00    +0.184 C 
BRANCH  18  19
ATOM     19  O   LIG    1       31.465 -20.140   7.371  0.00  0.00    -0.393 OA
ATOM     20  H   LIG    1       31.857 -19.387   7.852  0.00  0.00    +0.209 HD
ENDBRANCH  18  19
ENDBRANCH  17  18
ENDBRANCH  16  17
ENDBRANCH  15  16
ENDBRANCH   9  15
TORSDOF 6
ENDMDL
MODEL 7
REMARK VINA RESULT:      -6.2      3.116      6.410
REMARK  Name = *****
REMARK                            x       y       z     vdW  Elec       q    Type
REMARK                         _______ _______ _______ _____ _____    ______ ____
ROOT
ATOM      1  C   LIG    1       28.848 -18.990   5.754  0.00  0.00    +0.195 C 
ATOM      2  N   LIG    1       29.666 -19.109   6.862  0.00  0.00    -0.293 N 
ATOM      3  H   LIG    1       30.528 -18.595   6.914  0.00  0.00    +0.172 HD
ATOM      4  C   LIG    1       29.431 -19.968   7.924  0.00  0.00    +0.280 C 
ATOM      5  O   LIG    1       30.207 -20.050   8.876  0.00  0.00    -0.265 OA
ATOM      6  C   LIG    1       28.207 -20.717   7.761  0.00  0.00    +0.172 A 
ATOM      7  N   LIG    1       27.621 -21.648   8.577  0.00  0.00    -0.229 NA
ATOM      8  C   LIG    1       26.527 -21.998   7.934  0.00  0.00    +0.203 A 
ATOM      9  N   LIG    1       26.387 -21.331   6.742  0.00  0.00    -0.291 N 
ATOM     10  C   LIG    1       27.469 -20.504   6.617  0.00  0.00    +0.171 A 
ATOM     11  N   LIG    1       27.739 -19.662   5.589  0.00  0.00    -0.196 NA
ENDROOT
BRANCH   1  12
ATOM     12  N   LIG    1       29.255 -18.105   4.810  0.00  0.00    -0.329 N 
ATOM     13  H   LIG    1       29.486 -17.172   5.127  0.00  0.00    +0.145 HD
ATOM     14  H   LIG    1       28.652 -18.105   3.993  0.00  0.00    +0.145 HD
ENDBRANCH   1  12
BRANCH   9  15
ATOM     15  C   LIG    1       25.305 -21.472   5.787  0.00  0.00    +0.287 C 
BRANCH  15  16
ATOM     16  O   LIG    1       24.151 -20.785   6.280  0.00  0.00    -0.357 OA
BRANCH  16  17
ATOM     17  C   LIG    1       22.965 -21.569   6.133  0.00  0.00    +0.190 C 
BRANCH  17  18
ATOM     18  C   LIG    1       23.128 -22.863   6.926  0.00  0.00    +0.184 C 
BRANCH  18  19
ATOM     19  O   LIG    1       22.100 -23.793   6.592  0.00  0.00    -0.393 OA
ATOM     20  H   LIG    1       22.375 -24.210   5.754  0.00  0.00    +0.209 HD
ENDBRANCH  18  19
ENDBRANCH  17  18
ENDBRANCH  16  17
ENDBRANCH  15  16
ENDBRANCH   9  15
TORSDOF 6
ENDMDL
MODEL 8
REMARK VINA RESULT:      -6.2      1.636      2.089
REMARK  Name = *****
REMARK                            x       y       z     vdW  Elec       q    Type
REMARK                         _______ _______ _______ _____ _____    ______ ____
ROOT
ATOM      1  C   LIG    1       26.981 -20.225   5.373  0.00  0.00    +0.195 C 
ATOM      2  N   LIG    1       26.329 -21.220   6.075  0.00  0.00    -0.293 N 
ATOM      3  H   LIG    1       25.394 -21.492   5.822  0.00  0.00    +0.172 HD
ATOM      4  C   LIG    1       26.839 -21.856   7.196  0.00  0.00    +0.280 C 
ATOM      5  O   LIG    1       26.204 -22.721   7.798  0.00  0.00    -0.265 OA
ATOM      6  C   LIG    1       28.160 -21.381   7.540  0.00  0.00    +0.172 A 
ATOM      7  N   LIG    1       29.000 -21.753   8.555  0.00  0.00    -0.229 NA
ATOM      8  C   LIG    1       30.064 -20.995   8.388  0.00  0.00    +0.203 A 
ATOM      9  N   LIG    1       29.940 -20.155   7.310  0.00  0.00    -0.291 N 
ATOM     10  C   LIG    1       28.713 -20.392   6.756  0.00  0.00    +0.171 A 
ATOM     11  N   LIG    1       28.174 -19.781   5.672  0.00  0.00    -0.196 NA
ENDROOT
BRANCH   1  12
ATOM     12  N   LIG    1       26.310 -19.713   4.310  0.00  0.00    -0.329 N 
ATOM     13  H   LIG    1       25.857 -20.375   3.694  0.00  0.00    +0.145 HD
ATOM     14  H   LIG    1       26.852 -19.016   3.810  0.00  0.00    +0.145 HD
ENDBRANCH   1  12
BRANCH   9  15
ATOM     15  C   LIG    1       30.917 -19.192   6.840  0.00  0.00    +0.287 C 
BRANCH  15  16
ATOM     16  O   LIG    1       31.923 -19.014   7.843  0.00  0.00    -0.357 OA
BRANCH  16  17
ATOM     17  C   LIG    1       31.799 -17.750   8.499  0.00  0.00    +0.190 C 
BRANCH  17  18
ATOM     18  C   LIG    1       31.455 -17.988   9.968  0.00  0.00    +0.184 C 
BRANCH  18  19
ATOM     19  O   LIG    1       30.042 -18.022  10.156  0.00  0.00    -0.393 OA
ATOM     20  H   LIG    1       29.888 -17.781  11.088  0.00  0.00    +0.209 HD
ENDBRANCH  18  19
ENDBRANCH  17  18
ENDBRANCH  16  17
ENDBRANCH  15  16
ENDBRANCH   9  15
TORSDOF 6
ENDMDL
MODEL 9
REMARK VINA RESULT:      -6.2      4.045      5.683
REMARK  Name = *****
REMARK                            x       y       z     vdW  Elec       q    Type
REMARK                         _______ _______ _______ _____ _____    ______ ____
ROOT
ATOM      1  C   LIG    1       23.107 -20.730   5.479  0.00  0.00    +0.195 C 
ATOM      2  N   LIG    1       22.518 -21.927   5.838  0.00  0.00    -0.293 N 
ATOM      3  H   LIG    1       21.534 -22.074   5.692  0.00  0.00    +0.172 HD
ATOM      4  C   LIG    1       23.175 -22.966   6.479  0.00  0.00    +0.280 C 
ATOM      5  O   LIG    1       22.595 -24.003   6.797  0.00  0.00    -0.265 OA
ATOM      6  C   LIG    1       24.570 -22.670   6.709  0.00  0.00    +0.172 A 
ATOM      7  N   LIG    1       25.552 -23.424   7.296  0.00  0.00    -0.229 NA
ATOM      8  C   LIG    1       26.624 -22.661   7.236  0.00  0.00    +0.203 A 
ATOM      9  N   LIG    1       26.370 -21.453   6.636  0.00  0.00    -0.291 N 
ATOM     10  C   LIG    1       25.046 -21.445   6.295  0.00  0.00    +0.171 A 
ATOM     11  N   LIG    1       24.366 -20.445   5.682  0.00  0.00    -0.196 NA
ENDROOT
BRANCH   1  12
ATOM     12  N   LIG    1       22.293 -19.829   4.873  0.00  0.00    -0.329 N 
ATOM     13  H   LIG    1       22.223 -19.882   3.865  0.00  0.00    +0.145 HD
ATOM     14  H   LIG    1       22.446 -18.883   5.208  0.00  0.00    +0.145 HD
ENDBRANCH   1  12
BRANCH   9  15
ATOM     15  C   LIG    1       27.317 -20.379   6.406  0.00  0.00    +0.287 C 
BRANCH  15  16
ATOM     16  O   LIG    1       28.606 -20.778   6.886  0.00  0.00    -0.357 OA
BRANCH  16  17
ATOM     17  C   LIG    1       29.263 -19.717   7.582  0.00  0.00    +0.190 C 
BRANCH  17  18
ATOM     18  C   LIG    1       30.499 -19.299   6.789  0.00  0.00    +0.184 C 
BRANCH  18  19
ATOM     19  O   LIG    1       31.641 -20.047   7.202  0.00  0.00    -0.393 OA
ATOM     20  H   LIG    1       32.030 -20.419   6.389  0.00  0.00    +0.209 HD
ENDBRANCH  18  19
ENDBRANCH  17  18
ENDBRANCH  16  17
ENDBRANCH  15  16
ENDBRANCH   9  15
TORSDOF 6
ENDMDL
