MODEL 1
REMARK VINA RESULT:      -0.6      0.000      0.000
REMARK  Name = *****
REMARK                            x       y       z     vdW  Elec       q    Type
REMARK                         _______ _______ _______ _____ _____    ______ ____
ROOT
ATOM      1  C   LIG    1       26.207 -16.125   3.313  0.00  0.00    -0.030 A 
ATOM      2  C   LIG    1       26.489 -17.420   2.929  0.00  0.00    +0.006 A 
ATOM      3  C   LIG    1       25.706 -18.523   3.286  0.00  0.00    +0.009 A 
ATOM      4  C   LIG    1       24.475 -18.356   3.908  0.00  0.00    -0.017 A 
ATOM      5  C   LIG    1       24.073 -17.005   4.058  0.00  0.00    +0.009 A 
ATOM      6  C   LIG    1       24.914 -15.909   3.762  0.00  0.00    +0.006 A 
ENDROOT
BRANCH   4   7
ATOM      7  C   LIG    1       23.682 -19.489   4.511  0.00  0.00    -0.007 A 
ATOM      8  C   LIG    1       24.115 -20.493   5.432  0.00  0.00    +0.030 A 
ATOM      9  C   LIG    1       23.165 -21.444   5.911  0.00  0.00    +0.012 A 
ATOM     10  C   LIG    1       21.836 -21.460   5.492  0.00  0.00    +0.001 A 
ATOM     11  C   LIG    1       21.408 -20.501   4.597  0.00  0.00    +0.001 A 
ATOM     12  C   LIG    1       22.307 -19.534   4.140  0.00  0.00    +0.009 A 
BRANCH   8  13
ATOM     13  C   LIG    1       25.483 -20.683   5.942  0.00  0.00    +0.205 A 
ATOM     14  N   LIG    1       25.869 -21.493   6.940  0.00  0.00    -0.133 NA
ATOM     15  N   LIG    1       27.195 -21.342   6.894  0.00  0.00    -0.176 N 
ATOM     16  H   LIG    1       27.818 -21.919   7.450  0.00  0.00    +0.214 HD
ATOM     17  N   LIG    1       27.653 -20.426   6.041  0.00  0.00    -0.049 NA
ATOM     18  N   LIG    1       26.568 -19.998   5.414  0.00  0.00    -0.108 NA
ENDBRANCH   8  13
ENDBRANCH   4   7
BRANCH   1  19
ATOM     19  C   LIG    1       27.277 -15.040   3.321  0.00  0.00    +0.143 C 
BRANCH  19  21
ATOM     20  C   LIG    1       25.732 -13.208   2.694  0.00  0.00    +0.216 C 
ATOM     21  N   LIG    1       26.759 -13.643   3.555  0.00  0.00    -0.283 N 
ATOM     22  O   LIG    1       25.272 -13.945   1.812  0.00  0.00    -0.276 OA
BRANCH  20  23
ATOM     23  C   LIG    1       25.085 -11.847   2.935  0.00  0.00    +0.096 C 
BRANCH  23  24
ATOM     24  C   LIG    1       23.801 -11.798   3.759  0.00  0.00    +0.009 C 
BRANCH  24  26
ATOM     25  C   LIG    1       22.804 -11.556   6.085  0.00  0.00    +0.004 C 
ATOM     26  C   LIG    1       24.076 -11.604   5.252  0.00  0.00    -0.003 C 
ENDBRANCH  24  26
ENDBRANCH  23  24
ENDBRANCH  20  23
BRANCH  21  27
ATOM     27  C   LIG    1       27.361 -12.823   4.675  0.00  0.00    +0.187 C 
BRANCH  27  28
ATOM     28  C   LIG    1       27.180 -13.344   6.171  0.00  0.00    +0.014 C 
ATOM     29  C   LIG    1       28.087 -14.500   6.623  0.00  0.00    +0.009 C 
ATOM     30  C   LIG    1       25.764 -13.680   6.658  0.00  0.00    +0.009 C 
ENDBRANCH  27  28
BRANCH  27  31
ATOM     31  C   LIG    1       28.824 -12.356   4.414  0.00  0.00    +0.326 C 
ATOM     32  O   LIG    1       29.475 -12.771   3.437  0.00  0.00    -0.249 OA
BRANCH  31  33
ATOM     33  O   LIG    1       29.455 -11.499   5.198  0.00  0.00    -0.479 OA
ATOM     34  H   LIG    1       30.018 -10.792   4.814  0.00  0.00    +0.295 HD
ENDBRANCH  31  33
ENDBRANCH  27  31
ENDBRANCH  21  27
ENDBRANCH  19  21
ENDBRANCH   1  19
TORSDOF 11
ENDMDL
MODEL 2
REMARK VINA RESULT:       1.6      1.472      3.312
REMARK  Name = *****
REMARK                            x       y       z     vdW  Elec       q    Type
REMARK                         _______ _______ _______ _____ _____    ______ ____
ROOT
ATOM      1  C   LIG    1       25.828 -16.266   2.939  0.00  0.00    -0.030 A 
ATOM      2  C   LIG    1       26.344 -17.541   2.834  0.00  0.00    +0.006 A 
ATOM      3  C   LIG    1       25.811 -18.651   3.498  0.00  0.00    +0.009 A 
ATOM      4  C   LIG    1       24.599 -18.569   4.172  0.00  0.00    -0.017 A 
ATOM      5  C   LIG    1       23.944 -17.317   4.048  0.00  0.00    +0.009 A 
ATOM      6  C   LIG    1       24.538 -16.189   3.440  0.00  0.00    +0.006 A 
ENDROOT
BRANCH   4   7
ATOM      7  C   LIG    1       24.072 -19.650   5.082  0.00  0.00    -0.007 A 
ATOM      8  C   LIG    1       24.795 -20.487   5.988  0.00  0.00    +0.030 A 
ATOM      9  C   LIG    1       24.071 -21.415   6.795  0.00  0.00    +0.012 A 
ATOM     10  C   LIG    1       22.689 -21.569   6.712  0.00  0.00    +0.001 A 
ATOM     11  C   LIG    1       21.981 -20.773   5.835  0.00  0.00    +0.001 A 
ATOM     12  C   LIG    1       22.658 -19.828   5.061  0.00  0.00    +0.009 A 
BRANCH   8  13
ATOM     13  C   LIG    1       26.255 -20.521   6.175  0.00  0.00    +0.205 A 
ATOM     14  N   LIG    1       27.165 -19.730   5.585  0.00  0.00    -0.133 NA
ATOM     15  N   LIG    1       28.284 -20.128   6.194  0.00  0.00    -0.176 N 
ATOM     16  H   LIG    1       29.165 -19.640   6.066  0.00  0.00    +0.214 HD
ATOM     17  N   LIG    1       28.167 -21.170   7.016  0.00  0.00    -0.049 NA
ATOM     18  N   LIG    1       26.869 -21.430   7.024  0.00  0.00    -0.108 NA
ENDBRANCH   8  13
ENDBRANCH   4   7
BRANCH   1  19
ATOM     19  C   LIG    1       26.661 -15.033   2.609  0.00  0.00    +0.143 C 
BRANCH  19  21
ATOM     20  C   LIG    1       27.482 -14.100   4.751  0.00  0.00    +0.216 C 
ATOM     21  N   LIG    1       26.618 -13.943   3.649  0.00  0.00    -0.283 N 
ATOM     22  O   LIG    1       28.245 -15.071   4.841  0.00  0.00    -0.276 OA
BRANCH  20  23
ATOM     23  C   LIG    1       27.572 -12.988   5.792  0.00  0.00    +0.096 C 
BRANCH  23  24
ATOM     24  C   LIG    1       28.804 -12.086   5.775  0.00  0.00    +0.009 C 
BRANCH  24  26
ATOM     25  C   LIG    1       29.346 -12.954   3.448  0.00  0.00    +0.004 C 
ATOM     26  C   LIG    1       29.247 -11.735   4.353  0.00  0.00    -0.003 C 
ENDBRANCH  24  26
ENDBRANCH  23  24
ENDBRANCH  20  23
BRANCH  21  27
ATOM     27  C   LIG    1       25.675 -12.778   3.443  0.00  0.00    +0.187 C 
BRANCH  27  28
ATOM     28  C   LIG    1       24.799 -12.745   2.110  0.00  0.00    +0.014 C 
ATOM     29  C   LIG    1       24.028 -11.448   1.813  0.00  0.00    +0.009 C 
ATOM     30  C   LIG    1       23.828 -13.903   1.848  0.00  0.00    +0.009 C 
ENDBRANCH  27  28
BRANCH  27  31
ATOM     31  C   LIG    1       24.815 -12.420   4.691  0.00  0.00    +0.326 C 
ATOM     32  O   LIG    1       23.760 -13.027   4.951  0.00  0.00    -0.249 OA
BRANCH  31  33
ATOM     33  O   LIG    1       25.149 -11.465   5.544  0.00  0.00    -0.479 OA
ATOM     34  H   LIG    1       25.982 -10.960   5.426  0.00  0.00    +0.295 HD
ENDBRANCH  31  33
ENDBRANCH  27  31
ENDBRANCH  21  27
ENDBRANCH  19  21
ENDBRANCH   1  19
TORSDOF 11
ENDMDL
