MODEL 1
REMARK VINA RESULT:      -4.8      0.000      0.000
REMARK  Name = *****
REMARK                            x       y       z     vdW  Elec       q    Type
REMARK                         _______ _______ _______ _____ _____    ______ ____
ROOT
ATOM      1  C   LIG    1       26.281 -13.592   5.716  0.00  0.00    +0.012 C 
ATOM      2  C   LIG    1       25.480 -13.157   4.472  0.00  0.00    -0.020 C 
ATOM      3  C   LIG    1       24.609 -11.964   4.911  0.00  0.00    +0.012 C 
ATOM      4  C   LIG    1       24.708 -14.304   3.763  0.00  0.00    +0.032 C 
ATOM      5  C   LIG    1       23.699 -15.079   4.576  0.00  0.00    +0.019 C 
ATOM      6  C   LIG    1       25.879 -15.143   3.238  0.00  0.00    +0.140 C 
ATOM      7  O   LIG    1       25.874 -16.350   3.060  0.00  0.00    -0.297 OA
ATOM      8  C   LIG    1       27.038 -14.223   2.913  0.00  0.00    +0.079 C 
ATOM      9  C   LIG    1       24.158 -13.636   2.482  0.00  0.00    +0.015 C 
ATOM     10  C   LIG    1       25.284 -12.645   2.106  0.00  0.00    +0.005 C 
ATOM     11  C   LIG    1       26.346 -12.871   3.214  0.00  0.00    +0.003 C 
ENDROOT
TORSDOF 0
ENDMDL
MODEL 2
REMARK VINA RESULT:      -4.2      1.274      2.130
REMARK  Name = *****
REMARK                            x       y       z     vdW  Elec       q    Type
REMARK                         _______ _______ _______ _____ _____    ______ ____
ROOT
ATOM      1  C   LIG    1       26.859 -13.982   5.830  0.00  0.00    +0.012 C 
ATOM      2  C   LIG    1       26.742 -13.570   4.349  0.00  0.00    -0.020 C 
ATOM      3  C   LIG    1       27.775 -12.447   4.127  0.00  0.00    +0.012 C 
ATOM      4  C   LIG    1       25.300 -13.233   3.881  0.00  0.00    +0.032 C 
ATOM      5  C   LIG    1       24.564 -12.134   4.610  0.00  0.00    +0.019 C 
ATOM      6  C   LIG    1       24.643 -14.615   3.987  0.00  0.00    +0.140 C 
ATOM      7  O   LIG    1       23.467 -14.834   4.222  0.00  0.00    -0.297 OA
ATOM      8  C   LIG    1       25.683 -15.677   3.694  0.00  0.00    +0.079 C 
ATOM      9  C   LIG    1       25.448 -13.035   2.355  0.00  0.00    +0.015 C 
ATOM     10  C   LIG    1       26.532 -14.074   1.982  0.00  0.00    +0.005 C 
ATOM     11  C   LIG    1       26.867 -14.745   3.341  0.00  0.00    +0.003 C 
ENDROOT
TORSDOF 0
ENDMDL
MODEL 3
REMARK VINA RESULT:      -4.2      1.528      2.702
REMARK  Name = *****
REMARK                            x       y       z     vdW  Elec       q    Type
REMARK                         _______ _______ _______ _____ _____    ______ ____
ROOT
ATOM      1  C   LIG    1       26.500 -12.007   2.562  0.00  0.00    +0.012 C 
ATOM      2  C   LIG    1       25.635 -13.254   2.835  0.00  0.00    -0.020 C 
ATOM      3  C   LIG    1       24.482 -13.215   1.812  0.00  0.00    +0.012 C 
ATOM      4  C   LIG    1       25.191 -13.425   4.314  0.00  0.00    +0.032 C 
ATOM      5  C   LIG    1       24.399 -12.304   4.943  0.00  0.00    +0.019 C 
ATOM      6  C   LIG    1       26.545 -13.698   4.980  0.00  0.00    +0.140 C 
ATOM      7  O   LIG    1       26.849 -13.417   6.127  0.00  0.00    -0.297 OA
ATOM      8  C   LIG    1       27.437 -14.432   4.000  0.00  0.00    +0.079 C 
ATOM      9  C   LIG    1       24.509 -14.812   4.332  0.00  0.00    +0.015 C 
ATOM     10  C   LIG    1       25.352 -15.618   3.316  0.00  0.00    +0.005 C 
ATOM     11  C   LIG    1       26.419 -14.594   2.845  0.00  0.00    +0.003 C 
ENDROOT
TORSDOF 0
ENDMDL
MODEL 4
REMARK VINA RESULT:      -4.1      1.799      3.196
REMARK  Name = *****
REMARK                            x       y       z     vdW  Elec       q    Type
REMARK                         _______ _______ _______ _____ _____    ______ ____
ROOT
ATOM      1  C   LIG    1       23.805 -15.146   4.449  0.00  0.00    +0.012 C 
ATOM      2  C   LIG    1       25.019 -14.526   3.729  0.00  0.00    -0.020 C 
ATOM      3  C   LIG    1       25.923 -15.703   3.309  0.00  0.00    +0.012 C 
ATOM      4  C   LIG    1       25.740 -13.401   4.522  0.00  0.00    +0.032 C 
ATOM      5  C   LIG    1       26.278 -13.741   5.891  0.00  0.00    +0.019 C 
ATOM      6  C   LIG    1       24.652 -12.320   4.519  0.00  0.00    +0.140 C 
ATOM      7  O   LIG    1       24.481 -11.472   5.379  0.00  0.00    -0.297 OA
ATOM      8  C   LIG    1       23.849 -12.433   3.239  0.00  0.00    +0.079 C 
ATOM      9  C   LIG    1       26.777 -12.853   3.517  0.00  0.00    +0.015 C 
ATOM     10  C   LIG    1       26.035 -12.970   2.165  0.00  0.00    +0.005 C 
ATOM     11  C   LIG    1       24.659 -13.566   2.563  0.00  0.00    +0.003 C 
ENDROOT
TORSDOF 0
ENDMDL
MODEL 5
REMARK VINA RESULT:      -3.7      1.794      2.949
REMARK  Name = *****
REMARK                            x       y       z     vdW  Elec       q    Type
REMARK                         _______ _______ _______ _____ _____    ______ ____
ROOT
ATOM      1  C   LIG    1       24.776 -12.400   3.743  0.00  0.00    +0.012 C 
ATOM      2  C   LIG    1       25.306 -13.838   3.911  0.00  0.00    -0.020 C 
ATOM      3  C   LIG    1       24.173 -14.643   4.579  0.00  0.00    +0.012 C 
ATOM      4  C   LIG    1       26.686 -13.944   4.616  0.00  0.00    +0.032 C 
ATOM      5  C   LIG    1       26.813 -13.359   6.002  0.00  0.00    +0.019 C 
ATOM      6  C   LIG    1       27.586 -13.283   3.565  0.00  0.00    +0.140 C 
ATOM      7  O   LIG    1       28.616 -12.670   3.786  0.00  0.00    -0.297 OA
ATOM      8  C   LIG    1       27.022 -13.566   2.187  0.00  0.00    +0.079 C 
ATOM      9  C   LIG    1       27.046 -15.441   4.491  0.00  0.00    +0.015 C 
ATOM     10  C   LIG    1       26.465 -15.816   3.107  0.00  0.00    +0.005 C 
ATOM     11  C   LIG    1       25.848 -14.483   2.606  0.00  0.00    +0.003 C 
ENDROOT
TORSDOF 0
ENDMDL
MODEL 6
REMARK VINA RESULT:      -3.4      1.512      2.815
REMARK  Name = *****
REMARK                            x       y       z     vdW  Elec       q    Type
REMARK                         _______ _______ _______ _____ _____    ______ ____
ROOT
ATOM      1  C   LIG    1       25.594 -15.710   3.404  0.00  0.00    +0.012 C 
ATOM      2  C   LIG    1       24.932 -14.472   4.041  0.00  0.00    -0.020 C 
ATOM      3  C   LIG    1       23.470 -14.864   4.336  0.00  0.00    +0.012 C 
ATOM      4  C   LIG    1       25.106 -13.156   3.234  0.00  0.00    +0.032 C 
ATOM      5  C   LIG    1       24.599 -13.132   1.812  0.00  0.00    +0.019 C 
ATOM      6  C   LIG    1       26.618 -12.943   3.373  0.00  0.00    +0.140 C 
ATOM      7  O   LIG    1       27.341 -12.384   2.565  0.00  0.00    -0.297 OA
ATOM      8  C   LIG    1       27.072 -13.490   4.711  0.00  0.00    +0.079 C 
ATOM      9  C   LIG    1       24.516 -12.075   4.168  0.00  0.00    +0.015 C 
ATOM     10  C   LIG    1       24.912 -12.587   5.573  0.00  0.00    +0.005 C 
ATOM     11  C   LIG    1       25.687 -13.897   5.271  0.00  0.00    +0.003 C 
ENDROOT
TORSDOF 0
ENDMDL
MODEL 7
REMARK VINA RESULT:      -3.3      0.978      2.833
REMARK  Name = *****
REMARK                            x       y       z     vdW  Elec       q    Type
REMARK                         _______ _______ _______ _____ _____    ______ ____
ROOT
ATOM      1  C   LIG    1       24.230 -13.222   1.812  0.00  0.00    +0.012 C 
ATOM      2  C   LIG    1       24.838 -12.976   3.207  0.00  0.00    -0.020 C 
ATOM      3  C   LIG    1       24.979 -11.448   3.357  0.00  0.00    +0.012 C 
ATOM      4  C   LIG    1       26.132 -13.784   3.503  0.00  0.00    +0.032 C 
ATOM      5  C   LIG    1       27.305 -13.597   2.570  0.00  0.00    +0.019 C 
ATOM      6  C   LIG    1       25.568 -15.210   3.534  0.00  0.00    +0.140 C 
ATOM      7  O   LIG    1       26.171 -16.226   3.235  0.00  0.00    -0.297 OA
ATOM      8  C   LIG    1       24.147 -15.165   4.057  0.00  0.00    +0.079 C 
ATOM      9  C   LIG    1       26.414 -13.489   4.993  0.00  0.00    +0.015 C 
ATOM     10  C   LIG    1       24.992 -13.393   5.595  0.00  0.00    +0.005 C 
ATOM     11  C   LIG    1       24.069 -13.652   4.375  0.00  0.00    +0.003 C 
ENDROOT
TORSDOF 0
ENDMDL
MODEL 8
REMARK VINA RESULT:      -3.2      1.295      2.974
REMARK  Name = *****
REMARK                            x       y       z     vdW  Elec       q    Type
REMARK                         _______ _______ _______ _____ _____    ______ ____
ROOT
ATOM      1  C   LIG    1       24.976 -13.132   1.812  0.00  0.00    +0.012 C 
ATOM      2  C   LIG    1       25.790 -13.300   3.111  0.00  0.00    -0.020 C 
ATOM      3  C   LIG    1       27.267 -13.077   2.730  0.00  0.00    +0.012 C 
ATOM      4  C   LIG    1       25.507 -14.615   3.889  0.00  0.00    +0.032 C 
ATOM      5  C   LIG    1       25.728 -15.921   3.164  0.00  0.00    +0.019 C 
ATOM      6  C   LIG    1       24.058 -14.370   4.328  0.00  0.00    +0.140 C 
ATOM      7  O   LIG    1       23.212 -15.228   4.517  0.00  0.00    -0.297 OA
ATOM      8  C   LIG    1       23.855 -12.886   4.552  0.00  0.00    +0.079 C 
ATOM      9  C   LIG    1       26.303 -14.440   5.202  0.00  0.00    +0.015 C 
ATOM     10  C   LIG    1       26.170 -12.924   5.480  0.00  0.00    +0.005 C 
ATOM     11  C   LIG    1       25.308 -12.417   4.294  0.00  0.00    +0.003 C 
ENDROOT
TORSDOF 0
ENDMDL
MODEL 9
REMARK VINA RESULT:      -3.1      1.962      3.238
REMARK  Name = *****
REMARK                            x       y       z     vdW  Elec       q    Type
REMARK                         _______ _______ _______ _____ _____    ______ ____
ROOT
ATOM      1  C   LIG    1       27.296 -12.387   3.379  0.00  0.00    +0.012 C 
ATOM      2  C   LIG    1       26.160 -13.414   3.207  0.00  0.00    -0.020 C 
ATOM      3  C   LIG    1       26.472 -14.197   1.916  0.00  0.00    +0.012 C 
ATOM      4  C   LIG    1       24.728 -12.815   3.278  0.00  0.00    +0.032 C 
ATOM      5  C   LIG    1       24.371 -11.729   2.292  0.00  0.00    +0.019 C 
ATOM      6  C   LIG    1       24.682 -12.378   4.748  0.00  0.00    +0.140 C 
ATOM      7  O   LIG    1       24.037 -11.447   5.199  0.00  0.00    -0.297 OA
ATOM      8  C   LIG    1       25.527 -13.329   5.571  0.00  0.00    +0.079 C 
ATOM      9  C   LIG    1       23.811 -14.059   3.258  0.00  0.00    +0.015 C 
ATOM     10  C   LIG    1       24.631 -15.099   4.058  0.00  0.00    +0.005 C 
ATOM     11  C   LIG    1       25.915 -14.319   4.445  0.00  0.00    +0.003 C 
ENDROOT
TORSDOF 0
ENDMDL
