MODEL 1
REMARK VINA RESULT:      -6.6      0.000      0.000
REMARK  Name = *****
REMARK                            x       y       z     vdW  Elec       q    Type
REMARK                         _______ _______ _______ _____ _____    ______ ____
ROOT
ATOM      1  C   LIG    1       25.073 -17.864   3.674  0.00  0.00    +0.341 C 
ATOM      2  O   LIG    1       23.918 -17.511   3.884  0.00  0.00    -0.247 OA
ENDROOT
BRANCH   1   3
ATOM      3  O   LIG    1       26.080 -17.052   3.248  0.00  0.00    -0.459 OA
BRANCH   3  11
ATOM      4  C   LIG    1       24.124 -13.028   4.026  0.00  0.00    +0.007 C 
ATOM      5  C   LIG    1       25.072 -13.408   2.888  0.00  0.00    -0.010 C 
ATOM      6  C   LIG    1       26.487 -12.827   3.037  0.00  0.00    +0.010 C 
ATOM      7  C   LIG    1       27.453 -13.584   3.980  0.00  0.00    -0.031 C 
ATOM      8  C   LIG    1       28.887 -13.078   3.708  0.00  0.00    +0.011 C 
ATOM      9  C   LIG    1       27.148 -13.294   5.461  0.00  0.00    +0.011 C 
ATOM     10  C   LIG    1       27.402 -15.101   3.696  0.00  0.00    +0.051 C 
ATOM     11  C   LIG    1       25.982 -15.675   3.670  0.00  0.00    +0.177 C 
ATOM     12  C   LIG    1       25.111 -14.920   2.660  0.00  0.00    +0.048 C 
ENDBRANCH   3  11
ENDBRANCH   1   3
BRANCH   1  13
ATOM     13  C   LIG    1       25.538 -19.317   3.810  0.00  0.00    +0.253 C 
BRANCH  13  14
ATOM     14  C   LIG    1       24.800 -20.110   4.866  0.00  0.00    -0.008 A 
ATOM     15  C   LIG    1       25.405 -20.450   6.086  0.00  0.00    +0.007 A 
ATOM     16  C   LIG    1       24.698 -21.155   7.061  0.00  0.00    +0.000 A 
ATOM     17  C   LIG    1       23.371 -21.515   6.839  0.00  0.00    +0.000 A 
ATOM     18  C   LIG    1       22.749 -21.168   5.642  0.00  0.00    +0.000 A 
ATOM     19  C   LIG    1       23.457 -20.466   4.663  0.00  0.00    +0.007 A 
ENDBRANCH  13  14
BRANCH  13  20
ATOM     20  O   LIG    1       25.379 -20.005   2.565  0.00  0.00    -0.376 OA
ATOM     21  H   LIG    1       25.653 -19.372   1.872  0.00  0.00    +0.211 HD
ENDBRANCH  13  20
ENDBRANCH   1  13
TORSDOF 5
ENDMDL
MODEL 2
REMARK VINA RESULT:      -6.5      1.666      6.857
REMARK  Name = *****
REMARK                            x       y       z     vdW  Elec       q    Type
REMARK                         _______ _______ _______ _____ _____    ______ ____
ROOT
ATOM      1  C   LIG    1       23.089 -15.533   4.567  0.00  0.00    +0.341 C 
ATOM      2  O   LIG    1       22.429 -15.713   5.584  0.00  0.00    -0.247 OA
ENDROOT
BRANCH   1   3
ATOM      3  O   LIG    1       23.457 -16.503   3.684  0.00  0.00    -0.459 OA
BRANCH   3  11
ATOM      4  C   LIG    1       26.128 -19.932   4.999  0.00  0.00    +0.007 C 
ATOM      5  C   LIG    1       25.184 -19.883   3.797  0.00  0.00    -0.010 C 
ATOM      6  C   LIG    1       23.906 -20.718   3.976  0.00  0.00    +0.010 C 
ATOM      7  C   LIG    1       22.762 -20.071   4.793  0.00  0.00    -0.031 C 
ATOM      8  C   LIG    1       21.473 -20.885   4.544  0.00  0.00    +0.011 C 
ATOM      9  C   LIG    1       23.041 -20.124   6.306  0.00  0.00    +0.011 C 
ATOM     10  C   LIG    1       22.526 -18.618   4.329  0.00  0.00    +0.051 C 
ATOM     11  C   LIG    1       23.803 -17.774   4.272  0.00  0.00    +0.177 C 
ATOM     12  C   LIG    1       24.858 -18.447   3.387  0.00  0.00    +0.048 C 
ENDBRANCH   3  11
ENDBRANCH   1   3
BRANCH   1  13
ATOM     13  C   LIG    1       23.657 -14.166   4.173  0.00  0.00    +0.253 C 
BRANCH  13  14
ATOM     14  C   LIG    1       25.167 -14.113   4.112  0.00  0.00    -0.008 A 
ATOM     15  C   LIG    1       25.870 -14.512   2.964  0.00  0.00    +0.007 A 
ATOM     16  C   LIG    1       27.262 -14.427   2.915  0.00  0.00    +0.000 A 
ATOM     17  C   LIG    1       27.970 -13.927   4.004  0.00  0.00    +0.000 A 
ATOM     18  C   LIG    1       27.288 -13.507   5.144  0.00  0.00    +0.000 A 
ATOM     19  C   LIG    1       25.894 -13.597   5.197  0.00  0.00    +0.007 A 
ENDBRANCH  13  14
BRANCH  13  20
ATOM     20  O   LIG    1       23.159 -13.776   2.889  0.00  0.00    -0.376 OA
ATOM     21  H   LIG    1       22.329 -13.289   3.060  0.00  0.00    +0.211 HD
ENDBRANCH  13  20
ENDBRANCH   1  13
TORSDOF 5
ENDMDL
MODEL 3
REMARK VINA RESULT:      -6.2      1.456      1.985
REMARK  Name = *****
REMARK                            x       y       z     vdW  Elec       q    Type
REMARK                         _______ _______ _______ _____ _____    ______ ____
ROOT
ATOM      1  C   LIG    1       22.964 -16.813   4.289  0.00  0.00    +0.341 C 
ATOM      2  O   LIG    1       22.298 -16.150   5.076  0.00  0.00    -0.247 OA
ENDROOT
BRANCH   1   3
ATOM      3  O   LIG    1       24.091 -16.384   3.655  0.00  0.00    -0.459 OA
BRANCH   3  11
ATOM      4  C   LIG    1       23.846 -11.975   4.716  0.00  0.00    +0.007 C 
ATOM      5  C   LIG    1       24.350 -12.603   3.415  0.00  0.00    -0.010 C 
ATOM      6  C   LIG    1       25.876 -12.550   3.249  0.00  0.00    +0.010 C 
ATOM      7  C   LIG    1       26.695 -13.635   3.990  0.00  0.00    -0.031 C 
ATOM      8  C   LIG    1       28.126 -13.639   3.411  0.00  0.00    +0.011 C 
ATOM      9  C   LIG    1       26.819 -13.329   5.494  0.00  0.00    +0.011 C 
ATOM     10  C   LIG    1       26.067 -15.028   3.764  0.00  0.00    +0.051 C 
ATOM     11  C   LIG    1       24.563 -15.079   4.050  0.00  0.00    +0.177 C 
ATOM     12  C   LIG    1       23.818 -14.024   3.225  0.00  0.00    +0.048 C 
ENDBRANCH   3  11
ENDBRANCH   1   3
BRANCH   1  13
ATOM     13  C   LIG    1       22.576 -18.230   3.855  0.00  0.00    +0.253 C 
BRANCH  13  14
ATOM     14  C   LIG    1       23.277 -19.328   4.621  0.00  0.00    -0.008 A 
ATOM     15  C   LIG    1       24.544 -19.799   4.239  0.00  0.00    +0.007 A 
ATOM     16  C   LIG    1       25.190 -20.791   4.977  0.00  0.00    +0.000 A 
ATOM     17  C   LIG    1       24.588 -21.317   6.117  0.00  0.00    +0.000 A 
ATOM     18  C   LIG    1       23.340 -20.848   6.523  0.00  0.00    +0.000 A 
ATOM     19  C   LIG    1       22.691 -19.858   5.783  0.00  0.00    +0.007 A 
ENDBRANCH  13  14
BRANCH  13  20
ATOM     20  O   LIG    1       21.166 -18.426   4.013  0.00  0.00    -0.376 OA
ATOM     21  H   LIG    1       20.848 -17.668   4.542  0.00  0.00    +0.211 HD
ENDBRANCH  13  20
ENDBRANCH   1  13
TORSDOF 5
ENDMDL
MODEL 4
REMARK VINA RESULT:      -6.1      1.654      6.710
REMARK  Name = *****
REMARK                            x       y       z     vdW  Elec       q    Type
REMARK                         _______ _______ _______ _____ _____    ______ ____
ROOT
ATOM      1  C   LIG    1       26.933 -16.792   3.655  0.00  0.00    +0.341 C 
ATOM      2  O   LIG    1       27.688 -17.430   4.379  0.00  0.00    -0.247 OA
ENDROOT
BRANCH   1   3
ATOM      3  O   LIG    1       25.797 -17.275   3.077  0.00  0.00    -0.459 OA
BRANCH   3  11
ATOM      4  C   LIG    1       25.195 -21.216   5.253  0.00  0.00    +0.007 C 
ATOM      5  C   LIG    1       24.681 -20.818   3.869  0.00  0.00    -0.010 C 
ATOM      6  C   LIG    1       23.172 -20.532   3.824  0.00  0.00    +0.010 C 
ATOM      7  C   LIG    1       22.715 -19.132   4.302  0.00  0.00    -0.031 C 
ATOM      8  C   LIG    1       21.258 -18.917   3.838  0.00  0.00    +0.011 C 
ATOM      9  C   LIG    1       22.718 -19.025   5.838  0.00  0.00    +0.011 C 
ATOM     10  C   LIG    1       23.601 -18.035   3.674  0.00  0.00    +0.051 C 
ATOM     11  C   LIG    1       25.103 -18.288   3.836  0.00  0.00    +0.177 C 
ATOM     12  C   LIG    1       25.485 -19.661   3.273  0.00  0.00    +0.048 C 
ENDBRANCH   3  11
ENDBRANCH   1   3
BRANCH   1  13
ATOM     13  C   LIG    1       27.202 -15.341   3.243  0.00  0.00    +0.253 C 
BRANCH  13  14
ATOM     14  C   LIG    1       25.979 -14.453   3.259  0.00  0.00    -0.008 A 
ATOM     15  C   LIG    1       25.108 -14.421   4.360  0.00  0.00    +0.007 A 
ATOM     16  C   LIG    1       24.001 -13.571   4.370  0.00  0.00    +0.000 A 
ATOM     17  C   LIG    1       23.758 -12.728   3.289  0.00  0.00    +0.000 A 
ATOM     18  C   LIG    1       24.623 -12.731   2.197  0.00  0.00    +0.000 A 
ATOM     19  C   LIG    1       25.729 -13.585   2.183  0.00  0.00    +0.007 A 
ENDBRANCH  13  14
BRANCH  13  20
ATOM     20  O   LIG    1       28.175 -14.753   4.113  0.00  0.00    -0.376 OA
ATOM     21  H   LIG    1       28.283 -13.830   3.809  0.00  0.00    +0.211 HD
ENDBRANCH  13  20
ENDBRANCH   1  13
TORSDOF 5
ENDMDL
MODEL 5
REMARK VINA RESULT:      -6.1      1.144      2.643
REMARK  Name = *****
REMARK                            x       y       z     vdW  Elec       q    Type
REMARK                         _______ _______ _______ _____ _____    ______ ____
ROOT
ATOM      1  C   LIG    1       24.817 -17.845   3.478  0.00  0.00    +0.341 C 
ATOM      2  O   LIG    1       25.916 -17.923   2.941  0.00  0.00    -0.247 OA
ENDROOT
BRANCH   1   3
ATOM      3  O   LIG    1       24.297 -16.724   4.051  0.00  0.00    -0.459 OA
BRANCH   3  11
ATOM      4  C   LIG    1       27.512 -13.905   2.520  0.00  0.00    +0.007 C 
ATOM      5  C   LIG    1       26.970 -14.029   3.945  0.00  0.00    -0.010 C 
ATOM      6  C   LIG    1       26.055 -12.868   4.366  0.00  0.00    +0.010 C 
ATOM      7  C   LIG    1       24.583 -12.937   3.892  0.00  0.00    -0.031 C 
ATOM      8  C   LIG    1       23.767 -11.910   4.707  0.00  0.00    +0.011 C 
ATOM      9  C   LIG    1       24.442 -12.547   2.410  0.00  0.00    +0.011 C 
ATOM     10  C   LIG    1       24.003 -14.345   4.147  0.00  0.00    +0.051 C 
ATOM     11  C   LIG    1       24.882 -15.479   3.612  0.00  0.00    +0.177 C 
ATOM     12  C   LIG    1       26.300 -15.382   4.184  0.00  0.00    +0.048 C 
ENDBRANCH   3  11
ENDBRANCH   1   3
BRANCH   1  13
ATOM     13  C   LIG    1       23.879 -19.046   3.635  0.00  0.00    +0.253 C 
BRANCH  13  14
ATOM     14  C   LIG    1       24.159 -19.899   4.853  0.00  0.00    -0.008 A 
ATOM     15  C   LIG    1       23.133 -20.296   5.724  0.00  0.00    +0.007 A 
ATOM     16  C   LIG    1       23.406 -21.109   6.825  0.00  0.00    +0.000 A 
ATOM     17  C   LIG    1       24.705 -21.551   7.062  0.00  0.00    +0.000 A 
ATOM     18  C   LIG    1       25.733 -21.183   6.196  0.00  0.00    +0.000 A 
ATOM     19  C   LIG    1       25.462 -20.366   5.096  0.00  0.00    +0.007 A 
ENDBRANCH  13  14
BRANCH  13  20
ATOM     20  O   LIG    1       22.520 -18.604   3.722  0.00  0.00    -0.376 OA
ATOM     21  H   LIG    1       22.518 -17.871   4.368  0.00  0.00    +0.211 HD
ENDBRANCH  13  20
ENDBRANCH   1  13
TORSDOF 5
ENDMDL
MODEL 6
REMARK VINA RESULT:      -5.9      0.668      2.418
REMARK  Name = *****
REMARK                            x       y       z     vdW  Elec       q    Type
REMARK                         _______ _______ _______ _____ _____    ______ ____
ROOT
ATOM      1  C   LIG    1       25.534 -17.826   3.573  0.00  0.00    +0.341 C 
ATOM      2  O   LIG    1       24.464 -17.236   3.659  0.00  0.00    -0.247 OA
ENDROOT
BRANCH   1   3
ATOM      3  O   LIG    1       26.727 -17.251   3.250  0.00  0.00    -0.459 OA
BRANCH   3  11
ATOM      4  C   LIG    1       28.472 -13.072   3.593  0.00  0.00    +0.007 C 
ATOM      5  C   LIG    1       27.645 -13.835   4.629  0.00  0.00    -0.010 C 
ATOM      6  C   LIG    1       26.204 -13.320   4.776  0.00  0.00    +0.010 C 
ATOM      7  C   LIG    1       25.181 -13.812   3.724  0.00  0.00    -0.031 C 
ATOM      8  C   LIG    1       23.762 -13.497   4.249  0.00  0.00    +0.011 C 
ATOM      9  C   LIG    1       25.339 -13.070   2.385  0.00  0.00    +0.011 C 
ATOM     10  C   LIG    1       25.307 -15.338   3.525  0.00  0.00    +0.051 C 
ATOM     11  C   LIG    1       26.741 -15.808   3.264  0.00  0.00    +0.177 C 
ATOM     12  C   LIG    1       27.676 -15.344   4.386  0.00  0.00    +0.048 C 
ENDBRANCH   3  11
ENDBRANCH   1   3
BRANCH   1  13
ATOM     13  C   LIG    1       25.669 -19.340   3.763  0.00  0.00    +0.253 C 
BRANCH  13  14
ATOM     14  C   LIG    1       24.818 -19.904   4.879  0.00  0.00    -0.008 A 
ATOM     15  C   LIG    1       23.419 -19.968   4.776  0.00  0.00    +0.007 A 
ATOM     16  C   LIG    1       22.653 -20.521   5.803  0.00  0.00    +0.000 A 
ATOM     17  C   LIG    1       23.274 -21.034   6.939  0.00  0.00    +0.000 A 
ATOM     18  C   LIG    1       24.662 -20.997   7.049  0.00  0.00    +0.000 A 
ATOM     19  C   LIG    1       25.430 -20.440   6.024  0.00  0.00    +0.007 A 
ENDBRANCH  13  14
BRANCH  13  20
ATOM     20  O   LIG    1       25.310 -20.023   2.558  0.00  0.00    -0.376 OA
ATOM     21  H   LIG    1       26.083 -20.572   2.321  0.00  0.00    +0.211 HD
ENDBRANCH  13  20
ENDBRANCH   1  13
TORSDOF 5
ENDMDL
MODEL 7
REMARK VINA RESULT:      -5.4      1.406      7.144
REMARK  Name = *****
REMARK                            x       y       z     vdW  Elec       q    Type
REMARK                         _______ _______ _______ _____ _____    ______ ____
ROOT
ATOM      1  C   LIG    1       26.182 -16.680   3.426  0.00  0.00    +0.341 C 
ATOM      2  O   LIG    1       27.324 -17.048   3.677  0.00  0.00    -0.247 OA
ENDROOT
BRANCH   1   3
ATOM      3  O   LIG    1       25.135 -17.502   3.137  0.00  0.00    -0.459 OA
BRANCH   3  11
ATOM      4  C   LIG    1       26.047 -20.785   6.140  0.00  0.00    +0.007 C 
ATOM      5  C   LIG    1       25.507 -20.935   4.717  0.00  0.00    -0.010 C 
ATOM      6  C   LIG    1       24.018 -21.310   4.654  0.00  0.00    +0.010 C 
ATOM      7  C   LIG    1       23.002 -20.156   4.827  0.00  0.00    -0.031 C 
ATOM      8  C   LIG    1       21.616 -20.661   4.369  0.00  0.00    +0.011 C 
ATOM      9  C   LIG    1       22.862 -19.735   6.301  0.00  0.00    +0.011 C 
ATOM     10  C   LIG    1       23.404 -18.951   3.948  0.00  0.00    +0.051 C 
ATOM     11  C   LIG    1       24.865 -18.525   4.119  0.00  0.00    +0.177 C 
ATOM     12  C   LIG    1       25.808 -19.705   3.860  0.00  0.00    +0.048 C 
ENDBRANCH   3  11
ENDBRANCH   1   3
BRANCH   1  13
ATOM     13  C   LIG    1       25.782 -15.203   3.343  0.00  0.00    +0.253 C 
BRANCH  13  14
ATOM     14  C   LIG    1       26.774 -14.254   3.976  0.00  0.00    -0.008 A 
ATOM     15  C   LIG    1       27.876 -13.757   3.262  0.00  0.00    +0.007 A 
ATOM     16  C   LIG    1       28.762 -12.856   3.854  0.00  0.00    +0.000 A 
ATOM     17  C   LIG    1       28.552 -12.426   5.161  0.00  0.00    +0.000 A 
ATOM     18  C   LIG    1       27.453 -12.893   5.878  0.00  0.00    +0.000 A 
ATOM     19  C   LIG    1       26.567 -13.798   5.289  0.00  0.00    +0.007 A 
ENDBRANCH  13  14
BRANCH  13  20
ATOM     20  O   LIG    1       25.622 -14.811   1.975  0.00  0.00    -0.376 OA
ATOM     21  H   LIG    1       26.442 -14.335   1.736  0.00  0.00    +0.211 HD
ENDBRANCH  13  20
ENDBRANCH   1  13
TORSDOF 5
ENDMDL
MODEL 8
REMARK VINA RESULT:      -5.3      1.590      6.496
REMARK  Name = *****
REMARK                            x       y       z     vdW  Elec       q    Type
REMARK                         _______ _______ _______ _____ _____    ______ ____
ROOT
ATOM      1  C   LIG    1       26.624 -17.168   3.585  0.00  0.00    +0.341 C 
ATOM      2  O   LIG    1       27.155 -17.930   4.385  0.00  0.00    -0.247 OA
ENDROOT
BRANCH   1   3
ATOM      3  O   LIG    1       25.588 -17.488   2.761  0.00  0.00    -0.459 OA
BRANCH   3  11
ATOM      4  C   LIG    1       21.611 -19.339   3.938  0.00  0.00    +0.007 C 
ATOM      5  C   LIG    1       22.681 -18.745   4.856  0.00  0.00    -0.010 C 
ATOM      6  C   LIG    1       23.481 -19.797   5.639  0.00  0.00    +0.010 C 
ATOM      7  C   LIG    1       24.638 -20.494   4.884  0.00  0.00    -0.031 C 
ATOM      8  C   LIG    1       25.527 -21.214   5.922  0.00  0.00    +0.011 C 
ATOM      9  C   LIG    1       24.119 -21.571   3.914  0.00  0.00    +0.011 C 
ATOM     10  C   LIG    1       25.497 -19.451   4.136  0.00  0.00    +0.051 C 
ATOM     11  C   LIG    1       24.680 -18.488   3.270  0.00  0.00    +0.177 C 
ATOM     12  C   LIG    1       23.606 -17.785   4.107  0.00  0.00    +0.048 C 
ENDBRANCH   3  11
ENDBRANCH   1   3
BRANCH   1  13
ATOM     13  C   LIG    1       27.106 -15.732   3.356  0.00  0.00    +0.253 C 
BRANCH  13  14
ATOM     14  C   LIG    1       25.996 -14.707   3.296  0.00  0.00    -0.008 A 
ATOM     15  C   LIG    1       25.067 -14.566   4.339  0.00  0.00    +0.007 A 
ATOM     16  C   LIG    1       24.069 -13.593   4.280  0.00  0.00    +0.000 A 
ATOM     17  C   LIG    1       23.994 -12.734   3.186  0.00  0.00    +0.000 A 
ATOM     18  C   LIG    1       24.920 -12.846   2.151  0.00  0.00    +0.000 A 
ATOM     19  C   LIG    1       25.917 -13.823   2.207  0.00  0.00    +0.007 A 
ENDBRANCH  13  14
BRANCH  13  20
ATOM     20  O   LIG    1       28.001 -15.338   4.402  0.00  0.00    -0.376 OA
ATOM     21  H   LIG    1       27.440 -15.177   5.187  0.00  0.00    +0.211 HD
ENDBRANCH  13  20
ENDBRANCH   1  13
TORSDOF 5
ENDMDL
MODEL 9
REMARK VINA RESULT:      -4.9      1.699      7.220
REMARK  Name = *****
REMARK                            x       y       z     vdW  Elec       q    Type
REMARK                         _______ _______ _______ _____ _____    ______ ____
ROOT
ATOM      1  C   LIG    1       24.787 -16.490   3.566  0.00  0.00    +0.341 C 
ATOM      2  O   LIG    1       23.687 -16.270   4.059  0.00  0.00    -0.247 OA
ENDROOT
BRANCH   1   3
ATOM      3  O   LIG    1       25.324 -17.724   3.355  0.00  0.00    -0.459 OA
BRANCH   3  11
ATOM      4  C   LIG    1       26.272 -20.623   6.720  0.00  0.00    +0.007 C 
ATOM      5  C   LIG    1       25.916 -20.950   5.270  0.00  0.00    -0.010 C 
ATOM      6  C   LIG    1       24.498 -21.514   5.090  0.00  0.00    +0.010 C 
ATOM      7  C   LIG    1       23.340 -20.487   5.053  0.00  0.00    -0.031 C 
ATOM      8  C   LIG    1       22.083 -21.197   4.505  0.00  0.00    +0.011 C 
ATOM      9  C   LIG    1       22.988 -19.974   6.461  0.00  0.00    +0.011 C 
ATOM     10  C   LIG    1       23.695 -19.313   4.114  0.00  0.00    +0.051 C 
ATOM     11  C   LIG    1       25.067 -18.694   4.393  0.00  0.00    +0.177 C 
ATOM     12  C   LIG    1       26.165 -19.762   4.340  0.00  0.00    +0.048 C 
ENDBRANCH   3  11
ENDBRANCH   1   3
BRANCH   1  13
ATOM     13  C   LIG    1       25.757 -15.375   3.164  0.00  0.00    +0.253 C 
BRANCH  13  14
ATOM     14  C   LIG    1       25.153 -13.989   3.178  0.00  0.00    -0.008 A 
ATOM     15  C   LIG    1       25.001 -13.240   2.000  0.00  0.00    +0.007 A 
ATOM     16  C   LIG    1       24.412 -11.976   2.030  0.00  0.00    +0.000 A 
ATOM     17  C   LIG    1       23.950 -11.448   3.232  0.00  0.00    +0.000 A 
ATOM     18  C   LIG    1       24.073 -12.185   4.408  0.00  0.00    +0.000 A 
ATOM     19  C   LIG    1       24.667 -13.449   4.381  0.00  0.00    +0.007 A 
ENDBRANCH  13  14
BRANCH  13  20
ATOM     20  O   LIG    1       26.887 -15.362   4.044  0.00  0.00    -0.376 OA
ATOM     21  H   LIG    1       26.520 -15.346   4.950  0.00  0.00    +0.211 HD
ENDBRANCH  13  20
ENDBRANCH   1  13
TORSDOF 5
ENDMDL
