MODEL 1
REMARK VINA RESULT:      -4.2      0.000      0.000
REMARK  Name = *****
REMARK                            x       y       z     vdW  Elec       q    Type
REMARK                         _______ _______ _______ _____ _____    ______ ____
ROOT
ATOM      1  C   LIG    1       24.427 -11.723   1.814  0.00  0.00    +0.141 C 
ATOM      2  N   LIG    1       24.695 -12.667   2.871  0.00  0.00    -0.244 N 
ATOM      3  C   LIG    1       25.633 -13.653   2.776  0.00  0.00    +0.232 C 
ATOM      4  O   LIG    1       26.364 -13.842   1.812  0.00  0.00    -0.274 OA
ATOM      5  C   LIG    1       25.639 -14.472   4.064  0.00  0.00    +0.078 C 
ATOM      6  C   LIG    1       27.094 -14.579   4.547  0.00  0.00    +0.026 C 
ATOM      7  C   LIG    1       24.803 -13.589   5.013  0.00  0.00    +0.117 C 
ATOM      8  C   LIG    1       24.215 -12.524   4.136  0.00  0.00    +0.223 C 
ATOM      9  O   LIG    1       23.472 -11.641   4.539  0.00  0.00    -0.275 OA
ENDROOT
BRANCH   5  10
ATOM     10  C   LIG    1       25.028 -15.873   3.925  0.00  0.00    -0.032 A 
ATOM     11  C   LIG    1       25.823 -16.938   3.456  0.00  0.00    +0.005 A 
ATOM     12  C   LIG    1       25.300 -18.225   3.313  0.00  0.00    +0.000 A 
ATOM     13  C   LIG    1       23.969 -18.474   3.629  0.00  0.00    +0.000 A 
ATOM     14  C   LIG    1       23.161 -17.435   4.082  0.00  0.00    +0.000 A 
ATOM     15  C   LIG    1       23.684 -16.147   4.226  0.00  0.00    +0.005 A 
ENDBRANCH   5  10
TORSDOF 1
ENDMDL
MODEL 2
REMARK VINA RESULT:      -4.2      0.205      1.258
REMARK  Name = *****
REMARK                            x       y       z     vdW  Elec       q    Type
REMARK                         _______ _______ _______ _____ _____    ______ ____
ROOT
ATOM      1  C   LIG    1       24.596 -11.875   1.817  0.00  0.00    +0.141 C 
ATOM      2  N   LIG    1       24.840 -12.834   2.867  0.00  0.00    -0.244 N 
ATOM      3  C   LIG    1       25.766 -13.830   2.772  0.00  0.00    +0.232 C 
ATOM      4  O   LIG    1       26.505 -14.020   1.815  0.00  0.00    -0.274 OA
ATOM      5  C   LIG    1       25.746 -14.662   4.051  0.00  0.00    +0.078 C 
ATOM      6  C   LIG    1       27.194 -14.793   4.551  0.00  0.00    +0.026 C 
ATOM      7  C   LIG    1       24.910 -13.779   5.000  0.00  0.00    +0.117 C 
ATOM      8  C   LIG    1       24.346 -12.698   4.127  0.00  0.00    +0.223 C 
ATOM      9  O   LIG    1       23.611 -11.809   4.530  0.00  0.00    -0.275 OA
ENDROOT
BRANCH   5  10
ATOM     10  C   LIG    1       25.119 -16.054   3.891  0.00  0.00    -0.032 A 
ATOM     11  C   LIG    1       23.757 -16.246   4.196  0.00  0.00    +0.005 A 
ATOM     12  C   LIG    1       23.155 -17.500   4.065  0.00  0.00    +0.000 A 
ATOM     13  C   LIG    1       23.902 -18.590   3.633  0.00  0.00    +0.000 A 
ATOM     14  C   LIG    1       25.252 -18.426   3.337  0.00  0.00    +0.000 A 
ATOM     15  C   LIG    1       25.856 -17.172   3.467  0.00  0.00    +0.005 A 
ENDBRANCH   5  10
TORSDOF 1
ENDMDL
MODEL 3
REMARK VINA RESULT:      -3.8      4.312      6.550
REMARK  Name = *****
REMARK                            x       y       z     vdW  Elec       q    Type
REMARK                         _______ _______ _______ _____ _____    ______ ____
ROOT
ATOM      1  C   LIG    1       25.637 -21.277   7.058  0.00  0.00    +0.141 C 
ATOM      2  N   LIG    1       24.715 -20.712   6.102  0.00  0.00    -0.244 N 
ATOM      3  C   LIG    1       25.112 -20.108   4.945  0.00  0.00    +0.232 C 
ATOM      4  O   LIG    1       26.272 -19.989   4.571  0.00  0.00    -0.274 OA
ATOM      5  C   LIG    1       23.883 -19.615   4.185  0.00  0.00    +0.078 C 
ATOM      6  C   LIG    1       23.998 -20.110   2.735  0.00  0.00    +0.026 C 
ATOM      7  C   LIG    1       22.736 -20.331   4.926  0.00  0.00    +0.117 C 
ATOM      8  C   LIG    1       23.374 -20.933   6.142  0.00  0.00    +0.223 C 
ATOM      9  O   LIG    1       22.765 -21.572   6.988  0.00  0.00    -0.275 OA
ENDROOT
BRANCH   5  10
ATOM     10  C   LIG    1       23.695 -18.093   4.206  0.00  0.00    -0.032 A 
ATOM     11  C   LIG    1       22.489 -17.544   4.686  0.00  0.00    +0.005 A 
ATOM     12  C   LIG    1       22.282 -16.163   4.716  0.00  0.00    +0.000 A 
ATOM     13  C   LIG    1       23.273 -15.300   4.261  0.00  0.00    +0.000 A 
ATOM     14  C   LIG    1       24.468 -15.820   3.772  0.00  0.00    +0.000 A 
ATOM     15  C   LIG    1       24.677 -17.202   3.742  0.00  0.00    +0.005 A 
ENDBRANCH   5  10
TORSDOF 1
ENDMDL
MODEL 4
REMARK VINA RESULT:      -3.8      4.317      6.449
REMARK  Name = *****
REMARK                            x       y       z     vdW  Elec       q    Type
REMARK                         _______ _______ _______ _____ _____    ______ ____
ROOT
ATOM      1  C   LIG    1       25.664 -21.238   7.061  0.00  0.00    +0.141 C 
ATOM      2  N   LIG    1       24.713 -20.695   6.122  0.00  0.00    -0.244 N 
ATOM      3  C   LIG    1       25.074 -20.096   4.951  0.00  0.00    +0.232 C 
ATOM      4  O   LIG    1       26.224 -19.965   4.549  0.00  0.00    -0.274 OA
ATOM      5  C   LIG    1       23.822 -19.626   4.215  0.00  0.00    +0.078 C 
ATOM      6  C   LIG    1       23.910 -20.133   2.767  0.00  0.00    +0.026 C 
ATOM      7  C   LIG    1       22.702 -20.350   4.989  0.00  0.00    +0.117 C 
ATOM      8  C   LIG    1       23.376 -20.932   6.195  0.00  0.00    +0.223 C 
ATOM      9  O   LIG    1       22.795 -21.571   7.060  0.00  0.00    -0.275 OA
ENDROOT
BRANCH   5  10
ATOM     10  C   LIG    1       23.615 -18.106   4.227  0.00  0.00    -0.032 A 
ATOM     11  C   LIG    1       24.635 -17.258   3.753  0.00  0.00    +0.005 A 
ATOM     12  C   LIG    1       24.482 -15.869   3.753  0.00  0.00    +0.000 A 
ATOM     13  C   LIG    1       23.309 -15.298   4.233  0.00  0.00    +0.000 A 
ATOM     14  C   LIG    1       22.291 -16.116   4.717  0.00  0.00    +0.000 A 
ATOM     15  C   LIG    1       22.443 -17.505   4.717  0.00  0.00    +0.005 A 
ENDBRANCH   5  10
TORSDOF 1
ENDMDL
MODEL 5
REMARK VINA RESULT:      -3.5      3.317      5.039
REMARK  Name = *****
REMARK                            x       y       z     vdW  Elec       q    Type
REMARK                         _______ _______ _______ _____ _____    ______ ____
ROOT
ATOM      1  C   LIG    1       23.164 -15.790   4.373  0.00  0.00    +0.141 C 
ATOM      2  N   LIG    1       23.970 -16.948   4.070  0.00  0.00    -0.244 N 
ATOM      3  C   LIG    1       23.481 -18.221   4.063  0.00  0.00    +0.232 C 
ATOM      4  O   LIG    1       22.318 -18.533   4.287  0.00  0.00    -0.274 OA
ATOM      5  C   LIG    1       24.606 -19.193   3.719  0.00  0.00    +0.078 C 
ATOM      6  C   LIG    1       24.106 -20.113   2.594  0.00  0.00    +0.026 C 
ATOM      7  C   LIG    1       25.710 -18.245   3.209  0.00  0.00    +0.117 C 
ATOM      8  C   LIG    1       25.220 -16.866   3.539  0.00  0.00    +0.223 C 
ATOM      9  O   LIG    1       25.843 -15.844   3.296  0.00  0.00    -0.275 OA
ENDROOT
BRANCH   5  10
ATOM     10  C   LIG    1       25.099 -20.034   4.904  0.00  0.00    -0.032 A 
ATOM     11  C   LIG    1       26.473 -20.063   5.217  0.00  0.00    +0.005 A 
ATOM     12  C   LIG    1       26.958 -20.821   6.286  0.00  0.00    +0.000 A 
ATOM     13  C   LIG    1       26.081 -21.572   7.061  0.00  0.00    +0.000 A 
ATOM     14  C   LIG    1       24.721 -21.568   6.763  0.00  0.00    +0.000 A 
ATOM     15  C   LIG    1       24.235 -20.809   5.694  0.00  0.00    +0.005 A 
ENDBRANCH   5  10
TORSDOF 1
ENDMDL
MODEL 6
REMARK VINA RESULT:      -3.4      1.705      3.293
REMARK  Name = *****
REMARK                            x       y       z     vdW  Elec       q    Type
REMARK                         _______ _______ _______ _____ _____    ______ ____
ROOT
ATOM      1  C   LIG    1       28.116 -12.714   5.852  0.00  0.00    +0.141 C 
ATOM      2  N   LIG    1       27.417 -13.299   4.734  0.00  0.00    -0.244 N 
ATOM      3  C   LIG    1       26.059 -13.415   4.676  0.00  0.00    +0.232 C 
ATOM      4  O   LIG    1       25.280 -13.027   5.537  0.00  0.00    -0.274 OA
ATOM      5  C   LIG    1       25.665 -14.090   3.366  0.00  0.00    +0.078 C 
ATOM      6  C   LIG    1       24.571 -13.235   2.707  0.00  0.00    +0.026 C 
ATOM      7  C   LIG    1       26.978 -14.027   2.560  0.00  0.00    +0.117 C 
ATOM      8  C   LIG    1       28.015 -13.572   3.543  0.00  0.00    +0.223 C 
ATOM      9  O   LIG    1       29.196 -13.419   3.268  0.00  0.00    -0.275 OA
ENDROOT
BRANCH   5  10
ATOM     10  C   LIG    1       25.176 -15.536   3.522  0.00  0.00    -0.032 A 
ATOM     11  C   LIG    1       23.880 -15.787   4.015  0.00  0.00    +0.005 A 
ATOM     12  C   LIG    1       23.404 -17.090   4.173  0.00  0.00    +0.000 A 
ATOM     13  C   LIG    1       24.216 -18.172   3.850  0.00  0.00    +0.000 A 
ATOM     14  C   LIG    1       25.504 -17.949   3.372  0.00  0.00    +0.000 A 
ATOM     15  C   LIG    1       25.981 -16.645   3.212  0.00  0.00    +0.005 A 
ENDBRANCH   5  10
TORSDOF 1
ENDMDL
MODEL 7
REMARK VINA RESULT:      -3.3      1.716      3.060
REMARK  Name = *****
REMARK                            x       y       z     vdW  Elec       q    Type
REMARK                         _______ _______ _______ _____ _____    ______ ____
ROOT
ATOM      1  C   LIG    1       28.142 -12.671   5.854  0.00  0.00    +0.141 C 
ATOM      2  N   LIG    1       27.435 -13.258   4.742  0.00  0.00    -0.244 N 
ATOM      3  C   LIG    1       26.075 -13.345   4.680  0.00  0.00    +0.232 C 
ATOM      4  O   LIG    1       25.301 -12.927   5.531  0.00  0.00    -0.274 OA
ATOM      5  C   LIG    1       25.671 -14.032   3.378  0.00  0.00    +0.078 C 
ATOM      6  C   LIG    1       24.599 -13.164   2.701  0.00  0.00    +0.026 C 
ATOM      7  C   LIG    1       26.989 -14.010   2.578  0.00  0.00    +0.117 C 
ATOM      8  C   LIG    1       28.032 -13.562   3.558  0.00  0.00    +0.223 C 
ATOM      9  O   LIG    1       29.217 -13.439   3.286  0.00  0.00    -0.275 OA
ENDROOT
BRANCH   5  10
ATOM     10  C   LIG    1       25.151 -15.465   3.555  0.00  0.00    -0.032 A 
ATOM     11  C   LIG    1       25.985 -16.555   3.236  0.00  0.00    +0.005 A 
ATOM     12  C   LIG    1       25.544 -17.872   3.381  0.00  0.00    +0.000 A 
ATOM     13  C   LIG    1       24.257 -18.129   3.839  0.00  0.00    +0.000 A 
ATOM     14  C   LIG    1       23.410 -17.067   4.149  0.00  0.00    +0.000 A 
ATOM     15  C   LIG    1       23.852 -15.749   4.005  0.00  0.00    +0.005 A 
ENDBRANCH   5  10
TORSDOF 1
ENDMDL
MODEL 8
REMARK VINA RESULT:      -2.7      4.343      6.021
REMARK  Name = *****
REMARK                            x       y       z     vdW  Elec       q    Type
REMARK                         _______ _______ _______ _____ _____    ______ ____
ROOT
ATOM      1  C   LIG    1       21.334 -19.669   4.437  0.00  0.00    +0.141 C 
ATOM      2  N   LIG    1       22.737 -19.379   4.262  0.00  0.00    -0.244 N 
ATOM      3  C   LIG    1       23.658 -20.320   3.908  0.00  0.00    +0.232 C 
ATOM      4  O   LIG    1       23.414 -21.497   3.678  0.00  0.00    -0.274 OA
ATOM      5  C   LIG    1       25.038 -19.672   3.829  0.00  0.00    +0.078 C 
ATOM      6  C   LIG    1       25.665 -20.063   2.482  0.00  0.00    +0.026 C 
ATOM      7  C   LIG    1       24.693 -18.169   3.864  0.00  0.00    +0.117 C 
ATOM      8  C   LIG    1       23.233 -18.114   4.203  0.00  0.00    +0.223 C 
ATOM      9  O   LIG    1       22.601 -17.076   4.334  0.00  0.00    -0.275 OA
ENDROOT
BRANCH   5  10
ATOM     10  C   LIG    1       25.982 -20.053   4.977  0.00  0.00    -0.032 A 
ATOM     11  C   LIG    1       27.307 -19.575   4.980  0.00  0.00    +0.005 A 
ATOM     12  C   LIG    1       28.195 -19.905   6.007  0.00  0.00    +0.000 A 
ATOM     13  C   LIG    1       27.780 -20.725   7.049  0.00  0.00    +0.000 A 
ATOM     14  C   LIG    1       26.478 -21.219   7.062  0.00  0.00    +0.000 A 
ATOM     15  C   LIG    1       25.589 -20.889   6.035  0.00  0.00    +0.005 A 
ENDBRANCH   5  10
TORSDOF 1
ENDMDL
MODEL 9
REMARK VINA RESULT:      -2.0      3.995      5.982
REMARK  Name = *****
REMARK                            x       y       z     vdW  Elec       q    Type
REMARK                         _______ _______ _______ _____ _____    ______ ____
ROOT
ATOM      1  C   LIG    1       23.398 -20.737   6.706  0.00  0.00    +0.141 C 
ATOM      2  N   LIG    1       23.655 -20.090   5.443  0.00  0.00    -0.244 N 
ATOM      3  C   LIG    1       24.881 -20.074   4.844  0.00  0.00    +0.232 C 
ATOM      4  O   LIG    1       25.889 -20.614   5.283  0.00  0.00    -0.274 OA
ATOM      5  C   LIG    1       24.795 -19.293   3.537  0.00  0.00    +0.078 C 
ATOM      6  C   LIG    1       25.428 -20.153   2.431  0.00  0.00    +0.026 C 
ATOM      7  C   LIG    1       23.272 -19.164   3.335  0.00  0.00    +0.117 C 
ATOM      8  C   LIG    1       22.668 -19.642   4.622  0.00  0.00    +0.223 C 
ATOM      9  O   LIG    1       21.466 -19.671   4.843  0.00  0.00    -0.275 OA
ENDROOT
BRANCH   5  10
ATOM     10  C   LIG    1       25.469 -17.915   3.579  0.00  0.00    -0.032 A 
ATOM     11  C   LIG    1       26.858 -17.822   3.798  0.00  0.00    +0.005 A 
ATOM     12  C   LIG    1       27.504 -16.585   3.846  0.00  0.00    +0.000 A 
ATOM     13  C   LIG    1       26.775 -15.412   3.683  0.00  0.00    +0.000 A 
ATOM     14  C   LIG    1       25.399 -15.478   3.478  0.00  0.00    +0.000 A 
ATOM     15  C   LIG    1       24.752 -16.716   3.428  0.00  0.00    +0.005 A 
ENDBRANCH   5  10
TORSDOF 1
ENDMDL
