MODEL 1
REMARK VINA RESULT:      -3.2      0.000      0.000
REMARK  Name = *****
REMARK                            x       y       z     vdW  Elec       q    Type
REMARK                         _______ _______ _______ _____ _____    ______ ____
ROOT
ATOM      1  C   LIG    1       25.132 -18.171   3.693  0.00  0.00    +0.350 C 
ATOM      2  O   LIG    1       23.963 -18.055   3.352  0.00  0.00    -0.247 OA
ENDROOT
BRANCH   1   3
ATOM      3  O   LIG    1       26.053 -17.163   3.583  0.00  0.00    -0.458 OA
BRANCH   3  12
ATOM      4  C   LIG    1       26.660 -14.078   5.835  0.00  0.00    +0.193 C 
ATOM      5  N   LIG    1       25.915 -13.348   4.725  0.00  0.00    +0.247 N 
ATOM      6  C   LIG    1       25.836 -11.878   5.168  0.00  0.00    +0.193 C 
ATOM      7  C   LIG    1       26.540 -13.456   3.308  0.00  0.00    +0.102 C 
ATOM      8  C   LIG    1       25.473 -12.901   2.376  0.00  0.00    +0.201 C 
ATOM      9  C   LIG    1       24.148 -13.172   3.059  0.00  0.00    +0.201 C 
ATOM     10  O   LIG    1       24.503 -13.781   1.820  0.00  0.00    -0.357 OA
ATOM     11  C   LIG    1       26.832 -14.941   3.027  0.00  0.00    +0.102 C 
ATOM     12  C   LIG    1       25.594 -15.863   3.176  0.00  0.00    +0.187 C 
ATOM     13  C   LIG    1       24.550 -15.390   4.203  0.00  0.00    +0.102 C 
ATOM     14  C   LIG    1       24.492 -13.868   4.369  0.00  0.00    +0.102 C 
ENDBRANCH   3  12
ENDBRANCH   1   3
BRANCH   1  15
ATOM     15  C   LIG    1       25.778 -19.484   4.256  0.00  0.00    +0.226 C 
BRANCH  15  16
ATOM     16  C   LIG    1       24.784 -20.204   5.167  0.00  0.00    +0.037 A 
ATOM     17  S   LIG    1       23.311 -20.874   4.561  0.00  0.00    -0.098 S 
ATOM     18  C   LIG    1       22.867 -21.506   6.080  0.00  0.00    +0.045 A 
ATOM     19  C   LIG    1       23.780 -21.187   7.056  0.00  0.00    +0.008 A 
ATOM     20  C   LIG    1       24.876 -20.439   6.535  0.00  0.00    +0.015 A 
ENDBRANCH  15  16
BRANCH  15  21
ATOM     21  C   LIG    1       27.156 -19.233   4.881  0.00  0.00    +0.037 A 
ATOM     22  S   LIG    1       27.840 -20.268   6.084  0.00  0.00    -0.098 S 
ATOM     23  C   LIG    1       29.230 -19.315   6.266  0.00  0.00    +0.045 A 
ATOM     24  C   LIG    1       29.229 -18.246   5.404  0.00  0.00    +0.008 A 
ATOM     25  C   LIG    1       28.045 -18.199   4.609  0.00  0.00    +0.015 A 
ENDBRANCH  15  21
BRANCH  15  26
ATOM     26  O   LIG    1       26.015 -20.382   3.154  0.00  0.00    -0.369 OA
ATOM     27  H   LIG    1       25.587 -21.226   3.381  0.00  0.00    +0.212 HD
ENDBRANCH  15  26
ENDBRANCH   1  15
TORSDOF 6
ENDMDL
MODEL 2
REMARK VINA RESULT:      -3.0      1.445      2.029
REMARK  Name = *****
REMARK                            x       y       z     vdW  Elec       q    Type
REMARK                         _______ _______ _______ _____ _____    ______ ____
ROOT
ATOM      1  C   LIG    1       25.300 -17.535   3.600  0.00  0.00    +0.350 C 
ATOM      2  O   LIG    1       24.320 -16.892   3.948  0.00  0.00    -0.247 OA
ENDROOT
BRANCH   1   3
ATOM      3  O   LIG    1       26.337 -17.001   2.882  0.00  0.00    -0.458 OA
BRANCH   3  12
ATOM      4  C   LIG    1       23.853 -14.197   3.845  0.00  0.00    +0.193 C 
ATOM      5  N   LIG    1       25.124 -13.374   4.004  0.00  0.00    +0.247 N 
ATOM      6  C   LIG    1       24.665 -11.965   4.414  0.00  0.00    +0.193 C 
ATOM      7  C   LIG    1       26.163 -13.925   5.018  0.00  0.00    +0.102 C 
ATOM      8  C   LIG    1       27.416 -13.099   4.771  0.00  0.00    +0.201 C 
ATOM      9  C   LIG    1       27.357 -12.688   3.314  0.00  0.00    +0.201 C 
ATOM     10  O   LIG    1       28.374 -13.548   3.820  0.00  0.00    -0.357 OA
ATOM     11  C   LIG    1       26.387 -15.416   4.710  0.00  0.00    +0.102 C 
ATOM     12  C   LIG    1       26.817 -15.696   3.247  0.00  0.00    +0.187 C 
ATOM     13  C   LIG    1       26.285 -14.692   2.209  0.00  0.00    +0.102 C 
ATOM     14  C   LIG    1       26.066 -13.282   2.768  0.00  0.00    +0.102 C 
ENDBRANCH   3  12
ENDBRANCH   1   3
BRANCH   1  15
ATOM     15  C   LIG    1       25.512 -19.066   3.867  0.00  0.00    +0.226 C 
BRANCH  15  16
ATOM     16  C   LIG    1       24.186 -19.712   4.271  0.00  0.00    +0.037 A 
ATOM     17  S   LIG    1       24.017 -21.425   4.428  0.00  0.00    -0.098 S 
ATOM     18  C   LIG    1       22.396 -21.309   4.940  0.00  0.00    +0.045 A 
ATOM     19  C   LIG    1       21.953 -20.009   4.954  0.00  0.00    +0.008 A 
ATOM     20  C   LIG    1       22.976 -19.094   4.568  0.00  0.00    +0.015 A 
ENDBRANCH  15  16
BRANCH  15  21
ATOM     21  C   LIG    1       26.676 -19.333   4.829  0.00  0.00    +0.037 A 
ATOM     22  S   LIG    1       26.552 -20.418   6.169  0.00  0.00    -0.098 S 
ATOM     23  C   LIG    1       28.129 -20.103   6.707  0.00  0.00    +0.045 A 
ATOM     24  C   LIG    1       28.784 -19.229   5.875  0.00  0.00    +0.008 A 
ATOM     25  C   LIG    1       27.955 -18.789   4.799  0.00  0.00    +0.015 A 
ENDBRANCH  15  21
BRANCH  15  26
ATOM     26  O   LIG    1       25.888 -19.695   2.627  0.00  0.00    -0.369 OA
ATOM     27  H   LIG    1       25.866 -20.655   2.780  0.00  0.00    +0.212 HD
ENDBRANCH  15  26
ENDBRANCH   1  15
TORSDOF 6
ENDMDL
MODEL 3
REMARK VINA RESULT:      -2.7      1.678      2.619
REMARK  Name = *****
REMARK                            x       y       z     vdW  Elec       q    Type
REMARK                         _______ _______ _______ _____ _____    ______ ____
ROOT
ATOM      1  C   LIG    1       26.715 -17.920   3.861  0.00  0.00    +0.350 C 
ATOM      2  O   LIG    1       27.859 -17.757   4.260  0.00  0.00    -0.247 OA
ENDROOT
BRANCH   1   3
ATOM      3  O   LIG    1       26.002 -16.956   3.199  0.00  0.00    -0.458 OA
BRANCH   3  12
ATOM      4  C   LIG    1       23.544 -14.125   4.148  0.00  0.00    +0.193 C 
ATOM      5  N   LIG    1       24.773 -13.244   3.969  0.00  0.00    +0.247 N 
ATOM      6  C   LIG    1       24.303 -11.806   4.242  0.00  0.00    +0.193 C 
ATOM      7  C   LIG    1       25.992 -13.596   4.864  0.00  0.00    +0.102 C 
ATOM      8  C   LIG    1       27.138 -12.775   4.291  0.00  0.00    +0.201 C 
ATOM      9  C   LIG    1       26.820 -12.595   2.821  0.00  0.00    +0.201 C 
ATOM     10  O   LIG    1       27.955 -13.332   3.268  0.00  0.00    -0.357 OA
ATOM     11  C   LIG    1       26.253 -15.109   4.742  0.00  0.00    +0.102 C 
ATOM     12  C   LIG    1       26.457 -15.594   3.284  0.00  0.00    +0.187 C 
ATOM     13  C   LIG    1       25.705 -14.780   2.215  0.00  0.00    +0.102 C 
ATOM     14  C   LIG    1       25.495 -13.310   2.592  0.00  0.00    +0.102 C 
ENDBRANCH   3  12
ENDBRANCH   1   3
BRANCH   1  15
ATOM     15  C   LIG    1       25.864 -19.219   4.079  0.00  0.00    +0.226 C 
BRANCH  15  16
ATOM     16  C   LIG    1       24.378 -18.863   4.139  0.00  0.00    +0.037 A 
ATOM     17  S   LIG    1       23.151 -20.079   4.194  0.00  0.00    -0.098 S 
ATOM     18  C   LIG    1       21.895 -18.935   4.316  0.00  0.00    +0.045 A 
ATOM     19  C   LIG    1       22.368 -17.646   4.271  0.00  0.00    +0.008 A 
ATOM     20  C   LIG    1       23.789 -17.604   4.166  0.00  0.00    +0.015 A 
ENDBRANCH  15  16
BRANCH  15  21
ATOM     21  C   LIG    1       26.372 -20.057   5.259  0.00  0.00    +0.037 A 
ATOM     22  S   LIG    1       28.022 -20.050   5.769  0.00  0.00    -0.098 S 
ATOM     23  C   LIG    1       27.763 -21.203   6.985  0.00  0.00    +0.045 A 
ATOM     24  C   LIG    1       26.443 -21.572   7.061  0.00  0.00    +0.008 A 
ATOM     25  C   LIG    1       25.644 -20.915   6.076  0.00  0.00    +0.015 A 
ENDBRANCH  15  21
BRANCH  15  26
ATOM     26  O   LIG    1       26.014 -20.060   2.919  0.00  0.00    -0.369 OA
ATOM     27  H   LIG    1       25.363 -20.779   3.005  0.00  0.00    +0.212 HD
ENDBRANCH  15  26
ENDBRANCH   1  15
TORSDOF 6
ENDMDL
