MODEL 1
REMARK VINA RESULT:      -8.3      0.000      0.000
REMARK  Name = *****
REMARK                            x       y       z     vdW  Elec       q    Type
REMARK                         _______ _______ _______ _____ _____    ______ ____
ROOT
ATOM      1  C   LIG    1       25.600 -25.451   6.590  0.00  0.00    +0.120 A 
ATOM      2  C   LIG    1       25.766 -24.194   7.175  0.00  0.00    +0.050 A 
ATOM      3  C   LIG    1       25.515 -23.004   6.453  0.00  0.00    -0.034 A 
ATOM      4  C   LIG    1       25.721 -21.622   7.127  0.00  0.00    +0.002 C 
ATOM      5  C   LIG    1       24.498 -21.356   8.055  0.00  0.00    +0.027 C 
ATOM      6  C   LIG    1       23.389 -20.510   7.391  0.00  0.00    +0.085 C 
ATOM      7  N   LIG    1       23.246 -20.759   5.956  0.00  0.00    -0.302 NA
ATOM      8  C   LIG    1       22.164 -19.967   5.379  0.00  0.00    +0.105 C 
ATOM      9  C   LIG    1       24.507 -20.631   5.178  0.00  0.00    +0.065 C 
ATOM     10  C   LIG    1       24.671 -21.893   4.315  0.00  0.00    +0.054 C 
ATOM     11  C   LIG    1       25.732 -20.465   6.092  0.00  0.00    +0.017 C 
ATOM     12  C   LIG    1       27.088 -20.350   5.387  0.00  0.00    +0.006 C 
ATOM     13  C   LIG    1       28.184 -19.966   6.389  0.00  0.00    +0.000 C 
ATOM     14  C   LIG    1       27.833 -20.315   7.838  0.00  0.00    +0.001 C 
ATOM     15  C   LIG    1       27.063 -21.631   7.929  0.00  0.00    +0.012 C 
ATOM     16  C   LIG    1       25.030 -23.113   5.133  0.00  0.00    -0.042 A 
ATOM     17  C   LIG    1       24.877 -24.378   4.547  0.00  0.00    +0.007 A 
ATOM     18  C   LIG    1       25.162 -25.534   5.270  0.00  0.00    +0.046 A 
ENDROOT
BRANCH   1  20
ATOM     19  C   LIG    1       25.189 -27.793   6.622  0.00  0.00    +0.277 C 
ATOM     20  O   LIG    1       25.827 -26.658   7.193  0.00  0.00    -0.495 OA
ENDBRANCH   1  20
TORSDOF 1
ENDMDL
MODEL 2
REMARK VINA RESULT:      -8.0      2.833      5.447
REMARK  Name = *****
REMARK                            x       y       z     vdW  Elec       q    Type
REMARK                         _______ _______ _______ _____ _____    ______ ____
ROOT
ATOM      1  C   LIG    1       22.527 -18.837   4.387  0.00  0.00    +0.120 A 
ATOM      2  C   LIG    1       22.671 -19.810   5.379  0.00  0.00    +0.050 A 
ATOM      3  C   LIG    1       23.901 -20.476   5.588  0.00  0.00    -0.034 A 
ATOM      4  C   LIG    1       24.025 -21.562   6.691  0.00  0.00    +0.002 C 
ATOM      5  C   LIG    1       24.147 -20.836   8.064  0.00  0.00    +0.027 C 
ATOM      6  C   LIG    1       25.605 -20.644   8.535  0.00  0.00    +0.085 C 
ATOM      7  N   LIG    1       26.547 -20.414   7.439  0.00  0.00    -0.302 NA
ATOM      8  C   LIG    1       27.905 -20.201   7.934  0.00  0.00    +0.105 C 
ATOM      9  C   LIG    1       26.501 -21.435   6.359  0.00  0.00    +0.065 C 
ATOM     10  C   LIG    1       26.377 -20.706   5.011  0.00  0.00    +0.054 C 
ATOM     11  C   LIG    1       25.320 -22.404   6.535  0.00  0.00    +0.017 C 
ATOM     12  C   LIG    1       25.167 -23.483   5.457  0.00  0.00    +0.006 C 
ATOM     13  C   LIG    1       24.101 -24.506   5.869  0.00  0.00    +0.000 C 
ATOM     14  C   LIG    1       23.102 -23.966   6.896  0.00  0.00    +0.001 C 
ATOM     15  C   LIG    1       22.773 -22.497   6.640  0.00  0.00    +0.012 C 
ATOM     16  C   LIG    1       25.010 -20.094   4.806  0.00  0.00    -0.042 A 
ATOM     17  C   LIG    1       24.856 -19.125   3.803  0.00  0.00    +0.007 A 
ATOM     18  C   LIG    1       23.625 -18.507   3.596  0.00  0.00    +0.046 A 
ENDROOT
BRANCH   1  20
ATOM     19  C   LIG    1       20.393 -18.832   3.339  0.00  0.00    +0.277 C 
ATOM     20  O   LIG    1       21.384 -18.146   4.094  0.00  0.00    -0.495 OA
ENDBRANCH   1  20
TORSDOF 1
ENDMDL
MODEL 3
REMARK VINA RESULT:      -7.6      1.626      3.465
REMARK  Name = *****
REMARK                            x       y       z     vdW  Elec       q    Type
REMARK                         _______ _______ _______ _____ _____    ______ ____
ROOT
ATOM      1  C   LIG    1       24.787 -25.045   4.866  0.00  0.00    +0.120 A 
ATOM      2  C   LIG    1       25.055 -23.696   4.621  0.00  0.00    +0.050 A 
ATOM      3  C   LIG    1       24.613 -22.683   5.505  0.00  0.00    -0.034 A 
ATOM      4  C   LIG    1       24.916 -21.192   5.198  0.00  0.00    +0.002 C 
ATOM      5  C   LIG    1       26.402 -20.920   5.576  0.00  0.00    +0.027 C 
ATOM      6  C   LIG    1       26.583 -20.335   6.995  0.00  0.00    +0.085 C 
ATOM      7  N   LIG    1       25.607 -20.837   7.962  0.00  0.00    -0.302 NA
ATOM      8  C   LIG    1       25.838 -20.287   9.294  0.00  0.00    +0.105 C 
ATOM      9  C   LIG    1       24.188 -20.695   7.539  0.00  0.00    +0.065 C 
ATOM     10  C   LIG    1       23.494 -22.056   7.712  0.00  0.00    +0.054 C 
ATOM     11  C   LIG    1       24.068 -20.234   6.077  0.00  0.00    +0.017 C 
ATOM     12  C   LIG    1       22.643 -20.080   5.534  0.00  0.00    +0.006 C 
ATOM     13  C   LIG    1       22.663 -19.406   4.156  0.00  0.00    +0.000 C 
ATOM     14  C   LIG    1       24.003 -19.545   3.430  0.00  0.00    +0.001 C 
ATOM     15  C   LIG    1       24.643 -20.908   3.686  0.00  0.00    +0.012 C 
ATOM     16  C   LIG    1       23.940 -23.069   6.682  0.00  0.00    -0.042 A 
ATOM     17  C   LIG    1       23.663 -24.425   6.915  0.00  0.00    +0.007 A 
ATOM     18  C   LIG    1       24.081 -25.400   6.013  0.00  0.00    +0.046 A 
ENDROOT
BRANCH   1  20
ATOM     19  C   LIG    1       25.922 -27.126   4.684  0.00  0.00    +0.277 C 
ATOM     20  O   LIG    1       25.155 -26.097   4.073  0.00  0.00    -0.495 OA
ENDBRANCH   1  20
TORSDOF 1
ENDMDL
MODEL 4
REMARK VINA RESULT:      -7.5      1.973      4.677
REMARK  Name = *****
REMARK                            x       y       z     vdW  Elec       q    Type
REMARK                         _______ _______ _______ _____ _____    ______ ____
ROOT
ATOM      1  C   LIG    1       27.871 -21.226   7.812  0.00  0.00    +0.120 A 
ATOM      2  C   LIG    1       27.125 -21.882   6.830  0.00  0.00    +0.050 A 
ATOM      3  C   LIG    1       25.718 -21.755   6.764  0.00  0.00    -0.034 A 
ATOM      4  C   LIG    1       24.916 -22.508   5.669  0.00  0.00    +0.002 C 
ATOM      5  C   LIG    1       25.083 -21.726   4.332  0.00  0.00    +0.027 C 
ATOM      6  C   LIG    1       23.932 -20.737   4.045  0.00  0.00    +0.085 C 
ATOM      7  N   LIG    1       23.378 -20.121   5.251  0.00  0.00    -0.302 NA
ATOM      8  C   LIG    1       22.320 -19.167   4.930  0.00  0.00    +0.105 C 
ATOM      9  C   LIG    1       22.959 -21.086   6.302  0.00  0.00    +0.065 C 
ATOM     10  C   LIG    1       23.589 -20.650   7.636  0.00  0.00    +0.054 C 
ATOM     11  C   LIG    1       23.393 -22.522   5.969  0.00  0.00    +0.017 C 
ATOM     12  C   LIG    1       23.030 -23.593   7.004  0.00  0.00    +0.006 C 
ATOM     13  C   LIG    1       23.316 -24.994   6.450  0.00  0.00    +0.000 C 
ATOM     14  C   LIG    1       24.345 -25.003   5.316  0.00  0.00    +0.001 C 
ATOM     15  C   LIG    1       25.448 -23.973   5.551  0.00  0.00    +0.012 C 
ATOM     16  C   LIG    1       25.080 -20.896   7.681  0.00  0.00    -0.042 A 
ATOM     17  C   LIG    1       25.833 -20.249   8.672  0.00  0.00    +0.007 A 
ATOM     18  C   LIG    1       27.215 -20.416   8.736  0.00  0.00    +0.046 A 
ENDROOT
BRANCH   1  20
ATOM     19  C   LIG    1       29.970 -20.120   7.660  0.00  0.00    +0.277 C 
ATOM     20  O   LIG    1       29.228 -21.291   7.973  0.00  0.00    -0.495 OA
ENDBRANCH   1  20
TORSDOF 1
ENDMDL
MODEL 5
REMARK VINA RESULT:      -6.2      4.479      8.963
REMARK  Name = *****
REMARK                            x       y       z     vdW  Elec       q    Type
REMARK                         _______ _______ _______ _____ _____    ______ ____
ROOT
ATOM      1  C   LIG    1       25.749 -27.041   6.675  0.00  0.00    +0.120 A 
ATOM      2  C   LIG    1       25.932 -27.831   7.813  0.00  0.00    +0.050 A 
ATOM      3  C   LIG    1       25.294 -29.086   7.952  0.00  0.00    -0.034 A 
ATOM      4  C   LIG    1       25.508 -29.933   9.234  0.00  0.00    +0.002 C 
ATOM      5  C   LIG    1       26.904 -30.617   9.127  0.00  0.00    +0.027 C 
ATOM      6  C   LIG    1       26.847 -32.056   8.569  0.00  0.00    +0.085 C 
ATOM      7  N   LIG    1       25.798 -32.253   7.568  0.00  0.00    -0.302 NA
ATOM      8  C   LIG    1       25.806 -33.615   7.042  0.00  0.00    +0.105 C 
ATOM      9  C   LIG    1       24.440 -31.832   8.004  0.00  0.00    +0.065 C 
ATOM     10  C   LIG    1       23.848 -30.917   6.919  0.00  0.00    +0.054 C 
ATOM     11  C   LIG    1       24.475 -31.086   9.348  0.00  0.00    +0.017 C 
ATOM     12  C   LIG    1       23.124 -30.586   9.875  0.00  0.00    +0.006 C 
ATOM     13  C   LIG    1       23.268 -30.067  11.311  0.00  0.00    +0.000 C 
ATOM     14  C   LIG    1       24.699 -29.659  11.672  0.00  0.00    +0.001 C 
ATOM     15  C   LIG    1       25.412 -29.007  10.490  0.00  0.00    +0.012 C 
ATOM     16  C   LIG    1       24.508 -29.558   6.881  0.00  0.00    -0.042 A 
ATOM     17  C   LIG    1       24.318 -28.755   5.746  0.00  0.00    +0.007 A 
ATOM     18  C   LIG    1       24.932 -27.508   5.649  0.00  0.00    +0.046 A 
ENDROOT
BRANCH   1  20
ATOM     19  C   LIG    1       25.492 -24.850   5.788  0.00  0.00    +0.277 C 
ATOM     20  O   LIG    1       26.305 -25.812   6.448  0.00  0.00    -0.495 OA
ENDBRANCH   1  20
TORSDOF 1
ENDMDL
MODEL 6
REMARK VINA RESULT:      -5.9      4.953      9.074
REMARK  Name = *****
REMARK                            x       y       z     vdW  Elec       q    Type
REMARK                         _______ _______ _______ _____ _____    ______ ____
ROOT
ATOM      1  C   LIG    1       24.846 -27.556   6.385  0.00  0.00    +0.120 A 
ATOM      2  C   LIG    1       24.417 -28.763   6.941  0.00  0.00    +0.050 A 
ATOM      3  C   LIG    1       25.055 -29.324   8.072  0.00  0.00    -0.034 A 
ATOM      4  C   LIG    1       24.562 -30.674   8.658  0.00  0.00    +0.002 C 
ATOM      5  C   LIG    1       23.271 -30.393   9.484  0.00  0.00    +0.027 C 
ATOM      6  C   LIG    1       23.533 -30.197  10.994  0.00  0.00    +0.085 C 
ATOM      7  N   LIG    1       24.809 -29.543  11.285  0.00  0.00    -0.302 NA
ATOM      8  C   LIG    1       24.997 -29.346  12.719  0.00  0.00    +0.105 C 
ATOM      9  C   LIG    1       25.992 -30.185  10.651  0.00  0.00    +0.065 C 
ATOM     10  C   LIG    1       26.798 -29.097   9.922  0.00  0.00    +0.054 C 
ATOM     11  C   LIG    1       25.584 -31.283   9.655  0.00  0.00    +0.017 C 
ATOM     12  C   LIG    1       26.732 -31.991   8.927  0.00  0.00    +0.006 C 
ATOM     13  C   LIG    1       26.206 -33.201   8.144  0.00  0.00    +0.000 C 
ATOM     14  C   LIG    1       24.713 -33.111   7.815  0.00  0.00    +0.001 C 
ATOM     15  C   LIG    1       24.294 -31.679   7.491  0.00  0.00    +0.012 C 
ATOM     16  C   LIG    1       26.107 -28.603   8.671  0.00  0.00    -0.042 A 
ATOM     17  C   LIG    1       26.542 -27.397   8.101  0.00  0.00    +0.007 A 
ATOM     18  C   LIG    1       25.917 -26.883   6.967  0.00  0.00    +0.046 A 
ENDROOT
BRANCH   1  20
ATOM     19  C   LIG    1       24.838 -25.661   4.949  0.00  0.00    +0.277 C 
ATOM     20  O   LIG    1       24.310 -26.936   5.289  0.00  0.00    -0.495 OA
ENDBRANCH   1  20
TORSDOF 1
ENDMDL
MODEL 7
REMARK VINA RESULT:      -5.9      7.997      9.990
REMARK  Name = *****
REMARK                            x       y       z     vdW  Elec       q    Type
REMARK                         _______ _______ _______ _____ _____    ______ ____
ROOT
ATOM      1  C   LIG    1       21.874 -27.636  13.060  0.00  0.00    +0.120 A 
ATOM      2  C   LIG    1       22.808 -28.575  12.617  0.00  0.00    +0.050 A 
ATOM      3  C   LIG    1       24.198 -28.317  12.672  0.00  0.00    -0.034 A 
ATOM      4  C   LIG    1       25.209 -29.376  12.160  0.00  0.00    +0.002 C 
ATOM      5  C   LIG    1       25.337 -30.482  13.250  0.00  0.00    +0.027 C 
ATOM      6  C   LIG    1       26.530 -30.270  14.209  0.00  0.00    +0.085 C 
ATOM      7  N   LIG    1       26.817 -28.862  14.482  0.00  0.00    -0.302 NA
ATOM      8  C   LIG    1       27.925 -28.712  15.420  0.00  0.00    +0.105 C 
ATOM      9  C   LIG    1       26.995 -28.021  13.269  0.00  0.00    +0.065 C 
ATOM     10  C   LIG    1       26.098 -26.780  13.406  0.00  0.00    +0.054 C 
ATOM     11  C   LIG    1       26.633 -28.783  11.983  0.00  0.00    +0.017 C 
ATOM     12  C   LIG    1       26.760 -27.994  10.675  0.00  0.00    +0.006 C 
ATOM     13  C   LIG    1       26.589 -28.926   9.468  0.00  0.00    +0.000 C 
ATOM     14  C   LIG    1       25.826 -30.213   9.794  0.00  0.00    +0.001 C 
ATOM     15  C   LIG    1       24.705 -29.961  10.801  0.00  0.00    +0.012 C 
ATOM     16  C   LIG    1       24.631 -27.104  13.245  0.00  0.00    -0.042 A 
ATOM     17  C   LIG    1       23.687 -26.160  13.678  0.00  0.00    +0.007 A 
ATOM     18  C   LIG    1       22.323 -26.425  13.582  0.00  0.00    +0.046 A 
ENDROOT
BRANCH   1  20
ATOM     19  C   LIG    1       19.751 -26.777  13.701  0.00  0.00    +0.277 C 
ATOM     20  O   LIG    1       20.513 -27.778  13.038  0.00  0.00    -0.495 OA
ENDBRANCH   1  20
TORSDOF 1
ENDMDL
MODEL 8
REMARK VINA RESULT:      -5.8      5.253     10.048
REMARK  Name = *****
REMARK                            x       y       z     vdW  Elec       q    Type
REMARK                         _______ _______ _______ _____ _____    ______ ____
ROOT
ATOM      1  C   LIG    1       24.962 -28.142   5.834  0.00  0.00    +0.120 A 
ATOM      2  C   LIG    1       24.949 -29.483   5.441  0.00  0.00    +0.050 A 
ATOM      3  C   LIG    1       25.242 -30.523   6.354  0.00  0.00    -0.034 A 
ATOM      4  C   LIG    1       25.232 -32.001   5.884  0.00  0.00    +0.002 C 
ATOM      5  C   LIG    1       23.747 -32.461   5.784  0.00  0.00    +0.027 C 
ATOM      6  C   LIG    1       23.240 -33.192   7.047  0.00  0.00    +0.085 C 
ATOM      7  N   LIG    1       23.823 -32.685   8.289  0.00  0.00    -0.302 NA
ATOM      8  C   LIG    1       23.288 -33.379   9.457  0.00  0.00    +0.105 C 
ATOM      9  C   LIG    1       25.309 -32.639   8.301  0.00  0.00    +0.065 C 
ATOM     10  C   LIG    1       25.745 -31.235   8.753  0.00  0.00    +0.054 C 
ATOM     11  C   LIG    1       25.904 -32.945   6.917  0.00  0.00    +0.017 C 
ATOM     12  C   LIG    1       27.433 -32.898   6.816  0.00  0.00    +0.006 C 
ATOM     13  C   LIG    1       27.898 -33.438   5.457  0.00  0.00    +0.000 C 
ATOM     14  C   LIG    1       26.818 -33.372   4.373  0.00  0.00    +0.001 C 
ATOM     15  C   LIG    1       25.965 -32.113   4.507  0.00  0.00    +0.012 C 
ATOM     16  C   LIG    1       25.491 -30.181   7.699  0.00  0.00    -0.042 A 
ATOM     17  C   LIG    1       25.515 -28.833   8.085  0.00  0.00    +0.007 A 
ATOM     18  C   LIG    1       25.255 -27.825   7.158  0.00  0.00    +0.046 A 
ENDROOT
BRANCH   1  20
ATOM     19  C   LIG    1       24.300 -25.864   5.675  0.00  0.00    +0.277 C 
ATOM     20  O   LIG    1       24.708 -27.064   5.031  0.00  0.00    -0.495 OA
ENDBRANCH   1  20
TORSDOF 1
ENDMDL
MODEL 9
REMARK VINA RESULT:      -5.5      2.782      5.034
REMARK  Name = *****
REMARK                            x       y       z     vdW  Elec       q    Type
REMARK                         _______ _______ _______ _____ _____    ______ ____
ROOT
ATOM      1  C   LIG    1       24.932 -18.925   3.718  0.00  0.00    +0.120 A 
ATOM      2  C   LIG    1       25.684 -19.723   4.583  0.00  0.00    +0.050 A 
ATOM      3  C   LIG    1       25.073 -20.470   5.617  0.00  0.00    -0.034 A 
ATOM      4  C   LIG    1       25.938 -21.338   6.570  0.00  0.00    +0.002 C 
ATOM      5  C   LIG    1       26.323 -22.642   5.810  0.00  0.00    +0.027 C 
ATOM      6  C   LIG    1       25.380 -23.830   6.102  0.00  0.00    +0.085 C 
ATOM      7  N   LIG    1       23.989 -23.431   6.320  0.00  0.00    -0.302 NA
ATOM      8  C   LIG    1       23.129 -24.587   6.554  0.00  0.00    +0.105 C 
ATOM      9  C   LIG    1       23.803 -22.379   7.354  0.00  0.00    +0.065 C 
ATOM     10  C   LIG    1       22.931 -21.263   6.755  0.00  0.00    +0.054 C 
ATOM     11  C   LIG    1       25.144 -21.792   7.824  0.00  0.00    +0.017 C 
ATOM     12  C   LIG    1       25.061 -20.679   8.875  0.00  0.00    +0.006 C 
ATOM     13  C   LIG    1       26.457 -20.345   9.415  0.00  0.00    +0.000 C 
ATOM     14  C   LIG    1       27.590 -20.746   8.466  0.00  0.00    +0.001 C 
ATOM     15  C   LIG    1       27.202 -20.528   7.005  0.00  0.00    +0.012 C 
ATOM     16  C   LIG    1       23.668 -20.441   5.723  0.00  0.00    -0.042 A 
ATOM     17  C   LIG    1       22.919 -19.628   4.859  0.00  0.00    +0.007 A 
ATOM     18  C   LIG    1       23.548 -18.876   3.869  0.00  0.00    +0.046 A 
ENDROOT
BRANCH   1  20
ATOM     19  C   LIG    1       26.047 -16.931   3.059  0.00  0.00    +0.277 C 
ATOM     20  O   LIG    1       25.422 -18.156   2.698  0.00  0.00    -0.495 OA
ENDBRANCH   1  20
TORSDOF 1
ENDMDL
