MODEL 1
REMARK VINA RESULT:      -7.4      0.000      0.000
REMARK  Name = *****
REMARK                            x       y       z     vdW  Elec       q    Type
REMARK                         _______ _______ _______ _____ _____    ______ ____
ROOT
ATOM      1  C   LIG    1       24.655 -18.959   3.456  0.00  0.00    +0.061 C 
ATOM      2  C   LIG    1       23.603 -19.489   4.465  0.00  0.00    -0.019 C 
ATOM      3  C   LIG    1       22.487 -18.467   4.751  0.00  0.00    +0.012 C 
ATOM      4  C   LIG    1       24.452 -19.775   5.723  0.00  0.00    +0.003 C 
ATOM      5  C   LIG    1       23.753 -20.663   6.772  0.00  0.00    +0.019 C 
ATOM      6  C   LIG    1       23.009 -21.912   6.239  0.00  0.00    +0.006 C 
ATOM      7  C   LIG    1       22.201 -21.593   4.967  0.00  0.00    +0.005 C 
ATOM      8  C   LIG    1       23.806 -23.289   6.258  0.00  0.00    -0.003 C 
ATOM      9  C   LIG    1       22.839 -24.339   6.886  0.00  0.00    +0.016 C 
ATOM     10  C   LIG    1       25.062 -23.258   7.138  0.00  0.00    -0.038 C 
ATOM     11  C   LIG    1       26.069 -24.141   6.999  0.00  0.00    +0.050 C 
ATOM     12  C   LIG    1       26.058 -25.171   5.936  0.00  0.00    +0.156 C 
ATOM     13  O   LIG    1       26.926 -26.042   5.939  0.00  0.00    -0.293 OA
ATOM     14  C   LIG    1       24.975 -25.133   4.886  0.00  0.00    +0.080 C 
ATOM     15  C   LIG    1       25.214 -22.194   8.106  0.00  0.00    +0.000 C 
ATOM     16  C   LIG    1       24.226 -23.801   4.855  0.00  0.00    +0.019 C 
ATOM     17  C   LIG    1       24.642 -20.997   7.935  0.00  0.00    -0.023 C 
ATOM     18  C   LIG    1       25.801 -20.277   5.185  0.00  0.00    +0.005 C 
ATOM     19  C   LIG    1       22.971 -20.794   3.917  0.00  0.00    +0.008 C 
ATOM     20  C   LIG    1       25.920 -19.775   3.743  0.00  0.00    +0.012 C 
ENDROOT
BRANCH   1  22
ATOM     21  C   LIG    1       26.398 -17.052   3.345  0.00  0.00    +0.086 C 
ATOM     22  C   LIG    1       24.967 -17.465   3.579  0.00  0.00    +0.134 C 
ATOM     23  O   LIG    1       24.105 -16.629   3.848  0.00  0.00    -0.297 OA
ENDBRANCH   1  22
TORSDOF 1
ENDMDL
MODEL 2
REMARK VINA RESULT:      -6.1      9.930     11.533
REMARK  Name = *****
REMARK                            x       y       z     vdW  Elec       q    Type
REMARK                         _______ _______ _______ _____ _____    ______ ____
ROOT
ATOM      1  C   LIG    1       20.735 -27.212  13.169  0.00  0.00    +0.061 C 
ATOM      2  C   LIG    1       20.936 -28.744  13.303  0.00  0.00    -0.019 C 
ATOM      3  C   LIG    1       19.707 -29.454  13.900  0.00  0.00    +0.012 C 
ATOM      4  C   LIG    1       22.163 -28.846  14.237  0.00  0.00    +0.003 C 
ATOM      5  C   LIG    1       22.832 -30.236  14.254  0.00  0.00    +0.019 C 
ATOM      6  C   LIG    1       23.048 -30.920  12.882  0.00  0.00    +0.006 C 
ATOM      7  C   LIG    1       21.817 -30.767  11.971  0.00  0.00    +0.005 C 
ATOM      8  C   LIG    1       24.474 -30.734  12.201  0.00  0.00    -0.003 C 
ATOM      9  C   LIG    1       24.922 -32.157  11.744  0.00  0.00    +0.016 C 
ATOM     10  C   LIG    1       25.551 -30.215  13.162  0.00  0.00    -0.038 C 
ATOM     11  C   LIG    1       26.684 -29.627  12.736  0.00  0.00    +0.050 C 
ATOM     12  C   LIG    1       26.940 -29.384  11.299  0.00  0.00    +0.156 C 
ATOM     13  O   LIG    1       28.046 -28.977  10.949  0.00  0.00    -0.293 OA
ATOM     14  C   LIG    1       25.842 -29.655  10.300  0.00  0.00    +0.080 C 
ATOM     15  C   LIG    1       25.311 -30.287  14.588  0.00  0.00    +0.000 C 
ATOM     16  C   LIG    1       24.469 -29.809  10.956  0.00  0.00    +0.019 C 
ATOM     17  C   LIG    1       24.075 -30.270  15.098  0.00  0.00    -0.023 C 
ATOM     18  C   LIG    1       23.055 -27.657  13.849  0.00  0.00    +0.005 C 
ATOM     19  C   LIG    1       21.249 -29.350  11.911  0.00  0.00    +0.008 C 
ATOM     20  C   LIG    1       22.154 -26.631  13.157  0.00  0.00    +0.012 C 
ENDROOT
BRANCH   1  22
ATOM     21  C   LIG    1       18.510 -26.168  13.970  0.00  0.00    +0.086 C 
ATOM     22  C   LIG    1       19.925 -26.569  14.298  0.00  0.00    +0.134 C 
ATOM     23  O   LIG    1       20.389 -26.387  15.424  0.00  0.00    -0.297 OA
ENDBRANCH   1  22
TORSDOF 1
ENDMDL
MODEL 3
REMARK VINA RESULT:      -6.0      1.591      6.504
REMARK  Name = *****
REMARK                            x       y       z     vdW  Elec       q    Type
REMARK                         _______ _______ _______ _____ _____    ______ ____
ROOT
ATOM      1  C   LIG    1       26.016 -26.452   5.189  0.00  0.00    +0.061 C 
ATOM      2  C   LIG    1       25.657 -25.669   6.479  0.00  0.00    -0.019 C 
ATOM      3  C   LIG    1       25.729 -26.545   7.744  0.00  0.00    +0.012 C 
ATOM      4  C   LIG    1       24.216 -25.192   6.197  0.00  0.00    +0.003 C 
ATOM      5  C   LIG    1       23.723 -24.072   7.137  0.00  0.00    +0.019 C 
ATOM      6  C   LIG    1       24.710 -22.911   7.411  0.00  0.00    +0.006 C 
ATOM      7  C   LIG    1       26.141 -23.427   7.654  0.00  0.00    +0.005 C 
ATOM      8  C   LIG    1       24.559 -21.609   6.510  0.00  0.00    -0.003 C 
ATOM      9  C   LIG    1       24.582 -20.398   7.493  0.00  0.00    +0.016 C 
ATOM     10  C   LIG    1       23.229 -21.540   5.748  0.00  0.00    -0.038 C 
ATOM     11  C   LIG    1       23.051 -20.765   4.663  0.00  0.00    +0.050 C 
ATOM     12  C   LIG    1       24.158 -19.967   4.088  0.00  0.00    +0.156 C 
ATOM     13  O   LIG    1       23.913 -19.167   3.187  0.00  0.00    -0.293 OA
ATOM     14  C   LIG    1       25.554 -20.147   4.632  0.00  0.00    +0.080 C 
ATOM     15  C   LIG    1       22.140 -22.398   6.162  0.00  0.00    +0.000 C 
ATOM     16  C   LIG    1       25.702 -21.412   5.479  0.00  0.00    +0.019 C 
ATOM     17  C   LIG    1       22.356 -23.569   6.773  0.00  0.00    -0.023 C 
ATOM     18  C   LIG    1       24.187 -24.889   4.691  0.00  0.00    +0.005 C 
ATOM     19  C   LIG    1       26.618 -24.463   6.638  0.00  0.00    +0.008 C 
ATOM     20  C   LIG    1       25.338 -25.672   4.057  0.00  0.00    +0.012 C 
ENDROOT
BRANCH   1  22
ATOM     21  C   LIG    1       24.057 -28.136   5.278  0.00  0.00    +0.086 C 
ATOM     22  C   LIG    1       25.543 -27.907   5.168  0.00  0.00    +0.134 C 
ATOM     23  O   LIG    1       26.321 -28.855   5.060  0.00  0.00    -0.297 OA
ENDBRANCH   1  22
TORSDOF 1
ENDMDL
MODEL 4
REMARK VINA RESULT:      -5.8      9.409     11.462
REMARK  Name = *****
REMARK                            x       y       z     vdW  Elec       q    Type
REMARK                         _______ _______ _______ _____ _____    ______ ____
ROOT
ATOM      1  C   LIG    1       25.566 -32.973   7.565  0.00  0.00    +0.061 C 
ATOM      2  C   LIG    1       24.810 -31.657   7.888  0.00  0.00    -0.019 C 
ATOM      3  C   LIG    1       24.026 -31.111   6.681  0.00  0.00    +0.012 C 
ATOM      4  C   LIG    1       25.952 -30.703   8.306  0.00  0.00    +0.003 C 
ATOM      5  C   LIG    1       25.479 -29.434   9.043  0.00  0.00    +0.019 C 
ATOM      6  C   LIG    1       24.410 -29.628  10.146  0.00  0.00    +0.006 C 
ATOM      7  C   LIG    1       23.309 -30.610   9.703  0.00  0.00    +0.005 C 
ATOM      8  C   LIG    1       24.934 -29.763  11.642  0.00  0.00    -0.003 C 
ATOM      9  C   LIG    1       24.052 -28.800  12.496  0.00  0.00    +0.016 C 
ATOM     10  C   LIG    1       26.389 -29.315  11.826  0.00  0.00    -0.038 C 
ATOM     11  C   LIG    1       27.141 -29.696  12.875  0.00  0.00    +0.050 C 
ATOM     12  C   LIG    1       26.627 -30.633  13.899  0.00  0.00    +0.156 C 
ATOM     13  O   LIG    1       27.295 -30.838  14.910  0.00  0.00    -0.293 OA
ATOM     14  C   LIG    1       25.292 -31.301  13.681  0.00  0.00    +0.080 C 
ATOM     15  C   LIG    1       27.010 -28.512  10.794  0.00  0.00    +0.000 C 
ATOM     16  C   LIG    1       24.802 -31.190  12.237  0.00  0.00    +0.019 C 
ATOM     17  C   LIG    1       26.620 -28.579   9.516  0.00  0.00    -0.023 C 
ATOM     18  C   LIG    1       26.961 -31.594   9.046  0.00  0.00    +0.005 C 
ATOM     19  C   LIG    1       23.832 -31.896   9.066  0.00  0.00    +0.008 C 
ATOM     20  C   LIG    1       26.704 -33.032   8.591  0.00  0.00    +0.012 C 
ENDROOT
BRANCH   1  22
ATOM     21  C   LIG    1       25.343 -33.825   5.135  0.00  0.00    +0.086 C 
ATOM     22  C   LIG    1       26.144 -33.050   6.150  0.00  0.00    +0.134 C 
ATOM     23  O   LIG    1       27.204 -32.508   5.838  0.00  0.00    -0.297 OA
ENDBRANCH   1  22
TORSDOF 1
ENDMDL
MODEL 5
REMARK VINA RESULT:      -5.8      8.996     11.160
REMARK  Name = *****
REMARK                            x       y       z     vdW  Elec       q    Type
REMARK                         _______ _______ _______ _____ _____    ______ ____
ROOT
ATOM      1  C   LIG    1       25.331 -30.204   7.368  0.00  0.00    +0.061 C 
ATOM      2  C   LIG    1       25.826 -30.982   8.617  0.00  0.00    -0.019 C 
ATOM      3  C   LIG    1       26.512 -32.312   8.254  0.00  0.00    +0.012 C 
ATOM      4  C   LIG    1       24.522 -31.211   9.412  0.00  0.00    +0.003 C 
ATOM      5  C   LIG    1       24.740 -31.628  10.881  0.00  0.00    +0.019 C 
ATOM      6  C   LIG    1       25.812 -30.841  11.675  0.00  0.00    +0.006 C 
ATOM      7  C   LIG    1       27.081 -30.605  10.836  0.00  0.00    +0.005 C 
ATOM      8  C   LIG    1       25.300 -29.625  12.563  0.00  0.00    -0.003 C 
ATOM      9  C   LIG    1       25.977 -29.795  13.959  0.00  0.00    +0.016 C 
ATOM     10  C   LIG    1       23.785 -29.630  12.799  0.00  0.00    -0.038 C 
ATOM     11  C   LIG    1       23.102 -28.531  13.169  0.00  0.00    +0.050 C 
ATOM     12  C   LIG    1       23.766 -27.216  13.313  0.00  0.00    +0.156 C 
ATOM     13  O   LIG    1       23.133 -26.276  13.790  0.00  0.00    -0.293 OA
ATOM     14  C   LIG    1       25.205 -27.067  12.884  0.00  0.00    +0.080 C 
ATOM     15  C   LIG    1       23.040 -30.844  12.540  0.00  0.00    +0.000 C 
ATOM     16  C   LIG    1       25.686 -28.227  12.011  0.00  0.00    +0.019 C 
ATOM     17  C   LIG    1       23.454 -31.750  11.647  0.00  0.00    -0.023 C 
ATOM     18  C   LIG    1       23.685 -29.945   9.174  0.00  0.00    +0.005 C 
ATOM     19  C   LIG    1       26.815 -30.099   9.420  0.00  0.00    +0.008 C 
ATOM     20  C   LIG    1       24.210 -29.298   7.890  0.00  0.00    +0.012 C 
ENDROOT
BRANCH   1  22
ATOM     21  C   LIG    1       25.757 -31.396   5.114  0.00  0.00    +0.086 C 
ATOM     22  C   LIG    1       24.798 -31.083   6.234  0.00  0.00    +0.134 C 
ATOM     23  O   LIG    1       23.649 -31.525   6.224  0.00  0.00    -0.297 OA
ENDBRANCH   1  22
TORSDOF 1
ENDMDL
MODEL 6
REMARK VINA RESULT:      -5.7      9.227     11.401
REMARK  Name = *****
REMARK                            x       y       z     vdW  Elec       q    Type
REMARK                         _______ _______ _______ _____ _____    ______ ____
ROOT
ATOM      1  C   LIG    1       25.386 -30.953   7.761  0.00  0.00    +0.061 C 
ATOM      2  C   LIG    1       24.892 -31.789   8.970  0.00  0.00    -0.019 C 
ATOM      3  C   LIG    1       24.752 -33.286   8.639  0.00  0.00    +0.012 C 
ATOM      4  C   LIG    1       23.526 -31.145   9.293  0.00  0.00    +0.003 C 
ATOM      5  C   LIG    1       22.963 -31.515  10.681  0.00  0.00    +0.019 C 
ATOM      6  C   LIG    1       23.956 -31.471  11.868  0.00  0.00    +0.006 C 
ATOM      7  C   LIG    1       25.315 -32.091  11.495  0.00  0.00    +0.005 C 
ATOM      8  C   LIG    1       23.988 -30.134  12.731  0.00  0.00    -0.003 C 
ATOM      9  C   LIG    1       23.934 -30.583  14.223  0.00  0.00    +0.016 C 
ATOM     10  C   LIG    1       22.778 -29.222  12.495  0.00  0.00    -0.038 C 
ATOM     11  C   LIG    1       22.785 -27.911  12.800  0.00  0.00    +0.050 C 
ATOM     12  C   LIG    1       23.995 -27.243  13.330  0.00  0.00    +0.156 C 
ATOM     13  O   LIG    1       23.912 -26.083  13.728  0.00  0.00    -0.293 OA
ATOM     14  C   LIG    1       25.295 -28.008  13.382  0.00  0.00    +0.080 C 
ATOM     15  C   LIG    1       21.605 -29.768  11.847  0.00  0.00    +0.000 C 
ATOM     16  C   LIG    1       25.268 -29.280  12.533  0.00  0.00    +0.019 C 
ATOM     17  C   LIG    1       21.682 -30.797  10.997  0.00  0.00    -0.023 C 
ATOM     18  C   LIG    1       23.715 -29.649   9.003  0.00  0.00    +0.005 C 
ATOM     19  C   LIG    1       25.877 -31.619  10.155  0.00  0.00    +0.008 C 
ATOM     20  C   LIG    1       24.904 -29.526   8.048  0.00  0.00    +0.012 C 
ENDROOT
BRANCH   1  22
ATOM     21  C   LIG    1       25.857 -32.008   5.448  0.00  0.00    +0.086 C 
ATOM     22  C   LIG    1       24.853 -31.413   6.401  0.00  0.00    +0.134 C 
ATOM     23  O   LIG    1       23.666 -31.314   6.089  0.00  0.00    -0.297 OA
ENDBRANCH   1  22
TORSDOF 1
ENDMDL
MODEL 7
REMARK VINA RESULT:      -5.6      7.875     11.547
REMARK  Name = *****
REMARK                            x       y       z     vdW  Elec       q    Type
REMARK                         _______ _______ _______ _____ _____    ______ ____
ROOT
ATOM      1  C   LIG    1       22.071 -29.889  13.232  0.00  0.00    +0.061 C 
ATOM      2  C   LIG    1       23.186 -30.896  12.845  0.00  0.00    -0.019 C 
ATOM      3  C   LIG    1       23.342 -32.032  13.873  0.00  0.00    +0.012 C 
ATOM      4  C   LIG    1       24.445 -30.003  12.786  0.00  0.00    +0.003 C 
ATOM      5  C   LIG    1       25.645 -30.646  12.061  0.00  0.00    +0.019 C 
ATOM      6  C   LIG    1       25.344 -31.368  10.726  0.00  0.00    +0.006 C 
ATOM      7  C   LIG    1       24.065 -32.221  10.817  0.00  0.00    +0.005 C 
ATOM      8  C   LIG    1       25.557 -30.531   9.390  0.00  0.00    -0.003 C 
ATOM      9  C   LIG    1       26.376 -31.449   8.431  0.00  0.00    +0.016 C 
ATOM     10  C   LIG    1       26.378 -29.251   9.591  0.00  0.00    -0.038 C 
ATOM     11  C   LIG    1       26.349 -28.224   8.722  0.00  0.00    +0.050 C 
ATOM     12  C   LIG    1       25.466 -28.236   7.535  0.00  0.00    +0.156 C 
ATOM     13  O   LIG    1       25.579 -27.343   6.696  0.00  0.00    -0.293 OA
ATOM     14  C   LIG    1       24.460 -29.349   7.377  0.00  0.00    +0.080 C 
ATOM     15  C   LIG    1       27.158 -29.103  10.801  0.00  0.00    +0.000 C 
ATOM     16  C   LIG    1       24.240 -30.137   8.669  0.00  0.00    +0.019 C 
ATOM     17  C   LIG    1       26.817 -29.714  11.941  0.00  0.00    -0.023 C 
ATOM     18  C   LIG    1       23.950 -28.656  12.237  0.00  0.00    +0.005 C 
ATOM     19  C   LIG    1       22.875 -31.505  11.454  0.00  0.00    +0.008 C 
ATOM     20  C   LIG    1       22.444 -28.593  12.503  0.00  0.00    +0.012 C 
ENDROOT
BRANCH   1  22
ATOM     21  C   LIG    1       20.742 -30.205  15.427  0.00  0.00    +0.086 C 
ATOM     22  C   LIG    1       21.944 -29.617  14.733  0.00  0.00    +0.134 C 
ATOM     23  O   LIG    1       22.774 -28.958  15.358  0.00  0.00    -0.297 OA
ENDBRANCH   1  22
TORSDOF 1
ENDMDL
MODEL 8
REMARK VINA RESULT:      -5.5      9.507     10.851
REMARK  Name = *****
REMARK                            x       y       z     vdW  Elec       q    Type
REMARK                         _______ _______ _______ _____ _____    ______ ____
ROOT
ATOM      1  C   LIG    1       25.868 -25.268  13.486  0.00  0.00    +0.061 C 
ATOM      2  C   LIG    1       24.781 -26.063  14.256  0.00  0.00    -0.019 C 
ATOM      3  C   LIG    1       24.267 -25.315  15.500  0.00  0.00    +0.012 C 
ATOM      4  C   LIG    1       25.518 -27.365  14.637  0.00  0.00    +0.003 C 
ATOM      5  C   LIG    1       24.588 -28.513  15.083  0.00  0.00    +0.019 C 
ATOM      6  C   LIG    1       23.323 -28.755  14.225  0.00  0.00    +0.006 C 
ATOM      7  C   LIG    1       22.637 -27.432  13.838  0.00  0.00    +0.005 C 
ATOM      8  C   LIG    1       23.421 -29.871  13.095  0.00  0.00    -0.003 C 
ATOM      9  C   LIG    1       22.145 -30.754  13.249  0.00  0.00    +0.016 C 
ATOM     10  C   LIG    1       24.629 -30.802  13.255  0.00  0.00    -0.038 C 
ATOM     11  C   LIG    1       25.121 -31.537  12.240  0.00  0.00    +0.050 C 
ATOM     12  C   LIG    1       24.560 -31.447  10.873  0.00  0.00    +0.156 C 
ATOM     13  O   LIG    1       24.945 -32.239  10.016  0.00  0.00    -0.293 OA
ATOM     14  C   LIG    1       23.522 -30.394  10.571  0.00  0.00    +0.080 C 
ATOM     15  C   LIG    1       25.322 -30.838  14.525  0.00  0.00    +0.000 C 
ATOM     16  C   LIG    1       23.446 -29.311  11.648  0.00  0.00    +0.019 C 
ATOM     17  C   LIG    1       25.332 -29.790  15.355  0.00  0.00    -0.023 C 
ATOM     18  C   LIG    1       26.449 -27.656  13.451  0.00  0.00    +0.005 C 
ATOM     19  C   LIG    1       23.589 -26.360  13.310  0.00  0.00    +0.008 C 
ATOM     20  C   LIG    1       26.656 -26.331  12.712  0.00  0.00    +0.012 C 
ENDROOT
BRANCH   1  22
ATOM     21  C   LIG    1       28.118 -25.134  14.752  0.00  0.00    +0.086 C 
ATOM     22  C   LIG    1       26.823 -24.464  14.372  0.00  0.00    +0.134 C 
ATOM     23  O   LIG    1       26.564 -23.324  14.758  0.00  0.00    -0.297 OA
ENDBRANCH   1  22
TORSDOF 1
ENDMDL
MODEL 9
REMARK VINA RESULT:      -5.5     10.528     12.305
REMARK  Name = *****
REMARK                            x       y       z     vdW  Elec       q    Type
REMARK                         _______ _______ _______ _____ _____    ______ ____
ROOT
ATOM      1  C   LIG    1       20.425 -28.446  15.148  0.00  0.00    +0.061 C 
ATOM      2  C   LIG    1       21.240 -27.841  13.975  0.00  0.00    -0.019 C 
ATOM      3  C   LIG    1       20.446 -26.785  13.183  0.00  0.00    +0.012 C 
ATOM      4  C   LIG    1       21.562 -29.079  13.111  0.00  0.00    +0.003 C 
ATOM      5  C   LIG    1       22.680 -28.854  12.071  0.00  0.00    +0.019 C 
ATOM      6  C   LIG    1       23.942 -28.104  12.561  0.00  0.00    +0.006 C 
ATOM      7  C   LIG    1       23.579 -26.897  13.446  0.00  0.00    +0.005 C 
ATOM      8  C   LIG    1       25.173 -28.996  13.032  0.00  0.00    -0.003 C 
ATOM      9  C   LIG    1       26.432 -28.396  12.333  0.00  0.00    +0.016 C 
ATOM     10  C   LIG    1       25.073 -30.461  12.591  0.00  0.00    -0.038 C 
ATOM     11  C   LIG    1       25.768 -31.449  13.186  0.00  0.00    +0.050 C 
ATOM     12  C   LIG    1       26.634 -31.192  14.358  0.00  0.00    +0.156 C 
ATOM     13  O   LIG    1       27.356 -32.095  14.776  0.00  0.00    -0.293 OA
ATOM     14  C   LIG    1       26.618 -29.827  15.000  0.00  0.00    +0.080 C 
ATOM     15  C   LIG    1       24.139 -30.815  11.544  0.00  0.00    +0.000 C 
ATOM     16  C   LIG    1       25.421 -28.981  14.563  0.00  0.00    +0.019 C 
ATOM     17  C   LIG    1       23.030 -30.104  11.316  0.00  0.00    -0.023 C 
ATOM     18  C   LIG    1       21.778 -30.220  14.117  0.00  0.00    +0.005 C 
ATOM     19  C   LIG    1       22.539 -27.197  14.524  0.00  0.00    +0.008 C 
ATOM     20  C   LIG    1       21.073 -29.810  15.413  0.00  0.00    +0.012 C 
ENDROOT
BRANCH   1  22
ATOM     21  C   LIG    1       17.995 -27.637  15.500  0.00  0.00    +0.086 C 
ATOM     22  C   LIG    1       18.932 -28.632  14.865  0.00  0.00    +0.134 C 
ATOM     23  O   LIG    1       18.502 -29.539  14.152  0.00  0.00    -0.297 OA
ENDBRANCH   1  22
TORSDOF 1
ENDMDL
