MODEL 1
REMARK VINA RESULT:      -4.8      0.000      0.000
REMARK  Name = *****
REMARK                            x       y       z     vdW  Elec       q    Type
REMARK                         _______ _______ _______ _____ _____    ______ ____
ROOT
ATOM      1  C   LIG    1       24.888 -12.404   2.569  0.00  0.00    +0.124 A 
ATOM      2  C   LIG    1       24.441 -13.689   2.844  0.00  0.00    +0.091 A 
ATOM      3  C   LIG    1       25.359 -14.692   3.152  0.00  0.00    +0.132 A 
ATOM      4  O   LIG    1       24.827 -15.927   3.406  0.00  0.00    -0.481 OA
ATOM      5  C   LIG    1       25.764 -17.013   3.375  0.00  0.00    +0.232 C 
ATOM      6  C   LIG    1       27.033 -16.697   4.194  0.00  0.00    +0.164 C 
ATOM      7  C   LIG    1       27.717 -15.477   3.577  0.00  0.00    +0.078 C 
ATOM      8  C   LIG    1       26.727 -14.406   3.219  0.00  0.00    +0.038 A 
ATOM      9  C   LIG    1       27.153 -13.105   2.923  0.00  0.00    +0.127 A 
ATOM     10  C   LIG    1       26.244 -12.098   2.599  0.00  0.00    +0.091 A 
ENDROOT
BRANCH   5  11
ATOM     11  C   LIG    1       24.995 -18.251   3.816  0.00  0.00    -0.001 A 
ATOM     12  C   LIG    1       25.636 -19.384   4.342  0.00  0.00    +0.056 A 
ATOM     13  C   LIG    1       24.883 -20.475   4.756  0.00  0.00    +0.159 A 
ATOM     14  C   LIG    1       23.494 -20.463   4.671  0.00  0.00    +0.158 A 
ATOM     15  C   LIG    1       22.835 -19.348   4.171  0.00  0.00    +0.049 A 
ATOM     16  C   LIG    1       23.586 -18.245   3.751  0.00  0.00    +0.011 A 
BRANCH  13  17
ATOM     17  O   LIG    1       25.523 -21.572   5.261  0.00  0.00    -0.503 OA
ATOM     18  H   LIG    1       24.916 -21.912   5.949  0.00  0.00    +0.292 HD
ENDBRANCH  13  17
BRANCH  14  19
ATOM     19  O   LIG    1       22.819 -21.571   5.101  0.00  0.00    -0.503 OA
ATOM     20  H   LIG    1       22.051 -21.273   5.617  0.00  0.00    +0.292 HD
ENDBRANCH  14  19
ENDBRANCH   5  11
BRANCH   1  21
ATOM     21  O   LIG    1       23.952 -11.458   2.264  0.00  0.00    -0.506 OA
ATOM     22  H   LIG    1       24.394 -10.681   1.885  0.00  0.00    +0.292 HD
ENDBRANCH   1  21
BRANCH   6  23
ATOM     23  O   LIG    1       27.967 -17.782   4.219  0.00  0.00    -0.388 OA
ATOM     24  H   LIG    1       28.205 -18.005   3.302  0.00  0.00    +0.210 HD
ENDBRANCH   6  23
BRANCH   9  25
ATOM     25  O   LIG    1       28.494 -12.837   2.957  0.00  0.00    -0.506 OA
ATOM     26  H   LIG    1       28.630 -11.915   3.232  0.00  0.00    +0.292 HD
ENDBRANCH   9  25
TORSDOF 6
ENDMDL
MODEL 2
REMARK VINA RESULT:      -2.9      1.769      7.023
REMARK  Name = *****
REMARK                            x       y       z     vdW  Elec       q    Type
REMARK                         _______ _______ _______ _____ _____    ______ ____
ROOT
ATOM      1  C   LIG    1       24.080 -20.284   3.815  0.00  0.00    +0.124 A 
ATOM      2  C   LIG    1       24.970 -19.220   3.751  0.00  0.00    +0.091 A 
ATOM      3  C   LIG    1       24.495 -17.912   3.842  0.00  0.00    +0.132 A 
ATOM      4  O   LIG    1       25.444 -16.929   3.766  0.00  0.00    -0.481 OA
ATOM      5  C   LIG    1       24.938 -15.611   3.508  0.00  0.00    +0.232 C 
ATOM      6  C   LIG    1       23.749 -15.265   4.429  0.00  0.00    +0.164 C 
ATOM      7  C   LIG    1       22.618 -16.257   4.155  0.00  0.00    +0.078 C 
ATOM      8  C   LIG    1       23.130 -17.663   4.030  0.00  0.00    +0.038 A 
ATOM      9  C   LIG    1       22.253 -18.753   4.077  0.00  0.00    +0.127 A 
ATOM     10  C   LIG    1       22.716 -20.065   3.972  0.00  0.00    +0.091 A 
ENDROOT
BRANCH   5  11
ATOM     11  C   LIG    1       26.131 -14.671   3.604  0.00  0.00    -0.001 A 
ATOM     12  C   LIG    1       26.555 -14.119   4.823  0.00  0.00    +0.056 A 
ATOM     13  C   LIG    1       27.670 -13.290   4.857  0.00  0.00    +0.159 A 
ATOM     14  C   LIG    1       28.387 -13.004   3.699  0.00  0.00    +0.158 A 
ATOM     15  C   LIG    1       27.999 -13.551   2.485  0.00  0.00    +0.049 A 
ATOM     16  C   LIG    1       26.877 -14.387   2.441  0.00  0.00    +0.011 A 
BRANCH  13  17
ATOM     17  O   LIG    1       28.066 -12.757   6.051  0.00  0.00    -0.503 OA
ATOM     18  H   LIG    1       28.502 -13.499   6.515  0.00  0.00    +0.292 HD
ENDBRANCH  13  17
BRANCH  14  19
ATOM     19  O   LIG    1       29.475 -12.182   3.810  0.00  0.00    -0.503 OA
ATOM     20  H   LIG    1       30.273 -12.725   3.688  0.00  0.00    +0.292 HD
ENDBRANCH  14  19
ENDBRANCH   5  11
BRANCH   1  21
ATOM     21  O   LIG    1       24.591 -21.546   3.713  0.00  0.00    -0.506 OA
ATOM     22  H   LIG    1       25.533 -21.528   3.948  0.00  0.00    +0.292 HD
ENDBRANCH   1  21
BRANCH   6  23
ATOM     23  O   LIG    1       23.252 -13.937   4.225  0.00  0.00    -0.388 OA
ATOM     24  H   LIG    1       23.854 -13.473   3.618  0.00  0.00    +0.210 HD
ENDBRANCH   6  23
BRANCH   9  25
ATOM     25  O   LIG    1       20.916 -18.506   4.227  0.00  0.00    -0.506 OA
ATOM     26  H   LIG    1       20.719 -17.609   3.909  0.00  0.00    +0.292 HD
ENDBRANCH   9  25
TORSDOF 6
ENDMDL
MODEL 3
REMARK VINA RESULT:      -2.9      1.121      6.805
REMARK  Name = *****
REMARK                            x       y       z     vdW  Elec       q    Type
REMARK                         _______ _______ _______ _____ _____    ______ ____
ROOT
ATOM      1  C   LIG    1       22.475 -20.259   4.385  0.00  0.00    +0.124 A 
ATOM      2  C   LIG    1       22.782 -18.952   4.031  0.00  0.00    +0.091 A 
ATOM      3  C   LIG    1       24.109 -18.523   4.045  0.00  0.00    +0.132 A 
ATOM      4  O   LIG    1       24.316 -17.219   3.683  0.00  0.00    -0.481 OA
ATOM      5  C   LIG    1       25.603 -16.687   4.029  0.00  0.00    +0.232 C 
ATOM      6  C   LIG    1       26.745 -17.641   3.619  0.00  0.00    +0.164 C 
ATOM      7  C   LIG    1       26.571 -18.960   4.373  0.00  0.00    +0.078 C 
ATOM      8  C   LIG    1       25.139 -19.410   4.382  0.00  0.00    +0.038 A 
ATOM      9  C   LIG    1       24.800 -20.718   4.750  0.00  0.00    +0.127 A 
ATOM     10  C   LIG    1       23.474 -21.152   4.753  0.00  0.00    +0.091 A 
ENDROOT
BRANCH   5  11
ATOM     11  C   LIG    1       25.666 -15.295   3.419  0.00  0.00    -0.001 A 
ATOM     12  C   LIG    1       24.544 -14.453   3.356  0.00  0.00    +0.056 A 
ATOM     13  C   LIG    1       24.664 -13.178   2.815  0.00  0.00    +0.159 A 
ATOM     14  C   LIG    1       25.887 -12.712   2.342  0.00  0.00    +0.158 A 
ATOM     15  C   LIG    1       27.015 -13.518   2.409  0.00  0.00    +0.049 A 
ATOM     16  C   LIG    1       26.903 -14.803   2.952  0.00  0.00    +0.011 A 
BRANCH  13  17
ATOM     17  O   LIG    1       23.562 -12.374   2.757  0.00  0.00    -0.503 OA
ATOM     18  H   LIG    1       23.549 -11.917   3.622  0.00  0.00    +0.292 HD
ENDBRANCH  13  17
BRANCH  14  19
ATOM     19  O   LIG    1       25.931 -11.447   1.826  0.00  0.00    -0.503 OA
ATOM     20  H   LIG    1       25.243 -11.379   1.142  0.00  0.00    +0.292 HD
ENDBRANCH  14  19
ENDBRANCH   5  11
BRANCH   1  21
ATOM     21  O   LIG    1       21.161 -20.629   4.365  0.00  0.00    -0.506 OA
ATOM     22  H   LIG    1       21.101 -21.581   4.184  0.00  0.00    +0.292 HD
ENDBRANCH   1  21
BRANCH   6  23
ATOM     23  O   LIG    1       28.045 -17.114   3.911  0.00  0.00    -0.388 OA
ATOM     24  H   LIG    1       28.539 -17.032   3.077  0.00  0.00    +0.210 HD
ENDBRANCH   6  23
BRANCH   9  25
ATOM     25  O   LIG    1       25.805 -21.572   5.111  0.00  0.00    -0.506 OA
ATOM     26  H   LIG    1       25.955 -22.212   4.396  0.00  0.00    +0.292 HD
ENDBRANCH   9  25
TORSDOF 6
ENDMDL
MODEL 4
REMARK VINA RESULT:      -2.1      0.959      6.716
REMARK  Name = *****
REMARK                            x       y       z     vdW  Elec       q    Type
REMARK                         _______ _______ _______ _____ _____    ______ ____
ROOT
ATOM      1  C   LIG    1       22.442 -20.233   4.392  0.00  0.00    +0.124 A 
ATOM      2  C   LIG    1       22.752 -18.919   4.064  0.00  0.00    +0.091 A 
ATOM      3  C   LIG    1       24.080 -18.495   4.078  0.00  0.00    +0.132 A 
ATOM      4  O   LIG    1       24.288 -17.184   3.743  0.00  0.00    -0.481 OA
ATOM      5  C   LIG    1       25.579 -16.664   4.092  0.00  0.00    +0.232 C 
ATOM      6  C   LIG    1       26.716 -17.611   3.653  0.00  0.00    +0.164 C 
ATOM      7  C   LIG    1       26.543 -18.946   4.379  0.00  0.00    +0.078 C 
ATOM      8  C   LIG    1       25.109 -19.392   4.389  0.00  0.00    +0.038 A 
ATOM      9  C   LIG    1       24.769 -20.707   4.730  0.00  0.00    +0.127 A 
ATOM     10  C   LIG    1       23.442 -21.137   4.733  0.00  0.00    +0.091 A 
ENDROOT
BRANCH   5  11
ATOM     11  C   LIG    1       25.642 -15.258   3.512  0.00  0.00    -0.001 A 
ATOM     12  C   LIG    1       26.835 -14.520   3.461  0.00  0.00    +0.056 A 
ATOM     13  C   LIG    1       26.841 -13.253   2.892  0.00  0.00    +0.159 A 
ATOM     14  C   LIG    1       25.681 -12.700   2.358  0.00  0.00    +0.158 A 
ATOM     15  C   LIG    1       24.492 -13.416   2.380  0.00  0.00    +0.049 A 
ATOM     16  C   LIG    1       24.477 -14.693   2.951  0.00  0.00    +0.011 A 
BRANCH  13  17
ATOM     17  O   LIG    1       28.010 -12.546   2.855  0.00  0.00    -0.503 OA
ATOM     18  H   LIG    1       28.066 -12.219   1.935  0.00  0.00    +0.292 HD
ENDBRANCH  13  17
BRANCH  14  19
ATOM     19  O   LIG    1       25.763 -11.449   1.813  0.00  0.00    -0.503 OA
ATOM     20  H   LIG    1       26.268 -11.516   0.985  0.00  0.00    +0.292 HD
ENDBRANCH  14  19
ENDBRANCH   5  11
BRANCH   1  21
ATOM     21  O   LIG    1       21.128 -20.599   4.373  0.00  0.00    -0.506 OA
ATOM     22  H   LIG    1       20.873 -20.921   5.253  0.00  0.00    +0.292 HD
ENDBRANCH   1  21
BRANCH   6  23
ATOM     23  O   LIG    1       28.019 -17.095   3.947  0.00  0.00    -0.388 OA
ATOM     24  H   LIG    1       27.922 -16.350   4.566  0.00  0.00    +0.210 HD
ENDBRANCH   6  23
BRANCH   9  25
ATOM     25  O   LIG    1       25.773 -21.571   5.066  0.00  0.00    -0.506 OA
ATOM     26  H   LIG    1       26.286 -21.198   5.802  0.00  0.00    +0.292 HD
ENDBRANCH   9  25
TORSDOF 6
ENDMDL
