MODEL 1
REMARK VINA RESULT:     -10.0      0.000      0.000
REMARK  Name = *****
REMARK                            x       y       z     vdW  Elec       q    Type
REMARK                         _______ _______ _______ _____ _____    ______ ____
ROOT
ATOM      1  N   LIG    1       25.574 -24.583   5.343  0.00  0.00    -0.302 NA
ATOM      2  C   LIG    1       24.602 -23.596   4.873  0.00  0.00    +0.085 C 
ATOM      3  C   LIG    1       23.651 -23.108   5.963  0.00  0.00    +0.022 C 
ATOM      4  C   LIG    1       24.339 -22.497   7.206  0.00  0.00    +0.032 C 
ATOM      5  C   LIG    1       25.493 -23.444   7.632  0.00  0.00    +0.022 C 
ATOM      6  C   LIG    1       26.321 -24.073   6.501  0.00  0.00    +0.085 C 
ENDROOT
BRANCH   1   7
ATOM      7  C   LIG    1       24.970 -25.913   5.531  0.00  0.00    +0.084 C 
BRANCH   7   8
ATOM      8  C   LIG    1       25.562 -26.977   4.591  0.00  0.00    +0.018 C 
BRANCH   8   9
ATOM      9  C   LIG    1       25.360 -28.432   5.050  0.00  0.00    +0.037 C 
BRANCH   9  10
ATOM     10  C   LIG    1       24.230 -28.612   6.086  0.00  0.00    +0.144 C 
BRANCH  10  14
ATOM     11  C   LIG    1       25.673 -29.346  10.129  0.00  0.00    -0.031 A 
ATOM     12  C   LIG    1       24.552 -30.025   9.616  0.00  0.00    +0.005 A 
ATOM     13  C   LIG    1       24.099 -29.806   8.311  0.00  0.00    +0.006 A 
ATOM     14  C   LIG    1       24.759 -28.908   7.472  0.00  0.00    -0.019 A 
ATOM     15  C   LIG    1       25.927 -28.300   7.947  0.00  0.00    +0.006 A 
ATOM     16  C   LIG    1       26.377 -28.517   9.247  0.00  0.00    +0.005 A 
BRANCH  11  18
ATOM     17  C   LIG    1       25.931 -30.985  12.056  0.00  0.00    +0.027 C 
ATOM     18  C   LIG    1       26.145 -29.525  11.593  0.00  0.00    +0.087 C 
ATOM     19  C   LIG    1       25.316 -28.621  12.541  0.00  0.00    +0.027 C 
BRANCH  18  20
ATOM     20  C   LIG    1       27.629 -29.175  11.748  0.00  0.00    +0.315 C 
ATOM     21  O   LIG    1       28.576 -29.897  11.369  0.00  0.00    -0.250 OA
BRANCH  20  22
ATOM     22  O   LIG    1       27.894 -27.986  12.357  0.00  0.00    -0.480 OA
ATOM     23  H   LIG    1       28.369 -28.068  13.206  0.00  0.00    +0.295 HD
ENDBRANCH  20  22
ENDBRANCH  18  20
ENDBRANCH  11  18
ENDBRANCH  10  14
BRANCH  10  24
ATOM     24  O   LIG    1       23.362 -29.679   5.712  0.00  0.00    -0.387 OA
ATOM     25  H   LIG    1       22.772 -29.315   5.023  0.00  0.00    +0.210 HD
ENDBRANCH  10  24
ENDBRANCH   9  10
ENDBRANCH   8   9
ENDBRANCH   7   8
ENDBRANCH   1   7
BRANCH   4  26
ATOM     26  C   LIG    1       24.745 -20.967   7.074  0.00  0.00    +0.119 C 
BRANCH  26  27
ATOM     27  C   LIG    1       24.115 -20.305   5.812  0.00  0.00    -0.011 A 
ATOM     28  C   LIG    1       24.842 -20.092   4.623  0.00  0.00    +0.007 A 
ATOM     29  C   LIG    1       24.261 -19.468   3.506  0.00  0.00    +0.000 A 
ATOM     30  C   LIG    1       22.940 -19.036   3.549  0.00  0.00    +0.000 A 
ATOM     31  C   LIG    1       22.191 -19.251   4.699  0.00  0.00    +0.000 A 
ATOM     32  C   LIG    1       22.769 -19.883   5.809  0.00  0.00    +0.007 A 
ENDBRANCH  26  27
BRANCH  26  33
ATOM     33  C   LIG    1       26.294 -20.753   7.107  0.00  0.00    -0.011 A 
ATOM     34  C   LIG    1       27.018 -20.722   8.318  0.00  0.00    +0.007 A 
ATOM     35  C   LIG    1       28.402 -20.475   8.343  0.00  0.00    +0.000 A 
ATOM     36  C   LIG    1       29.099 -20.252   7.160  0.00  0.00    +0.000 A 
ATOM     37  C   LIG    1       28.416 -20.280   5.951  0.00  0.00    +0.000 A 
ATOM     38  C   LIG    1       27.039 -20.542   5.926  0.00  0.00    +0.007 A 
ENDBRANCH  26  33
BRANCH  26  39
ATOM     39  O   LIG    1       24.160 -20.321   8.219  0.00  0.00    -0.379 OA
ATOM     40  H   LIG    1       23.199 -20.367   8.117  0.00  0.00    +0.211 HD
ENDBRANCH  26  39
ENDBRANCH   4  26
TORSDOF 13
ENDMDL
MODEL 2
REMARK VINA RESULT:      -9.7      2.553      9.524
REMARK  Name = *****
REMARK                            x       y       z     vdW  Elec       q    Type
REMARK                         _______ _______ _______ _____ _____    ______ ____
ROOT
ATOM      1  N   LIG    1       24.256 -25.905   5.446  0.00  0.00    -0.302 NA
ATOM      2  C   LIG    1       24.340 -27.118   4.634  0.00  0.00    +0.085 C 
ATOM      3  C   LIG    1       25.606 -27.934   4.885  0.00  0.00    +0.022 C 
ATOM      4  C   LIG    1       25.827 -28.365   6.354  0.00  0.00    +0.032 C 
ATOM      5  C   LIG    1       25.577 -27.130   7.261  0.00  0.00    +0.022 C 
ATOM      6  C   LIG    1       24.403 -26.216   6.874  0.00  0.00    +0.085 C 
ENDROOT
BRANCH   1   7
ATOM      7  C   LIG    1       25.143 -24.839   4.949  0.00  0.00    +0.084 C 
BRANCH   7   8
ATOM      8  C   LIG    1       25.241 -23.644   5.914  0.00  0.00    +0.018 C 
BRANCH   8   9
ATOM      9  C   LIG    1       24.567 -22.353   5.415  0.00  0.00    +0.037 C 
BRANCH   9  10
ATOM     10  C   LIG    1       24.528 -21.221   6.463  0.00  0.00    +0.144 C 
BRANCH  10  14
ATOM     11  C   LIG    1       28.551 -19.903   7.485  0.00  0.00    -0.031 A 
ATOM     12  C   LIG    1       28.106 -19.931   6.151  0.00  0.00    +0.005 A 
ATOM     13  C   LIG    1       26.807 -20.334   5.821  0.00  0.00    +0.006 A 
ATOM     14  C   LIG    1       25.908 -20.714   6.818  0.00  0.00    -0.019 A 
ATOM     15  C   LIG    1       26.317 -20.599   8.152  0.00  0.00    +0.006 A 
ATOM     16  C   LIG    1       27.609 -20.198   8.480  0.00  0.00    +0.005 A 
BRANCH  11  18
ATOM     17  C   LIG    1       30.025 -18.243   8.724  0.00  0.00    +0.027 C 
ATOM     18  C   LIG    1       30.005 -19.526   7.860  0.00  0.00    +0.087 C 
ATOM     19  C   LIG    1       30.832 -19.228   6.584  0.00  0.00    +0.027 C 
BRANCH  18  20
ATOM     20  C   LIG    1       30.690 -20.652   8.642  0.00  0.00    +0.315 C 
ATOM     21  O   LIG    1       30.221 -21.800   8.801  0.00  0.00    -0.250 OA
BRANCH  20  22
ATOM     22  O   LIG    1       31.894 -20.338   9.195  0.00  0.00    -0.480 OA
ATOM     23  H   LIG    1       32.049 -20.741  10.072  0.00  0.00    +0.295 HD
ENDBRANCH  20  22
ENDBRANCH  18  20
ENDBRANCH  11  18
ENDBRANCH  10  14
BRANCH  10  24
ATOM     24  O   LIG    1       23.901 -21.662   7.665  0.00  0.00    -0.387 OA
ATOM     25  H   LIG    1       24.457 -21.327   8.395  0.00  0.00    +0.210 HD
ENDBRANCH  10  24
ENDBRANCH   9  10
ENDBRANCH   8   9
ENDBRANCH   7   8
ENDBRANCH   1   7
BRANCH   4  26
ATOM     26  C   LIG    1       25.060 -29.684   6.796  0.00  0.00    +0.119 C 
BRANCH  26  27
ATOM     27  C   LIG    1       24.857 -29.749   8.340  0.00  0.00    -0.011 A 
ATOM     28  C   LIG    1       25.873 -29.402   9.254  0.00  0.00    +0.007 A 
ATOM     29  C   LIG    1       25.677 -29.494  10.643  0.00  0.00    +0.000 A 
ATOM     30  C   LIG    1       24.463 -29.939  11.155  0.00  0.00    +0.000 A 
ATOM     31  C   LIG    1       23.436 -30.267  10.280  0.00  0.00    +0.000 A 
ATOM     32  C   LIG    1       23.629 -30.165   8.895  0.00  0.00    +0.007 A 
ENDBRANCH  26  27
BRANCH  26  33
ATOM     33  C   LIG    1       25.745 -30.984   6.264  0.00  0.00    -0.011 A 
ATOM     34  C   LIG    1       26.507 -31.825   7.104  0.00  0.00    +0.007 A 
ATOM     35  C   LIG    1       27.165 -32.963   6.607  0.00  0.00    +0.000 A 
ATOM     36  C   LIG    1       27.080 -33.292   5.258  0.00  0.00    +0.000 A 
ATOM     37  C   LIG    1       26.335 -32.488   4.406  0.00  0.00    +0.000 A 
ATOM     38  C   LIG    1       25.666 -31.362   4.905  0.00  0.00    +0.007 A 
ENDBRANCH  26  33
BRANCH  26  39
ATOM     39  O   LIG    1       23.750 -29.573   6.210  0.00  0.00    -0.379 OA
ATOM     40  H   LIG    1       23.279 -28.873   6.684  0.00  0.00    +0.211 HD
ENDBRANCH  26  39
ENDBRANCH   4  26
TORSDOF 13
ENDMDL
MODEL 3
REMARK VINA RESULT:      -9.7      0.964      1.442
REMARK  Name = *****
REMARK                            x       y       z     vdW  Elec       q    Type
REMARK                         _______ _______ _______ _____ _____    ______ ____
ROOT
ATOM      1  N   LIG    1       25.585 -24.722   5.280  0.00  0.00    -0.302 NA
ATOM      2  C   LIG    1       24.615 -23.711   4.863  0.00  0.00    +0.085 C 
ATOM      3  C   LIG    1       23.701 -23.239   5.990  0.00  0.00    +0.022 C 
ATOM      4  C   LIG    1       24.430 -22.670   7.230  0.00  0.00    +0.032 C 
ATOM      5  C   LIG    1       25.582 -23.643   7.599  0.00  0.00    +0.022 C 
ATOM      6  C   LIG    1       26.371 -24.253   6.430  0.00  0.00    +0.085 C 
ENDROOT
BRANCH   1   7
ATOM      7  C   LIG    1       24.968 -26.049   5.451  0.00  0.00    +0.084 C 
BRANCH   7   8
ATOM      8  C   LIG    1       25.691 -27.151   4.656  0.00  0.00    +0.018 C 
BRANCH   8   9
ATOM      9  C   LIG    1       25.352 -28.589   5.089  0.00  0.00    +0.037 C 
BRANCH   9  10
ATOM     10  C   LIG    1       24.213 -28.681   6.126  0.00  0.00    +0.144 C 
BRANCH  10  14
ATOM     11  C   LIG    1       25.597 -29.437  10.185  0.00  0.00    -0.031 A 
ATOM     12  C   LIG    1       24.490 -30.120   9.650  0.00  0.00    +0.005 A 
ATOM     13  C   LIG    1       24.056 -29.894   8.339  0.00  0.00    +0.006 A 
ATOM     14  C   LIG    1       24.722 -28.984   7.518  0.00  0.00    -0.019 A 
ATOM     15  C   LIG    1       25.878 -28.372   8.016  0.00  0.00    +0.006 A 
ATOM     16  C   LIG    1       26.310 -28.596   9.321  0.00  0.00    +0.005 A 
BRANCH  11  18
ATOM     17  C   LIG    1       25.498 -28.481  12.538  0.00  0.00    +0.027 C 
ATOM     18  C   LIG    1       26.048 -29.624  11.655  0.00  0.00    +0.087 C 
ATOM     19  C   LIG    1       27.594 -29.573  11.756  0.00  0.00    +0.027 C 
BRANCH  18  20
ATOM     20  C   LIG    1       25.559 -30.960  12.224  0.00  0.00    +0.315 C 
ATOM     21  O   LIG    1       26.067 -32.074  11.969  0.00  0.00    -0.250 OA
BRANCH  20  22
ATOM     22  O   LIG    1       24.485 -30.889  13.059  0.00  0.00    -0.480 OA
ATOM     23  H   LIG    1       23.625 -31.032  12.618  0.00  0.00    +0.295 HD
ENDBRANCH  20  22
ENDBRANCH  18  20
ENDBRANCH  11  18
ENDBRANCH  10  14
BRANCH  10  24
ATOM     24  O   LIG    1       23.281 -29.699   5.770  0.00  0.00    -0.387 OA
ATOM     25  H   LIG    1       23.817 -30.482   5.535  0.00  0.00    +0.210 HD
ENDBRANCH  10  24
ENDBRANCH   9  10
ENDBRANCH   8   9
ENDBRANCH   7   8
ENDBRANCH   1   7
BRANCH   4  26
ATOM     26  C   LIG    1       24.854 -21.143   7.127  0.00  0.00    +0.119 C 
BRANCH  26  27
ATOM     27  C   LIG    1       24.211 -20.443   5.892  0.00  0.00    -0.011 A 
ATOM     28  C   LIG    1       24.906 -20.252   4.680  0.00  0.00    +0.007 A 
ATOM     29  C   LIG    1       24.314 -19.594   3.588  0.00  0.00    +0.000 A 
ATOM     30  C   LIG    1       23.015 -19.105   3.679  0.00  0.00    +0.000 A 
ATOM     31  C   LIG    1       22.298 -19.298   4.853  0.00  0.00    +0.000 A 
ATOM     32  C   LIG    1       22.885 -19.964   5.938  0.00  0.00    +0.007 A 
ENDBRANCH  26  27
BRANCH  26  33
ATOM     33  C   LIG    1       26.405 -20.949   7.137  0.00  0.00    -0.011 A 
ATOM     34  C   LIG    1       27.099 -20.412   6.032  0.00  0.00    +0.007 A 
ATOM     35  C   LIG    1       28.499 -20.291   6.028  0.00  0.00    +0.000 A 
ATOM     36  C   LIG    1       29.245 -20.704   7.128  0.00  0.00    +0.000 A 
ATOM     37  C   LIG    1       28.592 -21.233   8.233  0.00  0.00    +0.000 A 
ATOM     38  C   LIG    1       27.194 -21.339   8.243  0.00  0.00    +0.007 A 
ENDBRANCH  26  33
BRANCH  26  39
ATOM     39  O   LIG    1       24.297 -20.516   8.297  0.00  0.00    -0.379 OA
ATOM     40  H   LIG    1       23.336 -20.496   8.184  0.00  0.00    +0.211 HD
ENDBRANCH  26  39
ENDBRANCH   4  26
TORSDOF 13
ENDMDL
MODEL 4
REMARK VINA RESULT:      -9.3      2.489      9.136
REMARK  Name = *****
REMARK                            x       y       z     vdW  Elec       q    Type
REMARK                         _______ _______ _______ _____ _____    ______ ____
ROOT
ATOM      1  N   LIG    1       24.992 -31.074   7.778  0.00  0.00    -0.302 NA
ATOM      2  C   LIG    1       25.940 -31.637   8.738  0.00  0.00    +0.085 C 
ATOM      3  C   LIG    1       26.756 -30.582   9.481  0.00  0.00    +0.022 C 
ATOM      4  C   LIG    1       25.922 -29.528  10.246  0.00  0.00    +0.032 C 
ATOM      5  C   LIG    1       24.794 -29.031   9.303  0.00  0.00    +0.022 C 
ATOM      6  C   LIG    1       24.112 -30.091   8.424  0.00  0.00    +0.085 C 
ENDROOT
BRANCH   1   7
ATOM      7  C   LIG    1       25.656 -30.601   6.551  0.00  0.00    +0.084 C 
BRANCH   7   8
ATOM      8  C   LIG    1       24.661 -30.129   5.477  0.00  0.00    +0.018 C 
BRANCH   8   9
ATOM      9  C   LIG    1       24.476 -28.603   5.390  0.00  0.00    +0.037 C 
BRANCH   9  10
ATOM     10  C   LIG    1       25.674 -27.794   5.932  0.00  0.00    +0.144 C 
BRANCH  10  14
ATOM     11  C   LIG    1       24.661 -23.624   6.670  0.00  0.00    -0.031 A 
ATOM     12  C   LIG    1       23.674 -24.569   6.333  0.00  0.00    +0.005 A 
ATOM     13  C   LIG    1       23.994 -25.913   6.116  0.00  0.00    +0.006 A 
ATOM     14  C   LIG    1       25.311 -26.358   6.238  0.00  0.00    -0.019 A 
ATOM     15  C   LIG    1       26.279 -25.441   6.662  0.00  0.00    +0.006 A 
ATOM     16  C   LIG    1       25.961 -24.102   6.878  0.00  0.00    +0.005 A 
BRANCH  11  18
ATOM     17  C   LIG    1       25.368 -21.448   7.779  0.00  0.00    +0.027 C 
ATOM     18  C   LIG    1       24.335 -22.120   6.845  0.00  0.00    +0.087 C 
ATOM     19  C   LIG    1       22.944 -21.943   7.504  0.00  0.00    +0.027 C 
BRANCH  18  20
ATOM     20  C   LIG    1       24.342 -21.386   5.500  0.00  0.00    +0.315 C 
ATOM     21  O   LIG    1       23.331 -20.906   4.943  0.00  0.00    -0.250 OA
BRANCH  20  22
ATOM     22  O   LIG    1       25.556 -21.276   4.894  0.00  0.00    -0.480 OA
ATOM     23  H   LIG    1       26.263 -20.928   5.472  0.00  0.00    +0.295 HD
ENDBRANCH  20  22
ENDBRANCH  18  20
ENDBRANCH  11  18
ENDBRANCH  10  14
BRANCH  10  24
ATOM     24  O   LIG    1       26.747 -27.784   4.993  0.00  0.00    -0.387 OA
ATOM     25  H   LIG    1       26.837 -26.856   4.700  0.00  0.00    +0.210 HD
ENDBRANCH  10  24
ENDBRANCH   9  10
ENDBRANCH   8   9
ENDBRANCH   7   8
ENDBRANCH   1   7
BRANCH   4  26
ATOM     26  C   LIG    1       25.436 -29.967  11.693  0.00  0.00    +0.119 C 
BRANCH  26  27
ATOM     27  C   LIG    1       24.324 -29.025  12.244  0.00  0.00    -0.011 A 
ATOM     28  C   LIG    1       22.951 -29.330  12.144  0.00  0.00    +0.007 A 
ATOM     29  C   LIG    1       21.965 -28.451  12.625  0.00  0.00    +0.000 A 
ATOM     30  C   LIG    1       22.323 -27.243  13.213  0.00  0.00    +0.000 A 
ATOM     31  C   LIG    1       23.669 -26.925  13.346  0.00  0.00    +0.000 A 
ATOM     32  C   LIG    1       24.652 -27.806  12.875  0.00  0.00    +0.007 A 
ENDBRANCH  26  27
BRANCH  26  33
ATOM     33  C   LIG    1       26.617 -30.097  12.709  0.00  0.00    -0.011 A 
ATOM     34  C   LIG    1       26.499 -30.842  13.902  0.00  0.00    +0.007 A 
ATOM     35  C   LIG    1       27.547 -30.909  14.836  0.00  0.00    +0.000 A 
ATOM     36  C   LIG    1       28.741 -30.234  14.605  0.00  0.00    +0.000 A 
ATOM     37  C   LIG    1       28.891 -29.496  13.439  0.00  0.00    +0.000 A 
ATOM     38  C   LIG    1       27.851 -29.442  12.500  0.00  0.00    +0.007 A 
ENDBRANCH  26  33
BRANCH  26  39
ATOM     39  O   LIG    1       24.832 -31.261  11.512  0.00  0.00    -0.379 OA
ATOM     40  H   LIG    1       25.437 -31.918  11.885  0.00  0.00    +0.211 HD
ENDBRANCH  26  39
ENDBRANCH   4  26
TORSDOF 13
ENDMDL
MODEL 5
REMARK VINA RESULT:      -9.2      2.479     10.038
REMARK  Name = *****
REMARK                            x       y       z     vdW  Elec       q    Type
REMARK                         _______ _______ _______ _____ _____    ______ ____
ROOT
ATOM      1  N   LIG    1       25.526 -30.147   7.341  0.00  0.00    -0.302 NA
ATOM      2  C   LIG    1       25.006 -29.404   8.488  0.00  0.00    +0.085 C 
ATOM      3  C   LIG    1       23.867 -30.117   9.213  0.00  0.00    +0.022 C 
ATOM      4  C   LIG    1       24.203 -31.539   9.720  0.00  0.00    +0.032 C 
ATOM      5  C   LIG    1       24.914 -32.304   8.572  0.00  0.00    +0.022 C 
ATOM      6  C   LIG    1       25.924 -31.506   7.733  0.00  0.00    +0.085 C 
ENDROOT
BRANCH   1   7
ATOM      7  C   LIG    1       24.627 -30.076   6.177  0.00  0.00    +0.084 C 
BRANCH   7   8
ATOM      8  C   LIG    1       24.078 -28.660   5.930  0.00  0.00    +0.018 C 
BRANCH   8   9
ATOM      9  C   LIG    1       24.964 -27.768   5.042  0.00  0.00    +0.037 C 
BRANCH   9  10
ATOM     10  C   LIG    1       26.022 -26.959   5.821  0.00  0.00    +0.144 C 
BRANCH  10  14
ATOM     11  C   LIG    1       25.082 -22.721   6.170  0.00  0.00    -0.031 A 
ATOM     12  C   LIG    1       24.755 -23.451   5.013  0.00  0.00    +0.005 A 
ATOM     13  C   LIG    1       25.037 -24.817   4.906  0.00  0.00    +0.006 A 
ATOM     14  C   LIG    1       25.647 -25.500   5.959  0.00  0.00    -0.019 A 
ATOM     15  C   LIG    1       25.890 -24.798   7.145  0.00  0.00    +0.006 A 
ATOM     16  C   LIG    1       25.610 -23.438   7.251  0.00  0.00    +0.005 A 
BRANCH  11  18
ATOM     17  C   LIG    1       25.756 -20.577   7.359  0.00  0.00    +0.027 C 
ATOM     18  C   LIG    1       24.841 -21.195   6.277  0.00  0.00    +0.087 C 
ATOM     19  C   LIG    1       23.378 -20.909   6.701  0.00  0.00    +0.027 C 
BRANCH  18  20
ATOM     20  C   LIG    1       25.115 -20.491   4.943  0.00  0.00    +0.315 C 
ATOM     21  O   LIG    1       24.234 -20.081   4.157  0.00  0.00    -0.250 OA
BRANCH  20  22
ATOM     22  O   LIG    1       26.428 -20.325   4.623  0.00  0.00    -0.480 OA
ATOM     23  H   LIG    1       26.581 -20.013   3.710  0.00  0.00    +0.295 HD
ENDBRANCH  20  22
ENDBRANCH  18  20
ENDBRANCH  11  18
ENDBRANCH  10  14
BRANCH  10  24
ATOM     24  O   LIG    1       27.291 -27.026   5.176  0.00  0.00    -0.387 OA
ATOM     25  H   LIG    1       27.179 -27.646   4.429  0.00  0.00    +0.210 HD
ENDBRANCH  10  24
ENDBRANCH   9  10
ENDBRANCH   8   9
ENDBRANCH   7   8
ENDBRANCH   1   7
BRANCH   4  26
ATOM     26  C   LIG    1       24.945 -31.601  11.123  0.00  0.00    +0.119 C 
BRANCH  26  27
ATOM     27  C   LIG    1       23.989 -32.051  12.268  0.00  0.00    -0.011 A 
ATOM     28  C   LIG    1       22.591 -31.878  12.201  0.00  0.00    +0.007 A 
ATOM     29  C   LIG    1       21.750 -32.267  13.258  0.00  0.00    +0.000 A 
ATOM     30  C   LIG    1       22.283 -32.834  14.410  0.00  0.00    +0.000 A 
ATOM     31  C   LIG    1       23.654 -33.037  14.496  0.00  0.00    +0.000 A 
ATOM     32  C   LIG    1       24.491 -32.659  13.437  0.00  0.00    +0.007 A 
ENDBRANCH  26  27
BRANCH  26  33
ATOM     33  C   LIG    1       25.660 -30.258  11.483  0.00  0.00    -0.011 A 
ATOM     34  C   LIG    1       25.004 -29.229  12.193  0.00  0.00    +0.007 A 
ATOM     35  C   LIG    1       25.637 -28.004  12.466  0.00  0.00    +0.000 A 
ATOM     36  C   LIG    1       26.940 -27.772  12.038  0.00  0.00    +0.000 A 
ATOM     37  C   LIG    1       27.614 -28.766  11.342  0.00  0.00    +0.000 A 
ATOM     38  C   LIG    1       26.989 -29.994  11.083  0.00  0.00    +0.007 A 
ENDBRANCH  26  33
BRANCH  26  39
ATOM     39  O   LIG    1       25.937 -32.634  10.980  0.00  0.00    -0.379 OA
ATOM     40  H   LIG    1       25.474 -33.445  10.724  0.00  0.00    +0.211 HD
ENDBRANCH  26  39
ENDBRANCH   4  26
TORSDOF 13
ENDMDL
MODEL 6
REMARK VINA RESULT:      -9.1      1.552      2.568
REMARK  Name = *****
REMARK                            x       y       z     vdW  Elec       q    Type
REMARK                         _______ _______ _______ _____ _____    ______ ____
ROOT
ATOM      1  N   LIG    1       24.424 -25.345   6.907  0.00  0.00    -0.302 NA
ATOM      2  C   LIG    1       25.593 -24.600   7.372  0.00  0.00    +0.085 C 
ATOM      3  C   LIG    1       26.260 -23.766   6.281  0.00  0.00    +0.022 C 
ATOM      4  C   LIG    1       25.334 -22.745   5.579  0.00  0.00    +0.032 C 
ATOM      5  C   LIG    1       24.007 -23.467   5.221  0.00  0.00    +0.022 C 
ATOM      6  C   LIG    1       23.452 -24.449   6.266  0.00  0.00    +0.085 C 
ENDROOT
BRANCH   1   7
ATOM      7  C   LIG    1       24.796 -26.527   6.112  0.00  0.00    +0.084 C 
BRANCH   7   8
ATOM      8  C   LIG    1       24.454 -27.853   6.815  0.00  0.00    +0.018 C 
BRANCH   8   9
ATOM      9  C   LIG    1       25.668 -28.736   7.157  0.00  0.00    +0.037 C 
BRANCH   9  10
ATOM     10  C   LIG    1       25.396 -29.773   8.267  0.00  0.00    +0.144 C 
BRANCH  10  14
ATOM     11  C   LIG    1       26.136 -28.071  12.207  0.00  0.00    -0.031 A 
ATOM     12  C   LIG    1       25.005 -28.870  11.954  0.00  0.00    +0.005 A 
ATOM     13  C   LIG    1       24.776 -29.435  10.695  0.00  0.00    +0.006 A 
ATOM     14  C   LIG    1       25.676 -29.227   9.649  0.00  0.00    -0.019 A 
ATOM     15  C   LIG    1       26.847 -28.510   9.922  0.00  0.00    +0.006 A 
ATOM     16  C   LIG    1       27.075 -27.947  11.175  0.00  0.00    +0.005 A 
BRANCH  11  18
ATOM     17  C   LIG    1       27.452 -28.133  14.381  0.00  0.00    +0.027 C 
ATOM     18  C   LIG    1       26.368 -27.382  13.574  0.00  0.00    +0.087 C 
ATOM     19  C   LIG    1       25.070 -27.411  14.420  0.00  0.00    +0.027 C 
BRANCH  18  20
ATOM     20  C   LIG    1       26.811 -25.926  13.398  0.00  0.00    +0.315 C 
ATOM     21  O   LIG    1       26.102 -25.017  12.913  0.00  0.00    -0.250 OA
BRANCH  20  22
ATOM     22  O   LIG    1       28.079 -25.641  13.804  0.00  0.00    -0.480 OA
ATOM     23  H   LIG    1       28.159 -25.438  14.756  0.00  0.00    +0.295 HD
ENDBRANCH  20  22
ENDBRANCH  18  20
ENDBRANCH  11  18
ENDBRANCH  10  14
BRANCH  10  24
ATOM     24  O   LIG    1       26.201 -30.936   8.085  0.00  0.00    -0.387 OA
ATOM     25  H   LIG    1       25.949 -31.301   7.214  0.00  0.00    +0.210 HD
ENDBRANCH  10  24
ENDBRANCH   9  10
ENDBRANCH   8   9
ENDBRANCH   7   8
ENDBRANCH   1   7
BRANCH   4  26
ATOM     26  C   LIG    1       25.158 -21.359   6.333  0.00  0.00    +0.119 C 
BRANCH  26  27
ATOM     27  C   LIG    1       24.266 -20.368   5.527  0.00  0.00    -0.011 A 
ATOM     28  C   LIG    1       22.968 -20.005   5.941  0.00  0.00    +0.007 A 
ATOM     29  C   LIG    1       22.171 -19.130   5.183  0.00  0.00    +0.000 A 
ATOM     30  C   LIG    1       22.647 -18.598   3.990  0.00  0.00    +0.000 A 
ATOM     31  C   LIG    1       23.930 -18.920   3.567  0.00  0.00    +0.000 A 
ATOM     32  C   LIG    1       24.729 -19.785   4.329  0.00  0.00    +0.007 A 
ENDBRANCH  26  27
BRANCH  26  33
ATOM     33  C   LIG    1       26.526 -20.703   6.712  0.00  0.00    -0.011 A 
ATOM     34  C   LIG    1       27.433 -20.248   5.731  0.00  0.00    +0.007 A 
ATOM     35  C   LIG    1       28.684 -19.710   6.078  0.00  0.00    +0.000 A 
ATOM     36  C   LIG    1       29.063 -19.610   7.413  0.00  0.00    +0.000 A 
ATOM     37  C   LIG    1       28.191 -20.045   8.402  0.00  0.00    +0.000 A 
ATOM     38  C   LIG    1       26.937 -20.568   8.056  0.00  0.00    +0.007 A 
ENDBRANCH  26  33
BRANCH  26  39
ATOM     39  O   LIG    1       24.441 -21.675   7.541  0.00  0.00    -0.379 OA
ATOM     40  H   LIG    1       23.516 -21.823   7.298  0.00  0.00    +0.211 HD
ENDBRANCH  26  39
ENDBRANCH   4  26
TORSDOF 13
ENDMDL
MODEL 7
REMARK VINA RESULT:      -9.1      2.512      9.237
REMARK  Name = *****
REMARK                            x       y       z     vdW  Elec       q    Type
REMARK                         _______ _______ _______ _____ _____    ______ ____
ROOT
ATOM      1  N   LIG    1       25.165 -31.438   7.693  0.00  0.00    -0.302 NA
ATOM      2  C   LIG    1       26.358 -31.250   8.517  0.00  0.00    +0.085 C 
ATOM      3  C   LIG    1       26.458 -29.860   9.139  0.00  0.00    +0.022 C 
ATOM      4  C   LIG    1       25.248 -29.442  10.007  0.00  0.00    +0.032 C 
ATOM      5  C   LIG    1       23.952 -29.788   9.225  0.00  0.00    +0.022 C 
ATOM      6  C   LIG    1       23.947 -31.115   8.450  0.00  0.00    +0.085 C 
ENDROOT
BRANCH   1   7
ATOM      7  C   LIG    1       25.278 -30.768   6.386  0.00  0.00    +0.084 C 
BRANCH   7   8
ATOM      8  C   LIG    1       24.100 -29.822   6.095  0.00  0.00    +0.018 C 
BRANCH   8   9
ATOM      9  C   LIG    1       24.476 -28.534   5.338  0.00  0.00    +0.037 C 
BRANCH   9  10
ATOM     10  C   LIG    1       25.653 -27.759   5.965  0.00  0.00    +0.144 C 
BRANCH  10  14
ATOM     11  C   LIG    1       24.674 -23.576   6.677  0.00  0.00    -0.031 A 
ATOM     12  C   LIG    1       23.675 -24.523   6.391  0.00  0.00    +0.005 A 
ATOM     13  C   LIG    1       23.984 -25.872   6.182  0.00  0.00    +0.006 A 
ATOM     14  C   LIG    1       25.304 -26.318   6.263  0.00  0.00    -0.019 A 
ATOM     15  C   LIG    1       26.288 -25.396   6.637  0.00  0.00    +0.006 A 
ATOM     16  C   LIG    1       25.981 -24.054   6.844  0.00  0.00    +0.005 A 
BRANCH  11  18
ATOM     17  C   LIG    1       25.291 -21.432   7.897  0.00  0.00    +0.027 C 
ATOM     18  C   LIG    1       24.358 -22.069   6.842  0.00  0.00    +0.087 C 
ATOM     19  C   LIG    1       22.904 -21.875   7.345  0.00  0.00    +0.027 C 
BRANCH  18  20
ATOM     20  C   LIG    1       24.528 -21.314   5.519  0.00  0.00    +0.315 C 
ATOM     21  O   LIG    1       25.505 -20.590   5.230  0.00  0.00    -0.250 OA
BRANCH  20  22
ATOM     22  O   LIG    1       23.515 -21.462   4.620  0.00  0.00    -0.480 OA
ATOM     23  H   LIG    1       23.582 -20.876   3.841  0.00  0.00    +0.295 HD
ENDBRANCH  20  22
ENDBRANCH  18  20
ENDBRANCH  11  18
ENDBRANCH  10  14
BRANCH  10  24
ATOM     24  O   LIG    1       26.785 -27.765   5.098  0.00  0.00    -0.387 OA
ATOM     25  H   LIG    1       26.847 -26.861   4.733  0.00  0.00    +0.210 HD
ENDBRANCH  10  24
ENDBRANCH   9  10
ENDBRANCH   8   9
ENDBRANCH   7   8
ENDBRANCH   1   7
BRANCH   4  26
ATOM     26  C   LIG    1       25.279 -29.961  11.508  0.00  0.00    +0.119 C 
BRANCH  26  27
ATOM     27  C   LIG    1       23.865 -30.385  12.006  0.00  0.00    -0.011 A 
ATOM     28  C   LIG    1       23.493 -31.735  12.176  0.00  0.00    +0.007 A 
ATOM     29  C   LIG    1       22.202 -32.095  12.601  0.00  0.00    +0.000 A 
ATOM     30  C   LIG    1       21.249 -31.117  12.863  0.00  0.00    +0.000 A 
ATOM     31  C   LIG    1       21.592 -29.778  12.726  0.00  0.00    +0.000 A 
ATOM     32  C   LIG    1       22.883 -29.420  12.312  0.00  0.00    +0.007 A 
ENDBRANCH  26  27
BRANCH  26  33
ATOM     33  C   LIG    1       25.933 -28.931  12.485  0.00  0.00    -0.011 A 
ATOM     34  C   LIG    1       26.202 -27.600  12.099  0.00  0.00    +0.007 A 
ATOM     35  C   LIG    1       26.839 -26.696  12.966  0.00  0.00    +0.000 A 
ATOM     36  C   LIG    1       27.227 -27.095  14.241  0.00  0.00    +0.000 A 
ATOM     37  C   LIG    1       26.974 -28.397  14.653  0.00  0.00    +0.000 A 
ATOM     38  C   LIG    1       26.324 -29.294  13.794  0.00  0.00    +0.007 A 
ENDBRANCH  26  33
BRANCH  26  39
ATOM     39  O   LIG    1       26.085 -31.154  11.479  0.00  0.00    -0.379 OA
ATOM     40  H   LIG    1       26.536 -31.176  10.623  0.00  0.00    +0.211 HD
ENDBRANCH  26  39
ENDBRANCH   4  26
TORSDOF 13
ENDMDL
MODEL 8
REMARK VINA RESULT:      -8.9      1.189      1.954
REMARK  Name = *****
REMARK                            x       y       z     vdW  Elec       q    Type
REMARK                         _______ _______ _______ _____ _____    ______ ____
ROOT
ATOM      1  N   LIG    1       23.884 -24.261   5.794  0.00  0.00    -0.302 NA
ATOM      2  C   LIG    1       23.310 -23.260   6.692  0.00  0.00    +0.085 C 
ATOM      3  C   LIG    1       24.167 -22.983   7.925  0.00  0.00    +0.022 C 
ATOM      4  C   LIG    1       25.617 -22.534   7.628  0.00  0.00    +0.032 C 
ATOM      5  C   LIG    1       26.201 -23.481   6.546  0.00  0.00    +0.022 C 
ATOM      6  C   LIG    1       25.254 -23.897   5.409  0.00  0.00    +0.085 C 
ENDROOT
BRANCH   1   7
ATOM      7  C   LIG    1       23.730 -25.630   6.314  0.00  0.00    +0.084 C 
BRANCH   7   8
ATOM      8  C   LIG    1       24.490 -26.676   5.480  0.00  0.00    +0.018 C 
BRANCH   8   9
ATOM      9  C   LIG    1       23.922 -28.105   5.559  0.00  0.00    +0.037 C 
BRANCH   9  10
ATOM     10  C   LIG    1       24.957 -29.169   5.981  0.00  0.00    +0.144 C 
BRANCH  10  14
ATOM     11  C   LIG    1       25.861 -29.217  10.240  0.00  0.00    -0.031 A 
ATOM     12  C   LIG    1       26.473 -28.295   9.372  0.00  0.00    +0.005 A 
ATOM     13  C   LIG    1       26.169 -28.264   8.006  0.00  0.00    +0.006 A 
ATOM     14  C   LIG    1       25.235 -29.149   7.467  0.00  0.00    -0.019 A 
ATOM     15  C   LIG    1       24.558 -30.005   8.343  0.00  0.00    +0.006 A 
ATOM     16  C   LIG    1       24.861 -30.037   9.702  0.00  0.00    +0.005 A 
BRANCH  11  18
ATOM     17  C   LIG    1       27.774 -29.270  11.914  0.00  0.00    +0.027 C 
ATOM     18  C   LIG    1       26.238 -29.311  11.739  0.00  0.00    +0.087 C 
ATOM     19  C   LIG    1       25.748 -30.656  12.335  0.00  0.00    +0.027 C 
BRANCH  18  20
ATOM     20  C   LIG    1       25.623 -28.161  12.543  0.00  0.00    +0.315 C 
ATOM     21  O   LIG    1       26.245 -27.148  12.931  0.00  0.00    -0.250 OA
BRANCH  20  22
ATOM     22  O   LIG    1       24.301 -28.292  12.845  0.00  0.00    -0.480 OA
ATOM     23  H   LIG    1       24.017 -27.783  13.629  0.00  0.00    +0.295 HD
ENDBRANCH  20  22
ENDBRANCH  18  20
ENDBRANCH  11  18
ENDBRANCH  10  14
BRANCH  10  24
ATOM     24  O   LIG    1       26.195 -28.972   5.301  0.00  0.00    -0.387 OA
ATOM     25  H   LIG    1       26.889 -29.031   5.987  0.00  0.00    +0.210 HD
ENDBRANCH  10  24
ENDBRANCH   9  10
ENDBRANCH   8   9
ENDBRANCH   7   8
ENDBRANCH   1   7
BRANCH   4  26
ATOM     26  C   LIG    1       25.799 -20.985   7.328  0.00  0.00    +0.119 C 
BRANCH  26  27
ATOM     27  C   LIG    1       24.888 -20.508   6.158  0.00  0.00    -0.011 A 
ATOM     28  C   LIG    1       23.566 -20.060   6.359  0.00  0.00    +0.007 A 
ATOM     29  C   LIG    1       22.753 -19.659   5.285  0.00  0.00    +0.000 A 
ATOM     30  C   LIG    1       23.236 -19.701   3.981  0.00  0.00    +0.000 A 
ATOM     31  C   LIG    1       24.541 -20.118   3.754  0.00  0.00    +0.000 A 
ATOM     32  C   LIG    1       25.356 -20.507   4.827  0.00  0.00    +0.007 A 
ENDBRANCH  26  27
BRANCH  26  33
ATOM     33  C   LIG    1       27.291 -20.595   7.072  0.00  0.00    -0.011 A 
ATOM     34  C   LIG    1       28.333 -21.028   7.921  0.00  0.00    +0.007 A 
ATOM     35  C   LIG    1       29.665 -20.629   7.716  0.00  0.00    +0.000 A 
ATOM     36  C   LIG    1       29.993 -19.787   6.658  0.00  0.00    +0.000 A 
ATOM     37  C   LIG    1       28.992 -19.347   5.802  0.00  0.00    +0.000 A 
ATOM     38  C   LIG    1       27.666 -19.758   5.998  0.00  0.00    +0.007 A 
ENDBRANCH  26  33
BRANCH  26  39
ATOM     39  O   LIG    1       25.338 -20.314   8.515  0.00  0.00    -0.379 OA
ATOM     40  H   LIG    1       24.910 -20.978   9.074  0.00  0.00    +0.211 HD
ENDBRANCH  26  39
ENDBRANCH   4  26
TORSDOF 13
ENDMDL
MODEL 9
REMARK VINA RESULT:      -8.9      2.335      3.103
REMARK  Name = *****
REMARK                            x       y       z     vdW  Elec       q    Type
REMARK                         _______ _______ _______ _____ _____    ______ ____
ROOT
ATOM      1  N   LIG    1       24.536 -24.613   5.547  0.00  0.00    -0.302 NA
ATOM      2  C   LIG    1       23.560 -23.562   5.833  0.00  0.00    +0.085 C 
ATOM      3  C   LIG    1       23.597 -23.071   7.278  0.00  0.00    +0.022 C 
ATOM      4  C   LIG    1       24.970 -22.544   7.757  0.00  0.00    +0.032 C 
ATOM      5  C   LIG    1       26.056 -23.563   7.316  0.00  0.00    +0.022 C 
ATOM      6  C   LIG    1       25.892 -24.187   5.921  0.00  0.00    +0.085 C 
ENDROOT
BRANCH   1   7
ATOM      7  C   LIG    1       24.125 -25.918   6.091  0.00  0.00    +0.084 C 
BRANCH   7   8
ATOM      8  C   LIG    1       24.828 -27.101   5.402  0.00  0.00    +0.018 C 
BRANCH   8   9
ATOM      9  C   LIG    1       25.387 -28.169   6.360  0.00  0.00    +0.037 C 
BRANCH   9  10
ATOM     10  C   LIG    1       24.972 -29.612   6.003  0.00  0.00    +0.144 C 
BRANCH  10  14
ATOM     11  C   LIG    1       23.074 -31.681   9.332  0.00  0.00    -0.031 A 
ATOM     12  C   LIG    1       23.428 -32.361   8.152  0.00  0.00    +0.005 A 
ATOM     13  C   LIG    1       24.056 -31.703   7.089  0.00  0.00    +0.006 A 
ATOM     14  C   LIG    1       24.360 -30.344   7.176  0.00  0.00    -0.019 A 
ATOM     15  C   LIG    1       24.093 -29.686   8.382  0.00  0.00    +0.006 A 
ATOM     16  C   LIG    1       23.466 -30.341   9.440  0.00  0.00    +0.005 A 
BRANCH  11  18
ATOM     17  C   LIG    1       23.218 -32.486  11.739  0.00  0.00    +0.027 C 
ATOM     18  C   LIG    1       22.316 -32.378  10.488  0.00  0.00    +0.087 C 
ATOM     19  C   LIG    1       21.924 -33.822  10.084  0.00  0.00    +0.027 C 
BRANCH  18  20
ATOM     20  C   LIG    1       21.045 -31.609  10.867  0.00  0.00    +0.315 C 
ATOM     21  O   LIG    1       20.172 -31.228  10.057  0.00  0.00    -0.250 OA
BRANCH  20  22
ATOM     22  O   LIG    1       20.896 -31.333  12.193  0.00  0.00    -0.480 OA
ATOM     23  H   LIG    1       21.041 -30.395  12.425  0.00  0.00    +0.295 HD
ENDBRANCH  20  22
ENDBRANCH  18  20
ENDBRANCH  11  18
ENDBRANCH  10  14
BRANCH  10  24
ATOM     24  O   LIG    1       26.094 -30.367   5.552  0.00  0.00    -0.387 OA
ATOM     25  H   LIG    1       26.074 -31.203   6.059  0.00  0.00    +0.210 HD
ENDBRANCH  10  24
ENDBRANCH   9  10
ENDBRANCH   8   9
ENDBRANCH   7   8
ENDBRANCH   1   7
BRANCH   4  26
ATOM     26  C   LIG    1       25.284 -21.033   7.385  0.00  0.00    +0.119 C 
BRANCH  26  27
ATOM     27  C   LIG    1       24.472 -20.559   6.142  0.00  0.00    -0.011 A 
ATOM     28  C   LIG    1       24.970 -20.659   4.826  0.00  0.00    +0.007 A 
ATOM     29  C   LIG    1       24.231 -20.201   3.722  0.00  0.00    +0.000 A 
ATOM     30  C   LIG    1       22.978 -19.627   3.903  0.00  0.00    +0.000 A 
ATOM     31  C   LIG    1       22.451 -19.534   5.185  0.00  0.00    +0.000 A 
ATOM     32  C   LIG    1       23.184 -20.001   6.284  0.00  0.00    +0.007 A 
ENDBRANCH  26  27
BRANCH  26  33
ATOM     33  C   LIG    1       26.812 -20.766   7.192  0.00  0.00    -0.011 A 
ATOM     34  C   LIG    1       27.317 -20.094   6.058  0.00  0.00    +0.007 A 
ATOM     35  C   LIG    1       28.696 -19.906   5.867  0.00  0.00    +0.000 A 
ATOM     36  C   LIG    1       29.610 -20.385   6.800  0.00  0.00    +0.000 A 
ATOM     37  C   LIG    1       29.145 -21.047   7.929  0.00  0.00    +0.000 A 
ATOM     38  C   LIG    1       27.768 -21.221   8.128  0.00  0.00    +0.007 A 
ENDBRANCH  26  33
BRANCH  26  39
ATOM     39  O   LIG    1       24.813 -20.262   8.506  0.00  0.00    -0.379 OA
ATOM     40  H   LIG    1       24.609 -19.374   8.181  0.00  0.00    +0.211 HD
ENDBRANCH  26  39
ENDBRANCH   4  26
TORSDOF 13
ENDMDL
