MODEL 1
REMARK VINA RESULT:      -7.9      0.000      0.000
REMARK  Name = *****
REMARK                            x       y       z     vdW  Elec       q    Type
REMARK                         _______ _______ _______ _____ _____    ______ ____
ROOT
ATOM      1  C   LIG    1       27.400 -20.263   7.851  0.00  0.00    +0.121 A 
ATOM      2  C   LIG    1       26.296 -20.583   8.658  0.00  0.00    +0.046 A 
ATOM      3  C   LIG    1       25.022 -20.731   8.088  0.00  0.00    +0.007 A 
ATOM      4  C   LIG    1       24.800 -20.651   6.720  0.00  0.00    -0.045 A 
ATOM      5  C   LIG    1       25.944 -20.595   5.896  0.00  0.00    +0.007 A 
ATOM      6  C   LIG    1       27.216 -20.380   6.478  0.00  0.00    +0.046 A 
ENDROOT
BRANCH   1   7
ATOM      7  O   LIG    1       28.651 -20.052   8.351  0.00  0.00    -0.489 OA
BRANCH   7   8
ATOM      8  C   LIG    1       29.863 -20.423   7.629  0.00  0.00    +0.261 C 
BRANCH   8   9
ATOM      9  C   LIG    1       30.742 -19.313   6.996  0.00  0.00    +0.166 C 
BRANCH   9  10
ATOM     10  O   LIG    1       29.952 -18.150   6.679  0.00  0.00    -0.387 OA
ATOM     11  H   LIG    1       30.294 -17.392   7.183  0.00  0.00    +0.210 HD
ENDBRANCH   9  10
BRANCH   9  12
ATOM     12  C   LIG    1       31.972 -18.887   7.877  0.00  0.00    +0.115 C 
BRANCH  12  13
ATOM     13  N   LIG    1       31.611 -19.004   9.302  0.00  0.00    -0.311 NA
ATOM     14  H   LIG    1       32.254 -19.687   9.718  0.00  0.00    +0.122 HD
BRANCH  13  16
ATOM     15  C   LIG    1       32.261 -16.577   9.426  0.00  0.00    +0.024 C 
ATOM     16  C   LIG    1       31.598 -17.778  10.113  0.00  0.00    +0.048 C 
ATOM     17  C   LIG    1       30.124 -17.470  10.450  0.00  0.00    +0.024 C 
ENDBRANCH  13  16
ENDBRANCH  12  13
ENDBRANCH   9  12
ENDBRANCH   8   9
ENDBRANCH   7   8
ENDBRANCH   1   7
BRANCH   4  18
ATOM     18  C   LIG    1       23.383 -20.648   6.170  0.00  0.00    +0.063 C 
BRANCH  18  19
ATOM     19  C   LIG    1       22.758 -22.035   5.863  0.00  0.00    +0.164 C 
BRANCH  19  20
ATOM     20  O   LIG    1       22.748 -22.918   6.999  0.00  0.00    -0.379 OA
BRANCH  20  21
ATOM     21  C   LIG    1       23.299 -24.207   6.683  0.00  0.00    +0.163 C 
BRANCH  21  22
ATOM     22  C   LIG    1       24.672 -24.060   6.085  0.00  0.00    +0.015 C 
ATOM     23  C   LIG    1       25.902 -24.228   6.955  0.00  0.00    +0.006 C 
ATOM     24  C   LIG    1       25.589 -25.243   5.893  0.00  0.00    +0.006 C 
ENDBRANCH  21  22
ENDBRANCH  20  21
ENDBRANCH  19  20
ENDBRANCH  18  19
ENDBRANCH   4  18
TORSDOF 12
ENDMDL
MODEL 2
REMARK VINA RESULT:      -7.8      1.118      1.824
REMARK  Name = *****
REMARK                            x       y       z     vdW  Elec       q    Type
REMARK                         _______ _______ _______ _____ _____    ______ ____
ROOT
ATOM      1  C   LIG    1       27.802 -20.657   7.098  0.00  0.00    +0.121 A 
ATOM      2  C   LIG    1       27.136 -20.349   5.901  0.00  0.00    +0.046 A 
ATOM      3  C   LIG    1       25.733 -20.374   5.845  0.00  0.00    +0.007 A 
ATOM      4  C   LIG    1       24.944 -20.619   6.960  0.00  0.00    -0.045 A 
ATOM      5  C   LIG    1       25.605 -20.664   8.206  0.00  0.00    +0.007 A 
ATOM      6  C   LIG    1       27.019 -20.704   8.246  0.00  0.00    +0.046 A 
ENDROOT
BRANCH   1   7
ATOM      7  O   LIG    1       29.161 -20.705   7.202  0.00  0.00    -0.489 OA
BRANCH   7   8
ATOM      8  C   LIG    1       29.847 -21.463   8.243  0.00  0.00    +0.261 C 
BRANCH   8   9
ATOM      9  C   LIG    1       30.997 -20.792   9.039  0.00  0.00    +0.166 C 
BRANCH   9  10
ATOM     10  O   LIG    1       32.091 -21.710   9.234  0.00  0.00    -0.387 OA
ATOM     11  H   LIG    1       31.741 -22.618   9.240  0.00  0.00    +0.210 HD
ENDBRANCH   9  10
BRANCH   9  12
ATOM     12  C   LIG    1       31.535 -19.464   8.395  0.00  0.00    +0.115 C 
BRANCH  12  13
ATOM     13  N   LIG    1       31.998 -18.561   9.464  0.00  0.00    -0.311 NA
ATOM     14  H   LIG    1       33.007 -18.431   9.330  0.00  0.00    +0.122 HD
BRANCH  13  16
ATOM     15  C   LIG    1       30.464 -17.118  10.840  0.00  0.00    +0.024 C 
ATOM     16  C   LIG    1       31.343 -17.250   9.591  0.00  0.00    +0.048 C 
ATOM     17  C   LIG    1       32.457 -16.182   9.590  0.00  0.00    +0.024 C 
ENDBRANCH  13  16
ENDBRANCH  12  13
ENDBRANCH   9  12
ENDBRANCH   8   9
ENDBRANCH   7   8
ENDBRANCH   1   7
BRANCH   4  18
ATOM     18  C   LIG    1       23.442 -20.804   6.813  0.00  0.00    +0.063 C 
BRANCH  18  19
ATOM     19  C   LIG    1       22.971 -22.094   6.092  0.00  0.00    +0.164 C 
BRANCH  19  20
ATOM     20  O   LIG    1       22.656 -23.167   6.996  0.00  0.00    -0.379 OA
BRANCH  20  21
ATOM     21  C   LIG    1       23.337 -24.384   6.646  0.00  0.00    +0.163 C 
BRANCH  21  22
ATOM     22  C   LIG    1       24.697 -24.079   6.076  0.00  0.00    +0.015 C 
ATOM     23  C   LIG    1       25.932 -24.222   6.941  0.00  0.00    +0.006 C 
ATOM     24  C   LIG    1       25.705 -25.165   5.796  0.00  0.00    +0.006 C 
ENDBRANCH  21  22
ENDBRANCH  20  21
ENDBRANCH  19  20
ENDBRANCH  18  19
ENDBRANCH   4  18
TORSDOF 12
ENDMDL
MODEL 3
REMARK VINA RESULT:      -7.6      2.594      8.284
REMARK  Name = *****
REMARK                            x       y       z     vdW  Elec       q    Type
REMARK                         _______ _______ _______ _____ _____    ______ ____
ROOT
ATOM      1  C   LIG    1       25.524 -20.608   7.273  0.00  0.00    +0.121 A 
ATOM      2  C   LIG    1       25.891 -20.447   5.928  0.00  0.00    +0.046 A 
ATOM      3  C   LIG    1       27.190 -20.029   5.594  0.00  0.00    +0.007 A 
ATOM      4  C   LIG    1       28.180 -19.833   6.545  0.00  0.00    -0.045 A 
ATOM      5  C   LIG    1       27.886 -20.250   7.861  0.00  0.00    +0.007 A 
ATOM      6  C   LIG    1       26.560 -20.606   8.201  0.00  0.00    +0.046 A 
ENDROOT
BRANCH   1   7
ATOM      7  O   LIG    1       24.265 -20.957   7.665  0.00  0.00    -0.489 OA
BRANCH   7   8
ATOM      8  C   LIG    1       23.364 -21.736   6.823  0.00  0.00    +0.261 C 
BRANCH   8   9
ATOM      9  C   LIG    1       23.428 -23.285   6.871  0.00  0.00    +0.166 C 
BRANCH   9  10
ATOM     10  O   LIG    1       22.137 -23.863   6.594  0.00  0.00    -0.387 OA
ATOM     11  H   LIG    1       22.255 -24.622   5.998  0.00  0.00    +0.210 HD
ENDBRANCH   9  10
BRANCH   9  12
ATOM     12  C   LIG    1       24.501 -23.914   5.909  0.00  0.00    +0.115 C 
BRANCH  12  13
ATOM     13  N   LIG    1       24.048 -25.251   5.487  0.00  0.00    -0.311 NA
ATOM     14  H   LIG    1       24.310 -25.359   4.502  0.00  0.00    +0.122 HD
BRANCH  13  16
ATOM     15  C   LIG    1       24.436 -27.737   5.485  0.00  0.00    +0.024 C 
ATOM     16  C   LIG    1       24.519 -26.413   6.255  0.00  0.00    +0.048 C 
ATOM     17  C   LIG    1       25.974 -26.119   6.679  0.00  0.00    +0.024 C 
ENDBRANCH  13  16
ENDBRANCH  12  13
ENDBRANCH   9  12
ENDBRANCH   8   9
ENDBRANCH   7   8
ENDBRANCH   1   7
BRANCH   4  18
ATOM     18  C   LIG    1       29.514 -19.219   6.151  0.00  0.00    +0.063 C 
BRANCH  18  19
ATOM     19  C   LIG    1       30.745 -19.637   6.998  0.00  0.00    +0.164 C 
BRANCH  19  20
ATOM     20  O   LIG    1       31.502 -18.519   7.491  0.00  0.00    -0.379 OA
BRANCH  20  21
ATOM     21  C   LIG    1       31.770 -18.628   8.899  0.00  0.00    +0.163 C 
BRANCH  21  22
ATOM     22  C   LIG    1       30.572 -18.187   9.697  0.00  0.00    +0.015 C 
ATOM     23  C   LIG    1       30.757 -17.594  11.079  0.00  0.00    +0.006 C 
ATOM     24  C   LIG    1       30.277 -16.729   9.950  0.00  0.00    +0.006 C 
ENDBRANCH  21  22
ENDBRANCH  20  21
ENDBRANCH  19  20
ENDBRANCH  18  19
ENDBRANCH   4  18
TORSDOF 12
ENDMDL
MODEL 4
REMARK VINA RESULT:      -7.4      1.671      2.921
REMARK  Name = *****
REMARK                            x       y       z     vdW  Elec       q    Type
REMARK                         _______ _______ _______ _____ _____    ______ ____
ROOT
ATOM      1  C   LIG    1       27.169 -21.065   8.010  0.00  0.00    +0.121 A 
ATOM      2  C   LIG    1       25.998 -20.589   8.622  0.00  0.00    +0.046 A 
ATOM      3  C   LIG    1       24.746 -21.104   8.250  0.00  0.00    +0.007 A 
ATOM      4  C   LIG    1       24.604 -22.141   7.339  0.00  0.00    -0.045 A 
ATOM      5  C   LIG    1       25.788 -22.791   6.929  0.00  0.00    +0.007 A 
ATOM      6  C   LIG    1       27.044 -22.226   7.255  0.00  0.00    +0.046 A 
ENDROOT
BRANCH   1   7
ATOM      7  O   LIG    1       28.408 -20.567   8.286  0.00  0.00    -0.489 OA
BRANCH   7   8
ATOM      8  C   LIG    1       29.635 -21.313   8.026  0.00  0.00    +0.261 C 
BRANCH   8   9
ATOM      9  C   LIG    1       30.941 -20.907   8.757  0.00  0.00    +0.166 C 
BRANCH   9  10
ATOM     10  O   LIG    1       31.936 -21.945   8.649  0.00  0.00    -0.387 OA
ATOM     11  H   LIG    1       32.025 -22.197   7.714  0.00  0.00    +0.210 HD
ENDBRANCH   9  10
BRANCH   9  12
ATOM     12  C   LIG    1       31.552 -19.542   8.270  0.00  0.00    +0.115 C 
BRANCH  12  13
ATOM     13  N   LIG    1       31.944 -18.742   9.444  0.00  0.00    -0.311 NA
ATOM     14  H   LIG    1       32.966 -18.660   9.422  0.00  0.00    +0.122 HD
BRANCH  13  16
ATOM     15  C   LIG    1       30.450 -17.275  10.838  0.00  0.00    +0.024 C 
ATOM     16  C   LIG    1       31.344 -17.409   9.599  0.00  0.00    +0.048 C 
ATOM     17  C   LIG    1       32.503 -16.390   9.650  0.00  0.00    +0.024 C 
ENDBRANCH  13  16
ENDBRANCH  12  13
ENDBRANCH   9  12
ENDBRANCH   8   9
ENDBRANCH   7   8
ENDBRANCH   1   7
BRANCH   4  18
ATOM     18  C   LIG    1       23.224 -22.546   6.843  0.00  0.00    +0.063 C 
BRANCH  18  19
ATOM     19  C   LIG    1       22.591 -21.645   5.750  0.00  0.00    +0.164 C 
BRANCH  19  20
ATOM     20  O   LIG    1       22.930 -20.255   5.892  0.00  0.00    -0.379 OA
BRANCH  20  21
ATOM     21  C   LIG    1       22.985 -19.581   4.623  0.00  0.00    +0.163 C 
BRANCH  21  22
ATOM     22  C   LIG    1       24.239 -19.961   3.881  0.00  0.00    +0.015 C 
ATOM     23  C   LIG    1       25.272 -18.905   3.545  0.00  0.00    +0.006 C 
ATOM     24  C   LIG    1       25.590 -19.971   4.553  0.00  0.00    +0.006 C 
ENDBRANCH  21  22
ENDBRANCH  20  21
ENDBRANCH  19  20
ENDBRANCH  18  19
ENDBRANCH   4  18
TORSDOF 12
ENDMDL
MODEL 5
REMARK VINA RESULT:      -7.4      1.302      1.833
REMARK  Name = *****
REMARK                            x       y       z     vdW  Elec       q    Type
REMARK                         _______ _______ _______ _____ _____    ______ ____
ROOT
ATOM      1  C   LIG    1       27.786 -20.513   7.188  0.00  0.00    +0.121 A 
ATOM      2  C   LIG    1       27.088 -20.294   5.989  0.00  0.00    +0.046 A 
ATOM      3  C   LIG    1       25.694 -20.457   5.943  0.00  0.00    +0.007 A 
ATOM      4  C   LIG    1       24.938 -20.756   7.067  0.00  0.00    -0.045 A 
ATOM      5  C   LIG    1       25.605 -20.712   8.309  0.00  0.00    +0.007 A 
ATOM      6  C   LIG    1       27.017 -20.615   8.341  0.00  0.00    +0.046 A 
ENDROOT
BRANCH   1   7
ATOM      7  O   LIG    1       29.144 -20.427   7.285  0.00  0.00    -0.489 OA
BRANCH   7   8
ATOM      8  C   LIG    1       29.932 -21.306   8.141  0.00  0.00    +0.261 C 
BRANCH   8   9
ATOM      9  C   LIG    1       31.000 -20.693   9.084  0.00  0.00    +0.166 C 
BRANCH   9  10
ATOM     10  O   LIG    1       32.104 -21.600   9.271  0.00  0.00    -0.387 OA
ATOM     11  H   LIG    1       32.076 -21.944  10.180  0.00  0.00    +0.210 HD
ENDBRANCH   9  10
BRANCH   9  12
ATOM     12  C   LIG    1       31.544 -19.294   8.615  0.00  0.00    +0.115 C 
BRANCH  12  13
ATOM     13  N   LIG    1       32.153 -18.602   9.765  0.00  0.00    -0.311 NA
ATOM     14  H   LIG    1       33.143 -18.459   9.537  0.00  0.00    +0.122 HD
BRANCH  13  16
ATOM     15  C   LIG    1       32.487 -16.124  10.037  0.00  0.00    +0.024 C 
ATOM     16  C   LIG    1       31.556 -17.332  10.200  0.00  0.00    +0.048 C 
ATOM     17  C   LIG    1       30.259 -17.135   9.387  0.00  0.00    +0.024 C 
ENDBRANCH  13  16
ENDBRANCH  12  13
ENDBRANCH   9  12
ENDBRANCH   8   9
ENDBRANCH   7   8
ENDBRANCH   1   7
BRANCH   4  18
ATOM     18  C   LIG    1       23.460 -21.088   6.933  0.00  0.00    +0.063 C 
BRANCH  18  19
ATOM     19  C   LIG    1       23.091 -22.594   6.885  0.00  0.00    +0.164 C 
BRANCH  19  20
ATOM     20  O   LIG    1       23.982 -23.371   6.066  0.00  0.00    -0.379 OA
BRANCH  20  21
ATOM     21  C   LIG    1       24.074 -24.734   6.512  0.00  0.00    +0.163 C 
BRANCH  21  22
ATOM     22  C   LIG    1       25.506 -25.198   6.491  0.00  0.00    +0.015 C 
ATOM     23  C   LIG    1       25.852 -26.613   6.906  0.00  0.00    +0.006 C 
ATOM     24  C   LIG    1       26.006 -26.193   5.473  0.00  0.00    +0.006 C 
ENDBRANCH  21  22
ENDBRANCH  20  21
ENDBRANCH  19  20
ENDBRANCH  18  19
ENDBRANCH   4  18
TORSDOF 12
ENDMDL
MODEL 6
REMARK VINA RESULT:      -7.3      4.478      8.461
REMARK  Name = *****
REMARK                            x       y       z     vdW  Elec       q    Type
REMARK                         _______ _______ _______ _____ _____    ______ ____
ROOT
ATOM      1  C   LIG    1       24.246 -25.136   6.300  0.00  0.00    +0.121 A 
ATOM      2  C   LIG    1       25.586 -24.883   6.634  0.00  0.00    +0.046 A 
ATOM      3  C   LIG    1       25.988 -23.593   7.019  0.00  0.00    +0.007 A 
ATOM      4  C   LIG    1       25.093 -22.544   7.165  0.00  0.00    -0.045 A 
ATOM      5  C   LIG    1       23.721 -22.865   7.088  0.00  0.00    +0.007 A 
ATOM      6  C   LIG    1       23.328 -24.147   6.635  0.00  0.00    +0.046 A 
ENDROOT
BRANCH   1   7
ATOM      7  O   LIG    1       23.804 -26.351   5.865  0.00  0.00    -0.489 OA
BRANCH   7   8
ATOM      8  C   LIG    1       24.623 -27.557   5.924  0.00  0.00    +0.261 C 
BRANCH   8   9
ATOM      9  C   LIG    1       24.012 -28.863   6.496  0.00  0.00    +0.166 C 
BRANCH   9  10
ATOM     10  O   LIG    1       23.310 -29.595   5.472  0.00  0.00    -0.387 OA
ATOM     11  H   LIG    1       23.116 -30.489   5.802  0.00  0.00    +0.210 HD
ENDBRANCH   9  10
BRANCH   9  12
ATOM     12  C   LIG    1       25.056 -29.809   7.194  0.00  0.00    +0.115 C 
BRANCH  12  13
ATOM     13  N   LIG    1       25.960 -28.998   8.030  0.00  0.00    -0.311 NA
ATOM     14  H   LIG    1       25.567 -28.051   8.064  0.00  0.00    +0.122 HD
BRANCH  13  16
ATOM     15  C   LIG    1       26.851 -28.391  10.303  0.00  0.00    +0.024 C 
ATOM     16  C   LIG    1       26.243 -29.467   9.394  0.00  0.00    +0.048 C 
ATOM     17  C   LIG    1       24.914 -29.991   9.980  0.00  0.00    +0.024 C 
ENDBRANCH  13  16
ENDBRANCH  12  13
ENDBRANCH   9  12
ENDBRANCH   8   9
ENDBRANCH   7   8
ENDBRANCH   1   7
BRANCH   4  18
ATOM     18  C   LIG    1       25.598 -21.132   7.418  0.00  0.00    +0.063 C 
BRANCH  18  19
ATOM     19  C   LIG    1       26.265 -20.411   6.216  0.00  0.00    +0.164 C 
BRANCH  19  20
ATOM     20  O   LIG    1       25.694 -20.775   4.947  0.00  0.00    -0.379 OA
BRANCH  20  21
ATOM     21  C   LIG    1       25.032 -19.667   4.317  0.00  0.00    +0.163 C 
BRANCH  21  22
ATOM     22  C   LIG    1       23.551 -19.925   4.221  0.00  0.00    +0.015 C 
ATOM     23  C   LIG    1       22.669 -19.747   5.439  0.00  0.00    +0.006 C 
ATOM     24  C   LIG    1       22.542 -18.805   4.277  0.00  0.00    +0.006 C 
ENDBRANCH  21  22
ENDBRANCH  20  21
ENDBRANCH  19  20
ENDBRANCH  18  19
ENDBRANCH   4  18
TORSDOF 12
ENDMDL
MODEL 7
REMARK VINA RESULT:      -7.3      4.946      9.506
REMARK  Name = *****
REMARK                            x       y       z     vdW  Elec       q    Type
REMARK                         _______ _______ _______ _____ _____    ______ ____
ROOT
ATOM      1  C   LIG    1       24.285 -25.207   6.407  0.00  0.00    +0.121 A 
ATOM      2  C   LIG    1       25.617 -24.887   6.717  0.00  0.00    +0.046 A 
ATOM      3  C   LIG    1       25.979 -23.560   6.995  0.00  0.00    +0.007 A 
ATOM      4  C   LIG    1       25.054 -22.528   7.057  0.00  0.00    -0.045 A 
ATOM      5  C   LIG    1       23.692 -22.896   7.008  0.00  0.00    +0.007 A 
ATOM      6  C   LIG    1       23.338 -24.221   6.662  0.00  0.00    +0.046 A 
ENDROOT
BRANCH   1   7
ATOM      7  O   LIG    1       23.879 -26.466   6.073  0.00  0.00    -0.489 OA
BRANCH   7   8
ATOM      8  C   LIG    1       24.806 -27.505   5.639  0.00  0.00    +0.261 C 
BRANCH   8   9
ATOM      9  C   LIG    1       24.435 -28.994   5.858  0.00  0.00    +0.166 C 
BRANCH   9  10
ATOM     10  O   LIG    1       23.166 -29.304   5.249  0.00  0.00    -0.387 OA
ATOM     11  H   LIG    1       23.008 -30.261   5.322  0.00  0.00    +0.210 HD
ENDBRANCH   9  10
BRANCH   9  12
ATOM     12  C   LIG    1       25.522 -30.009   5.349  0.00  0.00    +0.115 C 
BRANCH  12  13
ATOM     13  N   LIG    1       24.886 -31.315   5.100  0.00  0.00    -0.311 NA
ATOM     14  H   LIG    1       24.628 -31.338   4.107  0.00  0.00    +0.122 HD
BRANCH  13  16
ATOM     15  C   LIG    1       26.451 -33.103   4.271  0.00  0.00    +0.024 C 
ATOM     16  C   LIG    1       25.644 -32.528   5.442  0.00  0.00    +0.048 C 
ATOM     17  C   LIG    1       26.572 -32.167   6.621  0.00  0.00    +0.024 C 
ENDBRANCH  13  16
ENDBRANCH  12  13
ENDBRANCH   9  12
ENDBRANCH   8   9
ENDBRANCH   7   8
ENDBRANCH   1   7
BRANCH   4  18
ATOM     18  C   LIG    1       25.517 -21.086   7.192  0.00  0.00    +0.063 C 
BRANCH  18  19
ATOM     19  C   LIG    1       26.255 -20.480   5.970  0.00  0.00    +0.164 C 
BRANCH  19  20
ATOM     20  O   LIG    1       25.591 -20.736   4.720  0.00  0.00    -0.379 OA
BRANCH  20  21
ATOM     21  C   LIG    1       24.888 -19.580   4.236  0.00  0.00    +0.163 C 
BRANCH  21  22
ATOM     22  C   LIG    1       23.405 -19.840   4.211  0.00  0.00    +0.015 C 
ATOM     23  C   LIG    1       22.587 -19.694   5.478  0.00  0.00    +0.006 C 
ATOM     24  C   LIG    1       22.399 -18.724   4.347  0.00  0.00    +0.006 C 
ENDBRANCH  21  22
ENDBRANCH  20  21
ENDBRANCH  19  20
ENDBRANCH  18  19
ENDBRANCH   4  18
TORSDOF 12
ENDMDL
MODEL 8
REMARK VINA RESULT:      -7.1      4.468      9.484
REMARK  Name = *****
REMARK                            x       y       z     vdW  Elec       q    Type
REMARK                         _______ _______ _______ _____ _____    ______ ____
ROOT
ATOM      1  C   LIG    1       24.169 -24.984   6.486  0.00  0.00    +0.121 A 
ATOM      2  C   LIG    1       23.282 -23.905   6.629  0.00  0.00    +0.046 A 
ATOM      3  C   LIG    1       23.734 -22.680   7.144  0.00  0.00    +0.007 A 
ATOM      4  C   LIG    1       25.066 -22.446   7.458  0.00  0.00    -0.045 A 
ATOM      5  C   LIG    1       25.992 -23.436   7.065  0.00  0.00    +0.007 A 
ATOM      6  C   LIG    1       25.523 -24.691   6.610  0.00  0.00    +0.046 A 
ENDROOT
BRANCH   1   7
ATOM      7  O   LIG    1       23.781 -26.215   6.046  0.00  0.00    -0.489 OA
BRANCH   7   8
ATOM      8  C   LIG    1       24.669 -27.372   6.049  0.00  0.00    +0.261 C 
BRANCH   8   9
ATOM      9  C   LIG    1       24.095 -28.770   6.396  0.00  0.00    +0.166 C 
BRANCH   9  10
ATOM     10  O   LIG    1       23.257 -29.262   5.331  0.00  0.00    -0.387 OA
ATOM     11  H   LIG    1       23.592 -28.917   4.485  0.00  0.00    +0.210 HD
ENDBRANCH   9  10
BRANCH   9  12
ATOM     12  C   LIG    1       25.188 -29.845   6.743  0.00  0.00    +0.115 C 
BRANCH  12  13
ATOM     13  N   LIG    1       25.784 -30.350   5.492  0.00  0.00    -0.311 NA
ATOM     14  H   LIG    1       26.666 -29.846   5.356  0.00  0.00    +0.122 HD
BRANCH  13  16
ATOM     15  C   LIG    1       26.939 -32.363   6.464  0.00  0.00    +0.024 C 
ATOM     16  C   LIG    1       26.018 -31.797   5.376  0.00  0.00    +0.048 C 
ATOM     17  C   LIG    1       24.638 -32.487   5.416  0.00  0.00    +0.024 C 
ENDBRANCH  13  16
ENDBRANCH  12  13
ENDBRANCH   9  12
ENDBRANCH   8   9
ENDBRANCH   7   8
ENDBRANCH   1   7
BRANCH   4  18
ATOM     18  C   LIG    1       25.474 -21.166   8.169  0.00  0.00    +0.063 C 
BRANCH  18  19
ATOM     19  C   LIG    1       26.700 -20.413   7.587  0.00  0.00    +0.164 C 
BRANCH  19  20
ATOM     20  O   LIG    1       27.884 -20.548   8.391  0.00  0.00    -0.379 OA
BRANCH  20  21
ATOM     21  C   LIG    1       28.987 -21.084   7.642  0.00  0.00    +0.163 C 
BRANCH  21  22
ATOM     22  C   LIG    1       30.186 -20.180   7.752  0.00  0.00    +0.015 C 
ATOM     23  C   LIG    1       30.542 -19.249   6.611  0.00  0.00    +0.006 C 
ATOM     24  C   LIG    1       30.045 -18.686   7.911  0.00  0.00    +0.006 C 
ENDBRANCH  21  22
ENDBRANCH  20  21
ENDBRANCH  19  20
ENDBRANCH  18  19
ENDBRANCH   4  18
TORSDOF 12
ENDMDL
MODEL 9
REMARK VINA RESULT:      -7.1      2.603      8.110
REMARK  Name = *****
REMARK                            x       y       z     vdW  Elec       q    Type
REMARK                         _______ _______ _______ _____ _____    ______ ____
ROOT
ATOM      1  C   LIG    1       26.675 -20.816   7.124  0.00  0.00    +0.121 A 
ATOM      2  C   LIG    1       27.087 -20.064   6.012  0.00  0.00    +0.046 A 
ATOM      3  C   LIG    1       28.426 -19.659   5.888  0.00  0.00    +0.007 A 
ATOM      4  C   LIG    1       29.408 -20.037   6.792  0.00  0.00    -0.045 A 
ATOM      5  C   LIG    1       29.047 -21.005   7.753  0.00  0.00    +0.007 A 
ATOM      6  C   LIG    1       27.685 -21.356   7.913  0.00  0.00    +0.046 A 
ENDROOT
BRANCH   1   7
ATOM      7  O   LIG    1       25.381 -21.192   7.330  0.00  0.00    -0.489 OA
BRANCH   7   8
ATOM      8  C   LIG    1       24.959 -22.588   7.363  0.00  0.00    +0.261 C 
BRANCH   8   9
ATOM      9  C   LIG    1       24.599 -23.305   6.036  0.00  0.00    +0.166 C 
BRANCH   9  10
ATOM     10  O   LIG    1       23.383 -24.066   6.175  0.00  0.00    -0.387 OA
ATOM     11  H   LIG    1       22.766 -23.571   6.741  0.00  0.00    +0.210 HD
ENDBRANCH   9  10
BRANCH   9  12
ATOM     12  C   LIG    1       24.476 -22.343   4.799  0.00  0.00    +0.115 C 
BRANCH  12  13
ATOM     13  N   LIG    1       23.363 -21.403   5.025  0.00  0.00    -0.311 NA
ATOM     14  H   LIG    1       23.058 -21.529   5.996  0.00  0.00    +0.122 HD
BRANCH  13  16
ATOM     15  C   LIG    1       24.351 -19.707   3.452  0.00  0.00    +0.024 C 
ATOM     16  C   LIG    1       23.600 -19.977   4.762  0.00  0.00    +0.048 C 
ATOM     17  C   LIG    1       22.224 -19.279   4.757  0.00  0.00    +0.024 C 
ENDBRANCH  13  16
ENDBRANCH  12  13
ENDBRANCH   9  12
ENDBRANCH   8   9
ENDBRANCH   7   8
ENDBRANCH   1   7
BRANCH   4  18
ATOM     18  C   LIG    1       30.802 -19.435   6.709  0.00  0.00    +0.063 C 
BRANCH  18  19
ATOM     19  C   LIG    1       31.435 -18.967   8.047  0.00  0.00    +0.164 C 
BRANCH  19  20
ATOM     20  O   LIG    1       31.897 -17.606   8.012  0.00  0.00    -0.379 OA
BRANCH  20  21
ATOM     21  C   LIG    1       32.311 -17.144   9.308  0.00  0.00    +0.163 C 
BRANCH  21  22
ATOM     22  C   LIG    1       31.124 -16.659  10.096  0.00  0.00    +0.015 C 
ATOM     23  C   LIG    1       30.444 -17.578  11.090  0.00  0.00    +0.006 C 
ATOM     24  C   LIG    1       31.210 -16.382  11.577  0.00  0.00    +0.006 C 
ENDBRANCH  21  22
ENDBRANCH  20  21
ENDBRANCH  19  20
ENDBRANCH  18  19
ENDBRANCH   4  18
TORSDOF 12
ENDMDL
