MODEL 1
REMARK VINA RESULT:      -8.4      0.000      0.000
REMARK  Name = *****
REMARK                            x       y       z     vdW  Elec       q    Type
REMARK                         _______ _______ _______ _____ _____    ______ ____
ROOT
ATOM      1  C   LIG    1       24.129 -22.441   6.221  0.00  0.00    +0.027 A 
ATOM      2  C   LIG    1       25.288 -22.548   7.000  0.00  0.00    +0.051 A 
ATOM      3  C   LIG    1       26.384 -21.711   6.824  0.00  0.00    +0.073 A 
ATOM      4  C   LIG    1       26.292 -20.697   5.853  0.00  0.00    +0.001 A 
ATOM      5  C   LIG    1       27.391 -19.848   5.686  0.00  0.00    +0.020 A 
ATOM      6  C   LIG    1       28.531 -20.012   6.477  0.00  0.00    +0.001 A 
ATOM      7  C   LIG    1       28.533 -21.052   7.423  0.00  0.00    +0.073 A 
ATOM      8  C   LIG    1       29.662 -21.208   8.222  0.00  0.00    +0.051 A 
ATOM      9  C   LIG    1       30.796 -20.398   8.083  0.00  0.00    +0.027 A 
ATOM     10  C   LIG    1       30.754 -19.341   7.178  0.00  0.00    +0.023 A 
ATOM     11  C   LIG    1       29.639 -19.159   6.360  0.00  0.00    +0.012 A 
ATOM     12  C   LIG    1       25.119 -20.542   5.100  0.00  0.00    +0.012 A 
ATOM     13  N   LIG    1       27.482 -21.879   7.585  0.00  0.00    -0.247 NA
ATOM     14  C   LIG    1       24.037 -21.396   5.304  0.00  0.00    +0.023 A 
ENDROOT
BRANCH   1  15
ATOM     15  N   LIG    1       23.000 -23.212   6.520  0.00  0.00    -0.358 N 
ATOM     16  H   LIG    1       22.742 -23.200   7.503  0.00  0.00    +0.142 HD
ATOM     17  H   LIG    1       23.028 -24.154   6.142  0.00  0.00    +0.142 HD
ENDBRANCH   1  15
BRANCH   9  18
ATOM     18  N   LIG    1       31.854 -20.497   8.996  0.00  0.00    -0.358 N 
ATOM     19  H   LIG    1       31.646 -20.104   9.910  0.00  0.00    +0.142 HD
ATOM     20  H   LIG    1       32.260 -21.425   9.060  0.00  0.00    +0.142 HD
ENDBRANCH   9  18
TORSDOF 2
ENDMDL
MODEL 2
REMARK VINA RESULT:      -8.4      0.264      5.645
REMARK  Name = *****
REMARK                            x       y       z     vdW  Elec       q    Type
REMARK                         _______ _______ _______ _____ _____    ______ ____
ROOT
ATOM      1  C   LIG    1       30.617 -20.448   8.152  0.00  0.00    +0.027 A 
ATOM      2  C   LIG    1       29.509 -21.292   8.291  0.00  0.00    +0.051 A 
ATOM      3  C   LIG    1       28.351 -21.132   7.537  0.00  0.00    +0.073 A 
ATOM      4  C   LIG    1       28.327 -20.108   6.574  0.00  0.00    +0.001 A 
ATOM      5  C   LIG    1       27.167 -19.956   5.807  0.00  0.00    +0.020 A 
ATOM      6  C   LIG    1       26.081 -20.814   6.001  0.00  0.00    +0.001 A 
ATOM      7  C   LIG    1       26.195 -21.810   6.986  0.00  0.00    +0.073 A 
ATOM      8  C   LIG    1       25.120 -22.674   7.171  0.00  0.00    +0.051 A 
ATOM      9  C   LIG    1       23.929 -22.555   6.444  0.00  0.00    +0.027 A 
ATOM     10  C   LIG    1       23.855 -21.596   5.438  0.00  0.00    +0.023 A 
ATOM     11  C   LIG    1       24.914 -20.712   5.229  0.00  0.00    +0.012 A 
ATOM     12  C   LIG    1       29.448 -19.286   6.384  0.00  0.00    +0.012 A 
ATOM     13  N   LIG    1       27.306 -21.958   7.734  0.00  0.00    -0.247 NA
ATOM     14  C   LIG    1       30.594 -19.476   7.155  0.00  0.00    +0.023 A 
ENDROOT
BRANCH   1  15
ATOM     15  N   LIG    1       31.810 -20.726   8.832  0.00  0.00    -0.358 N 
ATOM     16  H   LIG    1       32.440 -21.339   8.322  0.00  0.00    +0.142 HD
ATOM     17  H   LIG    1       31.680 -21.023   9.794  0.00  0.00    +0.142 HD
ENDBRANCH   1  15
BRANCH   9  18
ATOM     18  N   LIG    1       22.927 -23.527   6.562  0.00  0.00    -0.358 N 
ATOM     19  H   LIG    1       22.538 -23.605   7.497  0.00  0.00    +0.142 HD
ATOM     20  H   LIG    1       22.206 -23.467   5.849  0.00  0.00    +0.142 HD
ENDBRANCH   9  18
TORSDOF 2
ENDMDL
MODEL 3
REMARK VINA RESULT:      -7.7      1.535      2.464
REMARK  Name = *****
REMARK                            x       y       z     vdW  Elec       q    Type
REMARK                         _______ _______ _______ _____ _____    ______ ____
ROOT
ATOM      1  C   LIG    1       22.876 -21.321   5.632  0.00  0.00    +0.027 A 
ATOM      2  C   LIG    1       24.075 -20.667   5.326  0.00  0.00    +0.051 A 
ATOM      3  C   LIG    1       25.232 -20.842   6.077  0.00  0.00    +0.073 A 
ATOM      4  C   LIG    1       25.190 -21.745   7.154  0.00  0.00    +0.001 A 
ATOM      5  C   LIG    1       26.357 -21.929   7.902  0.00  0.00    +0.020 A 
ATOM      6  C   LIG    1       27.522 -21.235   7.565  0.00  0.00    +0.001 A 
ATOM      7  C   LIG    1       27.472 -20.353   6.472  0.00  0.00    +0.073 A 
ATOM      8  C   LIG    1       28.634 -19.671   6.126  0.00  0.00    +0.051 A 
ATOM      9  C   LIG    1       29.825 -19.805   6.852  0.00  0.00    +0.027 A 
ATOM     10  C   LIG    1       29.869 -20.722   7.898  0.00  0.00    +0.023 A 
ATOM     11  C   LIG    1       28.721 -21.419   8.272  0.00  0.00    +0.012 A 
ATOM     12  C   LIG    1       24.011 -22.450   7.443  0.00  0.00    +0.012 A 
ATOM     13  N   LIG    1       26.349 -20.164   5.751  0.00  0.00    -0.247 NA
ATOM     14  C   LIG    1       22.870 -22.253   6.667  0.00  0.00    +0.023 A 
ENDROOT
BRANCH   1  15
ATOM     15  N   LIG    1       21.775 -21.223   4.772  0.00  0.00    -0.358 N 
ATOM     16  H   LIG    1       22.003 -21.371   3.793  0.00  0.00    +0.142 HD
ATOM     17  H   LIG    1       21.211 -20.391   4.912  0.00  0.00    +0.142 HD
ENDBRANCH   1  15
BRANCH   9  18
ATOM     18  N   LIG    1       31.007 -19.210   6.390  0.00  0.00    -0.358 N 
ATOM     19  H   LIG    1       31.405 -19.666   5.574  0.00  0.00    +0.142 HD
ATOM     20  H   LIG    1       30.947 -18.203   6.277  0.00  0.00    +0.142 HD
ENDBRANCH   9  18
TORSDOF 2
ENDMDL
MODEL 4
REMARK VINA RESULT:      -7.7      1.474      6.121
REMARK  Name = *****
REMARK                            x       y       z     vdW  Elec       q    Type
REMARK                         _______ _______ _______ _____ _____    ______ ____
ROOT
ATOM      1  C   LIG    1       29.931 -19.839   6.844  0.00  0.00    +0.027 A 
ATOM      2  C   LIG    1       28.724 -19.668   6.156  0.00  0.00    +0.051 A 
ATOM      3  C   LIG    1       27.592 -20.425   6.438  0.00  0.00    +0.073 A 
ATOM      4  C   LIG    1       27.667 -21.362   7.483  0.00  0.00    +0.001 A 
ATOM      5  C   LIG    1       26.525 -22.115   7.774  0.00  0.00    +0.020 A 
ATOM      6  C   LIG    1       25.351 -21.918   7.042  0.00  0.00    +0.001 A 
ATOM      7  C   LIG    1       25.367 -20.959   6.014  0.00  0.00    +0.073 A 
ATOM      8  C   LIG    1       24.195 -20.751   5.293  0.00  0.00    +0.051 A 
ATOM      9  C   LIG    1       23.029 -21.490   5.531  0.00  0.00    +0.027 A 
ATOM     10  C   LIG    1       23.017 -22.397   6.587  0.00  0.00    +0.023 A 
ATOM     11  C   LIG    1       24.176 -22.631   7.326  0.00  0.00    +0.012 A 
ATOM     12  C   LIG    1       28.853 -21.510   8.219  0.00  0.00    +0.012 A 
ATOM     13  N   LIG    1       26.466 -20.235   5.723  0.00  0.00    -0.247 NA
ATOM     14  C   LIG    1       29.969 -20.732   7.912  0.00  0.00    +0.023 A 
ENDROOT
BRANCH   1  15
ATOM     15  N   LIG    1       31.003 -18.965   6.623  0.00  0.00    -0.358 N 
ATOM     16  H   LIG    1       31.833 -19.419   6.253  0.00  0.00    +0.142 HD
ATOM     17  H   LIG    1       31.215 -18.360   7.410  0.00  0.00    +0.142 HD
ENDBRANCH   1  15
BRANCH   9  18
ATOM     18  N   LIG    1       21.834 -21.156   4.880  0.00  0.00    -0.358 N 
ATOM     19  H   LIG    1       21.397 -20.309   5.232  0.00  0.00    +0.142 HD
ATOM     20  H   LIG    1       21.898 -21.163   3.867  0.00  0.00    +0.142 HD
ENDBRANCH   9  18
TORSDOF 2
ENDMDL
MODEL 5
REMARK VINA RESULT:      -7.4      3.597      5.459
REMARK  Name = *****
REMARK                            x       y       z     vdW  Elec       q    Type
REMARK                         _______ _______ _______ _____ _____    ______ ____
ROOT
ATOM      1  C   LIG    1       28.567 -20.170   7.107  0.00  0.00    +0.027 A 
ATOM      2  C   LIG    1       28.649 -19.546   8.357  0.00  0.00    +0.051 A 
ATOM      3  C   LIG    1       29.753 -18.793   8.744  0.00  0.00    +0.073 A 
ATOM      4  C   LIG    1       30.796 -18.626   7.816  0.00  0.00    +0.001 A 
ATOM      5  C   LIG    1       31.900 -17.859   8.201  0.00  0.00    +0.020 A 
ATOM      6  C   LIG    1       31.940 -17.275   9.470  0.00  0.00    +0.001 A 
ATOM      7  C   LIG    1       30.851 -17.495  10.332  0.00  0.00    +0.073 A 
ATOM      8  C   LIG    1       30.882 -16.904  11.591  0.00  0.00    +0.051 A 
ATOM      9  C   LIG    1       31.971 -16.141  12.033  0.00  0.00    +0.027 A 
ATOM     10  C   LIG    1       33.015 -15.891  11.147  0.00  0.00    +0.023 A 
ATOM     11  C   LIG    1       33.015 -16.472   9.879  0.00  0.00    +0.012 A 
ATOM     12  C   LIG    1       30.707 -19.200   6.538  0.00  0.00    +0.012 A 
ATOM     13  N   LIG    1       29.787 -18.240   9.971  0.00  0.00    -0.247 NA
ATOM     14  C   LIG    1       29.584 -19.946   6.182  0.00  0.00    +0.023 A 
ENDROOT
BRANCH   1  15
ATOM     15  N   LIG    1       27.384 -20.803   6.707  0.00  0.00    -0.358 N 
ATOM     16  H   LIG    1       26.998 -20.443   5.839  0.00  0.00    +0.142 HD
ATOM     17  H   LIG    1       26.683 -20.876   7.438  0.00  0.00    +0.142 HD
ENDBRANCH   1  15
BRANCH   9  18
ATOM     18  N   LIG    1       31.903 -15.450  13.250  0.00  0.00    -0.358 N 
ATOM     19  H   LIG    1       32.772 -15.458  13.776  0.00  0.00    +0.142 HD
ATOM     20  H   LIG    1       31.508 -14.518  13.176  0.00  0.00    +0.142 HD
ENDBRANCH   9  18
TORSDOF 2
ENDMDL
MODEL 6
REMARK VINA RESULT:      -7.2      3.555      7.303
REMARK  Name = *****
REMARK                            x       y       z     vdW  Elec       q    Type
REMARK                         _______ _______ _______ _____ _____    ______ ____
ROOT
ATOM      1  C   LIG    1       31.834 -16.154  12.031  0.00  0.00    +0.027 A 
ATOM      2  C   LIG    1       30.784 -16.967  11.588  0.00  0.00    +0.051 A 
ATOM      3  C   LIG    1       30.755 -17.516  10.311  0.00  0.00    +0.073 A 
ATOM      4  C   LIG    1       31.849 -17.271   9.461  0.00  0.00    +0.001 A 
ATOM      5  C   LIG    1       31.824 -17.834   8.181  0.00  0.00    +0.020 A 
ATOM      6  C   LIG    1       30.741 -18.622   7.783  0.00  0.00    +0.001 A 
ATOM      7  C   LIG    1       29.692 -18.814   8.699  0.00  0.00    +0.073 A 
ATOM      8  C   LIG    1       28.620 -19.610   8.309  0.00  0.00    +0.051 A 
ATOM      9  C   LIG    1       28.536 -20.182   7.033  0.00  0.00    +0.027 A 
ATOM     10  C   LIG    1       29.608 -20.024   6.160  0.00  0.00    +0.023 A 
ATOM     11  C   LIG    1       30.697 -19.230   6.519  0.00  0.00    +0.012 A 
ATOM     12  C   LIG    1       32.934 -16.502   9.907  0.00  0.00    +0.012 A 
ATOM     13  N   LIG    1       29.705 -18.269   9.931  0.00  0.00    -0.247 NA
ATOM     14  C   LIG    1       32.933 -15.969  11.195  0.00  0.00    +0.023 A 
ENDROOT
BRANCH   1  15
ATOM     15  N   LIG    1       31.891 -15.734  13.366  0.00  0.00    -0.358 N 
ATOM     16  H   LIG    1       30.981 -15.547  13.777  0.00  0.00    +0.142 HD
ATOM     17  H   LIG    1       32.551 -14.982  13.537  0.00  0.00    +0.142 HD
ENDBRANCH   1  15
BRANCH   9  18
ATOM     18  N   LIG    1       27.511 -21.087   6.728  0.00  0.00    -0.358 N 
ATOM     19  H   LIG    1       26.668 -20.648   6.370  0.00  0.00    +0.142 HD
ATOM     20  H   LIG    1       27.808 -21.873   6.158  0.00  0.00    +0.142 HD
ENDBRANCH   9  18
TORSDOF 2
ENDMDL
MODEL 7
REMARK VINA RESULT:      -6.9      3.573      5.582
REMARK  Name = *****
REMARK                            x       y       z     vdW  Elec       q    Type
REMARK                         _______ _______ _______ _____ _____    ______ ____
ROOT
ATOM      1  C   LIG    1       24.636 -27.804   5.613  0.00  0.00    +0.027 A 
ATOM      2  C   LIG    1       24.364 -26.588   4.974  0.00  0.00    +0.051 A 
ATOM      3  C   LIG    1       24.792 -25.367   5.483  0.00  0.00    +0.073 A 
ATOM      4  C   LIG    1       25.561 -25.375   6.661  0.00  0.00    +0.001 A 
ATOM      5  C   LIG    1       26.000 -24.147   7.166  0.00  0.00    +0.020 A 
ATOM      6  C   LIG    1       25.683 -22.961   6.499  0.00  0.00    +0.001 A 
ATOM      7  C   LIG    1       24.910 -23.048   5.328  0.00  0.00    +0.073 A 
ATOM      8  C   LIG    1       24.605 -21.870   4.655  0.00  0.00    +0.051 A 
ATOM      9  C   LIG    1       25.004 -20.612   5.127  0.00  0.00    +0.027 A 
ATOM     10  C   LIG    1       25.813 -20.551   6.258  0.00  0.00    +0.023 A 
ATOM     11  C   LIG    1       26.134 -21.714   6.958  0.00  0.00    +0.012 A 
ATOM     12  C   LIG    1       25.887 -26.588   7.286  0.00  0.00    +0.012 A 
ATOM     13  N   LIG    1       24.476 -24.227   4.839  0.00  0.00    -0.247 NA
ATOM     14  C   LIG    1       25.446 -27.795   6.746  0.00  0.00    +0.023 A 
ENDROOT
BRANCH   1  15
ATOM     15  N   LIG    1       24.306 -29.018   4.997  0.00  0.00    -0.358 N 
ATOM     16  H   LIG    1       23.419 -29.406   5.303  0.00  0.00    +0.142 HD
ATOM     17  H   LIG    1       25.052 -29.707   5.011  0.00  0.00    +0.142 HD
ENDBRANCH   1  15
BRANCH   9  18
ATOM     18  N   LIG    1       24.797 -19.466   4.349  0.00  0.00    -0.358 N 
ATOM     19  H   LIG    1       25.588 -18.829   4.337  0.00  0.00    +0.142 HD
ATOM     20  H   LIG    1       24.441 -19.655   3.417  0.00  0.00    +0.142 HD
ENDBRANCH   9  18
TORSDOF 2
ENDMDL
MODEL 8
REMARK VINA RESULT:      -6.9      3.782      6.394
REMARK  Name = *****
REMARK                            x       y       z     vdW  Elec       q    Type
REMARK                         _______ _______ _______ _____ _____    ______ ____
ROOT
ATOM      1  C   LIG    1       24.841 -20.737   5.175  0.00  0.00    +0.027 A 
ATOM      2  C   LIG    1       24.547 -22.006   4.663  0.00  0.00    +0.051 A 
ATOM      3  C   LIG    1       24.915 -23.178   5.316  0.00  0.00    +0.073 A 
ATOM      4  C   LIG    1       25.568 -23.065   6.557  0.00  0.00    +0.001 A 
ATOM      5  C   LIG    1       25.927 -24.243   7.219  0.00  0.00    +0.020 A 
ATOM      6  C   LIG    1       25.627 -25.485   6.653  0.00  0.00    +0.001 A 
ATOM      7  C   LIG    1       24.971 -25.501   5.409  0.00  0.00    +0.073 A 
ATOM      8  C   LIG    1       24.659 -26.737   4.850  0.00  0.00    +0.051 A 
ATOM      9  C   LIG    1       25.012 -27.947   5.462  0.00  0.00    +0.027 A 
ATOM     10  C   LIG    1       25.613 -27.909   6.717  0.00  0.00    +0.023 A 
ATOM     11  C   LIG    1       25.942 -26.687   7.303  0.00  0.00    +0.012 A 
ATOM     12  C   LIG    1       25.823 -21.801   7.111  0.00  0.00    +0.012 A 
ATOM     13  N   LIG    1       24.629 -24.371   4.761  0.00  0.00    -0.247 NA
ATOM     14  C   LIG    1       25.437 -20.647   6.430  0.00  0.00    +0.023 A 
ENDROOT
BRANCH   1  15
ATOM     15  N   LIG    1       24.334 -19.588   4.556  0.00  0.00    -0.358 N 
ATOM     16  H   LIG    1       23.320 -19.558   4.513  0.00  0.00    +0.142 HD
ATOM     17  H   LIG    1       24.763 -19.375   3.660  0.00  0.00    +0.142 HD
ENDBRANCH   1  15
BRANCH   9  18
ATOM     18  N   LIG    1       24.558 -29.164   4.938  0.00  0.00    -0.358 N 
ATOM     19  H   LIG    1       24.685 -29.252   3.934  0.00  0.00    +0.142 HD
ATOM     20  H   LIG    1       24.891 -29.981   5.440  0.00  0.00    +0.142 HD
ENDBRANCH   9  18
TORSDOF 2
ENDMDL
MODEL 9
REMARK VINA RESULT:      -6.6      4.214      5.373
REMARK  Name = *****
REMARK                            x       y       z     vdW  Elec       q    Type
REMARK                         _______ _______ _______ _____ _____    ______ ____
ROOT
ATOM      1  C   LIG    1       24.645 -24.725   6.370  0.00  0.00    +0.027 A 
ATOM      2  C   LIG    1       25.294 -23.642   5.765  0.00  0.00    +0.051 A 
ATOM      3  C   LIG    1       24.639 -22.452   5.468  0.00  0.00    +0.073 A 
ATOM      4  C   LIG    1       23.286 -22.333   5.834  0.00  0.00    +0.001 A 
ATOM      5  C   LIG    1       22.632 -21.131   5.545  0.00  0.00    +0.020 A 
ATOM      6  C   LIG    1       23.322 -20.089   4.922  0.00  0.00    +0.001 A 
ATOM      7  C   LIG    1       24.673 -20.297   4.593  0.00  0.00    +0.073 A 
ATOM      8  C   LIG    1       25.367 -19.255   3.984  0.00  0.00    +0.051 A 
ATOM      9  C   LIG    1       24.755 -18.038   3.656  0.00  0.00    +0.027 A 
ATOM     10  C   LIG    1       23.432 -17.833   4.038  0.00  0.00    +0.023 A 
ATOM     11  C   LIG    1       22.708 -18.858   4.646  0.00  0.00    +0.012 A 
ATOM     12  C   LIG    1       22.634 -23.389   6.489  0.00  0.00    +0.012 A 
ATOM     13  N   LIG    1       25.309 -21.454   4.860  0.00  0.00    -0.247 NA
ATOM     14  C   LIG    1       23.322 -24.567   6.775  0.00  0.00    +0.023 A 
ENDROOT
BRANCH   1  15
ATOM     15  N   LIG    1       25.372 -25.851   6.775  0.00  0.00    -0.358 N 
ATOM     16  H   LIG    1       26.165 -25.635   7.372  0.00  0.00    +0.142 HD
ATOM     17  H   LIG    1       25.621 -26.479   6.017  0.00  0.00    +0.142 HD
ENDBRANCH   1  15
BRANCH   9  18
ATOM     18  N   LIG    1       25.519 -16.968   3.173  0.00  0.00    -0.358 N 
ATOM     19  H   LIG    1       26.509 -17.177   3.085  0.00  0.00    +0.142 HD
ATOM     20  H   LIG    1       25.142 -16.535   2.336  0.00  0.00    +0.142 HD
ENDBRANCH   9  18
TORSDOF 2
ENDMDL
