MODEL 1
REMARK VINA RESULT:      -6.3      0.000      0.000
REMARK  Name = *****
REMARK                            x       y       z     vdW  Elec       q    Type
REMARK                         _______ _______ _______ _____ _____    ______ ____
ROOT
ATOM      1  C   LIG    1       24.736 -30.682   9.266  0.00  0.00    +0.150 A 
ATOM      2  C   LIG    1       24.621 -30.022   7.963  0.00  0.00    +0.176 A 
ATOM      3  C   LIG    1       25.392 -28.763   7.773  0.00  0.00    +0.075 A 
ATOM      4  C   LIG    1       26.259 -28.375   8.847  0.00  0.00    +0.042 A 
ATOM      5  C   LIG    1       26.438 -29.088  10.020  0.00  0.00    +0.063 A 
ATOM      6  C   LIG    1       25.654 -30.197  10.233  0.00  0.00    +0.047 A 
ENDROOT
BRANCH   3   7
ATOM      7  N   LIG    1       25.385 -27.843   6.702  0.00  0.00    -0.327 N 
ATOM      8  C   LIG    1       25.881 -26.433   6.874  0.00  0.00    +0.105 C 
ATOM      9  C   LIG    1       25.662 -25.734   5.532  0.00  0.00    +0.020 C 
ATOM     10  C   LIG    1       25.878 -26.889   4.577  0.00  0.00    +0.020 C 
ATOM     11  C   LIG    1       25.093 -28.036   5.273  0.00  0.00    +0.105 C 
ENDBRANCH   3   7
BRANCH   1  12
ATOM     12  S   LIG    1       23.820 -32.001  10.148  0.00  0.00    +0.059 S 
ATOM     13  O   LIG    1       24.480 -33.311  10.033  0.00  0.00    -0.153 OA
ATOM     14  O   LIG    1       23.480 -31.576  11.449  0.00  0.00    -0.153 OA
BRANCH  12  15
ATOM     15  N   LIG    1       22.321 -31.930   9.330  0.00  0.00    -0.203 NA
ATOM     16  H   LIG    1       22.295 -32.178   8.346  0.00  0.00    +0.144 HD
ATOM     17  H   LIG    1       21.523 -32.298   9.867  0.00  0.00    +0.144 HD
ENDBRANCH  12  15
ENDBRANCH   1  12
BRANCH   5  18
ATOM     18  C   LIG    1       27.394 -28.619  11.051  0.00  0.00    +0.337 C 
ATOM     19  O   LIG    1       27.193 -27.608  11.715  0.00  0.00    -0.245 OA
BRANCH  18  20
ATOM     20  O   LIG    1       28.517 -29.357  11.169  0.00  0.00    -0.477 OA
ATOM     21  H   LIG    1       29.159 -29.337  10.433  0.00  0.00    +0.295 HD
ENDBRANCH  18  20
ENDBRANCH   5  18
BRANCH   2  22
ATOM     22  O   LIG    1       23.915 -30.440   6.802  0.00  0.00    -0.452 OA
BRANCH  22  23
ATOM     23  C   LIG    1       24.220 -31.532   6.009  0.00  0.00    +0.129 A 
ATOM     24  C   LIG    1       23.379 -32.645   5.913  0.00  0.00    +0.046 A 
ATOM     25  C   LIG    1       23.529 -33.583   4.860  0.00  0.00    +0.004 A 
ATOM     26  C   LIG    1       24.570 -33.456   3.951  0.00  0.00    +0.000 A 
ATOM     27  C   LIG    1       25.569 -32.554   4.262  0.00  0.00    +0.004 A 
ATOM     28  C   LIG    1       25.420 -31.681   5.361  0.00  0.00    +0.046 A 
ENDBRANCH  22  23
ENDBRANCH   2  22
TORSDOF 7
ENDMDL
MODEL 2
REMARK VINA RESULT:      -6.2      2.883      5.828
REMARK  Name = *****
REMARK                            x       y       z     vdW  Elec       q    Type
REMARK                         _______ _______ _______ _____ _____    ______ ____
ROOT
ATOM      1  C   LIG    1       24.985 -29.773   7.566  0.00  0.00    +0.150 A 
ATOM      2  C   LIG    1       25.403 -29.898   8.964  0.00  0.00    +0.176 A 
ATOM      3  C   LIG    1       26.251 -28.806   9.516  0.00  0.00    +0.075 A 
ATOM      4  C   LIG    1       26.487 -27.683   8.657  0.00  0.00    +0.042 A 
ATOM      5  C   LIG    1       25.974 -27.539   7.379  0.00  0.00    +0.063 A 
ATOM      6  C   LIG    1       25.273 -28.590   6.838  0.00  0.00    +0.047 A 
ENDROOT
BRANCH   3   7
ATOM      7  N   LIG    1       26.909 -28.704  10.761  0.00  0.00    -0.327 N 
ATOM      8  C   LIG    1       26.349 -27.867  11.879  0.00  0.00    +0.105 C 
ATOM      9  C   LIG    1       27.355 -27.955  13.026  0.00  0.00    +0.020 C 
ATOM     10  C   LIG    1       27.877 -29.363  12.834  0.00  0.00    +0.020 C 
ATOM     11  C   LIG    1       28.074 -29.428  11.294  0.00  0.00    +0.105 C 
ENDBRANCH   3   7
BRANCH   1  12
ATOM     12  S   LIG    1       24.255 -30.896   6.315  0.00  0.00    +0.059 S 
ATOM     13  O   LIG    1       25.273 -31.479   5.428  0.00  0.00    -0.153 OA
ATOM     14  O   LIG    1       23.359 -31.795   6.928  0.00  0.00    -0.153 OA
BRANCH  12  15
ATOM     15  N   LIG    1       23.204 -29.814   5.511  0.00  0.00    -0.203 NA
ATOM     16  H   LIG    1       22.204 -29.976   5.574  0.00  0.00    +0.144 HD
ATOM     17  H   LIG    1       23.465 -28.821   5.596  0.00  0.00    +0.144 HD
ENDBRANCH  12  15
ENDBRANCH   1  12
BRANCH   5  18
ATOM     18  C   LIG    1       26.245 -26.314   6.590  0.00  0.00    +0.337 C 
ATOM     19  O   LIG    1       25.830 -25.213   6.934  0.00  0.00    -0.245 OA
BRANCH  18  20
ATOM     20  O   LIG    1       26.936 -26.508   5.449  0.00  0.00    -0.477 OA
ATOM     21  H   LIG    1       27.106 -27.427   5.165  0.00  0.00    +0.295 HD
ENDBRANCH  18  20
ENDBRANCH   5  18
BRANCH   2  22
ATOM     22  O   LIG    1       25.067 -30.898   9.918  0.00  0.00    -0.452 OA
BRANCH  22  23
ATOM     23  C   LIG    1       24.361 -30.703  11.092  0.00  0.00    +0.129 A 
ATOM     24  C   LIG    1       24.730 -31.308  12.297  0.00  0.00    +0.046 A 
ATOM     25  C   LIG    1       24.219 -30.842  13.534  0.00  0.00    +0.004 A 
ATOM     26  C   LIG    1       23.274 -29.825  13.563  0.00  0.00    +0.000 A 
ATOM     27  C   LIG    1       22.686 -29.479  12.362  0.00  0.00    +0.004 A 
ATOM     28  C   LIG    1       23.174 -30.017  11.152  0.00  0.00    +0.046 A 
ENDBRANCH  22  23
ENDBRANCH   2  22
TORSDOF 7
ENDMDL
MODEL 3
REMARK VINA RESULT:      -6.0      7.185      9.775
REMARK  Name = *****
REMARK                            x       y       z     vdW  Elec       q    Type
REMARK                         _______ _______ _______ _____ _____    ______ ____
ROOT
ATOM      1  C   LIG    1       28.891 -21.317   7.720  0.00  0.00    +0.150 A 
ATOM      2  C   LIG    1       27.493 -21.705   7.516  0.00  0.00    +0.176 A 
ATOM      3  C   LIG    1       26.693 -20.875   6.574  0.00  0.00    +0.075 A 
ATOM      4  C   LIG    1       27.397 -19.842   5.874  0.00  0.00    +0.042 A 
ATOM      5  C   LIG    1       28.750 -19.578   5.998  0.00  0.00    +0.063 A 
ATOM      6  C   LIG    1       29.465 -20.281   6.938  0.00  0.00    +0.047 A 
ENDROOT
BRANCH   3   7
ATOM      7  N   LIG    1       25.314 -20.913   6.274  0.00  0.00    -0.327 N 
ATOM      8  C   LIG    1       24.278 -20.506   7.286  0.00  0.00    +0.105 C 
ATOM      9  C   LIG    1       22.919 -20.736   6.627  0.00  0.00    +0.020 C 
ATOM     10  C   LIG    1       23.253 -20.432   5.182  0.00  0.00    +0.020 C 
ATOM     11  C   LIG    1       24.613 -21.162   5.004  0.00  0.00    +0.105 C 
ENDBRANCH   3   7
BRANCH   1  12
ATOM     12  S   LIG    1       30.198 -21.730   8.935  0.00  0.00    +0.059 S 
ATOM     13  O   LIG    1       29.691 -22.558  10.040  0.00  0.00    -0.153 OA
ATOM     14  O   LIG    1       31.353 -22.197   8.273  0.00  0.00    -0.153 OA
BRANCH  12  15
ATOM     15  N   LIG    1       30.662 -20.161   9.430  0.00  0.00    -0.203 NA
ATOM     16  H   LIG    1       30.005 -19.399   9.296  0.00  0.00    +0.144 HD
ATOM     17  H   LIG    1       31.155 -20.125  10.333  0.00  0.00    +0.144 HD
ENDBRANCH  12  15
ENDBRANCH   1  12
BRANCH   5  18
ATOM     18  C   LIG    1       29.389 -18.511   5.193  0.00  0.00    +0.337 C 
ATOM     19  O   LIG    1       30.603 -18.335   5.189  0.00  0.00    -0.245 OA
BRANCH  18  20
ATOM     20  O   LIG    1       28.537 -17.722   4.507  0.00  0.00    -0.477 OA
ATOM     21  H   LIG    1       28.821 -16.811   4.298  0.00  0.00    +0.295 HD
ENDBRANCH  18  20
ENDBRANCH   5  18
BRANCH   2  22
ATOM     22  O   LIG    1       26.781 -22.815   8.047  0.00  0.00    -0.452 OA
BRANCH  22  23
ATOM     23  C   LIG    1       25.980 -23.689   7.333  0.00  0.00    +0.129 A 
ATOM     24  C   LIG    1       24.596 -23.756   7.518  0.00  0.00    +0.046 A 
ATOM     25  C   LIG    1       23.763 -24.393   6.563  0.00  0.00    +0.004 A 
ATOM     26  C   LIG    1       24.319 -25.036   5.466  0.00  0.00    +0.000 A 
ATOM     27  C   LIG    1       25.686 -25.241   5.484  0.00  0.00    +0.004 A 
ATOM     28  C   LIG    1       26.479 -24.650   6.491  0.00  0.00    +0.046 A 
ENDBRANCH  22  23
ENDBRANCH   2  22
TORSDOF 7
ENDMDL
MODEL 4
REMARK VINA RESULT:      -6.0      3.496      7.417
REMARK  Name = *****
REMARK                            x       y       z     vdW  Elec       q    Type
REMARK                         _______ _______ _______ _____ _____    ______ ____
ROOT
ATOM      1  C   LIG    1       25.129 -29.944   9.881  0.00  0.00    +0.150 A 
ATOM      2  C   LIG    1       24.013 -30.265  10.774  0.00  0.00    +0.176 A 
ATOM      3  C   LIG    1       22.871 -31.016  10.185  0.00  0.00    +0.075 A 
ATOM      4  C   LIG    1       23.021 -31.448   8.826  0.00  0.00    +0.042 A 
ATOM      5  C   LIG    1       24.144 -31.234   8.044  0.00  0.00    +0.063 A 
ATOM      6  C   LIG    1       25.155 -30.459   8.559  0.00  0.00    +0.047 A 
ENDROOT
BRANCH   3   7
ATOM      7  N   LIG    1       21.617 -31.351  10.741  0.00  0.00    -0.327 N 
ATOM      8  C   LIG    1       21.487 -32.406  11.806  0.00  0.00    +0.105 C 
ATOM      9  C   LIG    1       19.994 -32.529  12.109  0.00  0.00    +0.020 C 
ATOM     10  C   LIG    1       19.545 -31.101  11.887  0.00  0.00    +0.020 C 
ATOM     11  C   LIG    1       20.296 -30.725  10.579  0.00  0.00    +0.105 C 
ENDBRANCH   3   7
BRANCH   1  12
ATOM     12  S   LIG    1       26.575 -28.821   9.947  0.00  0.00    +0.059 S 
ATOM     13  O   LIG    1       26.462 -27.830  11.028  0.00  0.00    -0.153 OA
ATOM     14  O   LIG    1       27.773 -29.561   9.889  0.00  0.00    -0.153 OA
BRANCH  12  15
ATOM     15  N   LIG    1       26.492 -28.125   8.387  0.00  0.00    -0.203 NA
ATOM     16  H   LIG    1       26.302 -28.734   7.597  0.00  0.00    +0.144 HD
ATOM     17  H   LIG    1       25.990 -27.228   8.345  0.00  0.00    +0.144 HD
ENDBRANCH  12  15
ENDBRANCH   1  12
BRANCH   5  18
ATOM     18  C   LIG    1       24.213 -31.763   6.662  0.00  0.00    +0.337 C 
ATOM     19  O   LIG    1       25.027 -32.618   6.331  0.00  0.00    -0.245 OA
BRANCH  18  20
ATOM     20  O   LIG    1       23.352 -31.202   5.789  0.00  0.00    -0.477 OA
ATOM     21  H   LIG    1       23.535 -31.300   4.835  0.00  0.00    +0.295 HD
ENDBRANCH  18  20
ENDBRANCH   5  18
BRANCH   2  22
ATOM     22  O   LIG    1       23.874 -30.014  12.167  0.00  0.00    -0.452 OA
BRANCH  22  23
ATOM     23  C   LIG    1       23.413 -28.844  12.745  0.00  0.00    +0.129 A 
ATOM     24  C   LIG    1       24.265 -27.938  13.381  0.00  0.00    +0.046 A 
ATOM     25  C   LIG    1       23.844 -26.613  13.660  0.00  0.00    +0.004 A 
ATOM     26  C   LIG    1       22.544 -26.217  13.378  0.00  0.00    +0.000 A 
ATOM     27  C   LIG    1       21.638 -27.212  13.064  0.00  0.00    +0.004 A 
ATOM     28  C   LIG    1       22.081 -28.537  12.863  0.00  0.00    +0.046 A 
ENDBRANCH  22  23
ENDBRANCH   2  22
TORSDOF 7
ENDMDL
MODEL 5
REMARK VINA RESULT:      -5.9      2.889      5.579
REMARK  Name = *****
REMARK                            x       y       z     vdW  Elec       q    Type
REMARK                         _______ _______ _______ _____ _____    ______ ____
ROOT
ATOM      1  C   LIG    1       24.888 -29.883   7.583  0.00  0.00    +0.150 A 
ATOM      2  C   LIG    1       25.187 -30.029   9.010  0.00  0.00    +0.176 A 
ATOM      3  C   LIG    1       26.031 -28.973   9.635  0.00  0.00    +0.075 A 
ATOM      4  C   LIG    1       26.380 -27.859   8.805  0.00  0.00    +0.042 A 
ATOM      5  C   LIG    1       25.978 -27.690   7.490  0.00  0.00    +0.063 A 
ATOM      6  C   LIG    1       25.281 -28.711   6.888  0.00  0.00    +0.047 A 
ENDROOT
BRANCH   3   7
ATOM      7  N   LIG    1       26.589 -28.902  10.929  0.00  0.00    -0.327 N 
ATOM      8  C   LIG    1       27.950 -29.469  11.230  0.00  0.00    +0.105 C 
ATOM      9  C   LIG    1       28.182 -29.260  12.726  0.00  0.00    +0.020 C 
ATOM     10  C   LIG    1       27.436 -27.961  12.946  0.00  0.00    +0.020 C 
ATOM     11  C   LIG    1       26.131 -28.196  12.136  0.00  0.00    +0.105 C 
ENDBRANCH   3   7
BRANCH   1  12
ATOM     12  S   LIG    1       24.217 -30.972   6.271  0.00  0.00    +0.059 S 
ATOM     13  O   LIG    1       25.272 -31.510   5.399  0.00  0.00    -0.153 OA
ATOM     14  O   LIG    1       23.314 -31.904   6.822  0.00  0.00    -0.153 OA
BRANCH  12  15
ATOM     15  N   LIG    1       23.177 -29.877   5.469  0.00  0.00    -0.203 NA
ATOM     16  H   LIG    1       23.328 -28.882   5.603  0.00  0.00    +0.144 HD
ATOM     17  H   LIG    1       22.956 -30.131   4.496  0.00  0.00    +0.144 HD
ENDBRANCH  12  15
ENDBRANCH   1  12
BRANCH   5  18
ATOM     18  C   LIG    1       26.360 -26.475   6.733  0.00  0.00    +0.337 C 
ATOM     19  O   LIG    1       25.901 -25.370   7.000  0.00  0.00    -0.245 OA
BRANCH  18  20
ATOM     20  O   LIG    1       27.208 -26.683   5.705  0.00  0.00    -0.477 OA
ATOM     21  H   LIG    1       27.610 -27.568   5.613  0.00  0.00    +0.295 HD
ENDBRANCH  18  20
ENDBRANCH   5  18
BRANCH   2  22
ATOM     22  O   LIG    1       24.735 -31.017   9.928  0.00  0.00    -0.452 OA
BRANCH  22  23
ATOM     23  C   LIG    1       23.616 -30.930  10.737  0.00  0.00    +0.129 A 
ATOM     24  C   LIG    1       22.366 -30.541  10.245  0.00  0.00    +0.046 A 
ATOM     25  C   LIG    1       21.183 -30.781  10.989  0.00  0.00    +0.004 A 
ATOM     26  C   LIG    1       21.255 -31.334  12.260  0.00  0.00    +0.000 A 
ATOM     27  C   LIG    1       22.503 -31.398  12.848  0.00  0.00    +0.004 A 
ATOM     28  C   LIG    1       23.657 -31.083  12.099  0.00  0.00    +0.046 A 
ENDBRANCH  22  23
ENDBRANCH   2  22
TORSDOF 7
ENDMDL
MODEL 6
REMARK VINA RESULT:      -5.7      8.155     11.230
REMARK  Name = *****
REMARK                            x       y       z     vdW  Elec       q    Type
REMARK                         _______ _______ _______ _____ _____    ______ ____
ROOT
ATOM      1  C   LIG    1       25.530 -19.996   4.604  0.00  0.00    +0.150 A 
ATOM      2  C   LIG    1       26.538 -20.502   5.539  0.00  0.00    +0.176 A 
ATOM      3  C   LIG    1       27.775 -19.690   5.704  0.00  0.00    +0.075 A 
ATOM      4  C   LIG    1       27.812 -18.434   5.014  0.00  0.00    +0.042 A 
ATOM      5  C   LIG    1       26.788 -17.926   4.233  0.00  0.00    +0.063 A 
ATOM      6  C   LIG    1       25.690 -18.720   4.005  0.00  0.00    +0.047 A 
ENDROOT
BRANCH   3   7
ATOM      7  N   LIG    1       28.961 -19.972   6.415  0.00  0.00    -0.327 N 
ATOM      8  C   LIG    1       30.070 -18.961   6.525  0.00  0.00    +0.105 C 
ATOM      9  C   LIG    1       31.196 -19.640   7.304  0.00  0.00    +0.020 C 
ATOM     10  C   LIG    1       30.396 -20.531   8.230  0.00  0.00    +0.020 C 
ATOM     11  C   LIG    1       29.320 -21.113   7.272  0.00  0.00    +0.105 C 
ENDBRANCH   3   7
BRANCH   1  12
ATOM     12  S   LIG    1       24.043 -20.686   3.786  0.00  0.00    +0.059 S 
ATOM     13  O   LIG    1       22.813 -20.420   4.548  0.00  0.00    -0.153 OA
ATOM     14  O   LIG    1       24.029 -20.337   2.420  0.00  0.00    -0.153 OA
BRANCH  12  15
ATOM     15  N   LIG    1       24.460 -22.343   3.742  0.00  0.00    -0.203 NA
ATOM     16  H   LIG    1       24.059 -22.923   3.011  0.00  0.00    +0.144 HD
ATOM     17  H   LIG    1       25.455 -22.539   3.922  0.00  0.00    +0.144 HD
ENDBRANCH  12  15
ENDBRANCH   1  12
BRANCH   5  18
ATOM     18  C   LIG    1       26.913 -16.593   3.597  0.00  0.00    +0.337 C 
ATOM     19  O   LIG    1       26.105 -16.188   2.768  0.00  0.00    -0.245 OA
BRANCH  18  20
ATOM     20  O   LIG    1       28.000 -15.884   3.961  0.00  0.00    -0.477 OA
ATOM     21  H   LIG    1       28.576 -16.251   4.659  0.00  0.00    +0.295 HD
ENDBRANCH  18  20
ENDBRANCH   5  18
BRANCH   2  22
ATOM     22  O   LIG    1       26.492 -21.649   6.378  0.00  0.00    -0.452 OA
BRANCH  22  23
ATOM     23  C   LIG    1       25.359 -22.368   6.718  0.00  0.00    +0.129 A 
ATOM     24  C   LIG    1       24.249 -21.772   7.324  0.00  0.00    +0.046 A 
ATOM     25  C   LIG    1       22.993 -22.429   7.353  0.00  0.00    +0.004 A 
ATOM     26  C   LIG    1       22.864 -23.716   6.850  0.00  0.00    +0.000 A 
ATOM     27  C   LIG    1       24.031 -24.400   6.566  0.00  0.00    +0.004 A 
ATOM     28  C   LIG    1       25.273 -23.733   6.616  0.00  0.00    +0.046 A 
ENDBRANCH  22  23
ENDBRANCH   2  22
TORSDOF 7
ENDMDL
MODEL 7
REMARK VINA RESULT:      -5.7      3.543      5.708
REMARK  Name = *****
REMARK                            x       y       z     vdW  Elec       q    Type
REMARK                         _______ _______ _______ _____ _____    ______ ____
ROOT
ATOM      1  C   LIG    1       25.995 -28.931  11.534  0.00  0.00    +0.150 A 
ATOM      2  C   LIG    1       24.604 -29.231  11.880  0.00  0.00    +0.176 A 
ATOM      3  C   LIG    1       23.937 -28.319  12.850  0.00  0.00    +0.075 A 
ATOM      4  C   LIG    1       24.687 -27.172  13.268  0.00  0.00    +0.042 A 
ATOM      5  C   LIG    1       25.960 -26.850  12.827  0.00  0.00    +0.063 A 
ATOM      6  C   LIG    1       26.608 -27.743  12.007  0.00  0.00    +0.047 A 
ENDROOT
BRANCH   3   7
ATOM      7  N   LIG    1       22.673 -28.416  13.470  0.00  0.00    -0.327 N 
ATOM      8  C   LIG    1       21.504 -27.593  13.004  0.00  0.00    +0.105 C 
ATOM      9  C   LIG    1       20.344 -27.922  13.943  0.00  0.00    +0.020 C 
ATOM     10  C   LIG    1       20.639 -29.374  14.253  0.00  0.00    +0.020 C 
ATOM     11  C   LIG    1       22.174 -29.349  14.493  0.00  0.00    +0.105 C 
ENDBRANCH   3   7
BRANCH   1  12
ATOM     12  S   LIG    1       27.358 -29.830  10.702  0.00  0.00    +0.059 S 
ATOM     13  O   LIG    1       28.657 -29.600  11.352  0.00  0.00    -0.153 OA
ATOM     14  O   LIG    1       26.992 -31.173  10.476  0.00  0.00    -0.153 OA
BRANCH  12  15
ATOM     15  N   LIG    1       27.260 -29.151   9.136  0.00  0.00    -0.203 NA
ATOM     16  H   LIG    1       26.522 -29.470   8.517  0.00  0.00    +0.144 HD
ATOM     17  H   LIG    1       27.415 -28.134   9.101  0.00  0.00    +0.144 HD
ENDBRANCH  12  15
ENDBRANCH   1  12
BRANCH   5  18
ATOM     18  C   LIG    1       26.630 -25.613  13.291  0.00  0.00    +0.337 C 
ATOM     19  O   LIG    1       26.050 -24.533  13.332  0.00  0.00    -0.245 OA
BRANCH  18  20
ATOM     20  O   LIG    1       27.931 -25.753  13.617  0.00  0.00    -0.477 OA
ATOM     21  H   LIG    1       28.381 -25.000  14.046  0.00  0.00    +0.295 HD
ENDBRANCH  18  20
ENDBRANCH   5  18
BRANCH   2  22
ATOM     22  O   LIG    1       23.751 -30.251  11.376  0.00  0.00    -0.452 OA
BRANCH  22  23
ATOM     23  C   LIG    1       23.791 -30.795  10.104  0.00  0.00    +0.129 A 
ATOM     24  C   LIG    1       23.799 -30.004   8.952  0.00  0.00    +0.046 A 
ATOM     25  C   LIG    1       24.179 -30.545   7.698  0.00  0.00    +0.004 A 
ATOM     26  C   LIG    1       24.470 -31.896   7.577  0.00  0.00    +0.000 A 
ATOM     27  C   LIG    1       24.135 -32.709   8.643  0.00  0.00    +0.004 A 
ATOM     28  C   LIG    1       23.692 -32.141   9.856  0.00  0.00    +0.046 A 
ENDBRANCH  22  23
ENDBRANCH   2  22
TORSDOF 7
ENDMDL
MODEL 8
REMARK VINA RESULT:      -5.6      4.184      6.436
REMARK  Name = *****
REMARK                            x       y       z     vdW  Elec       q    Type
REMARK                         _______ _______ _______ _____ _____    ______ ____
ROOT
ATOM      1  C   LIG    1       26.997 -28.283  13.411  0.00  0.00    +0.150 A 
ATOM      2  C   LIG    1       25.595 -28.599  13.126  0.00  0.00    +0.176 A 
ATOM      3  C   LIG    1       24.587 -27.554  13.452  0.00  0.00    +0.075 A 
ATOM      4  C   LIG    1       25.095 -26.296  13.913  0.00  0.00    +0.042 A 
ATOM      5  C   LIG    1       26.438 -25.985  14.055  0.00  0.00    +0.063 A 
ATOM      6  C   LIG    1       27.360 -26.982  13.846  0.00  0.00    +0.047 A 
ENDROOT
BRANCH   3   7
ATOM      7  N   LIG    1       23.177 -27.607  13.418  0.00  0.00    -0.327 N 
ATOM      8  C   LIG    1       22.349 -26.370  13.195  0.00  0.00    +0.105 C 
ATOM      9  C   LIG    1       20.888 -26.809  13.284  0.00  0.00    +0.020 C 
ATOM     10  C   LIG    1       20.982 -28.211  12.721  0.00  0.00    +0.020 C 
ATOM     11  C   LIG    1       22.258 -28.756  13.420  0.00  0.00    +0.105 C 
ENDBRANCH   3   7
BRANCH   1  12
ATOM     12  S   LIG    1       28.556 -29.239  13.523  0.00  0.00    +0.059 S 
ATOM     13  O   LIG    1       29.515 -28.634  14.461  0.00  0.00    -0.153 OA
ATOM     14  O   LIG    1       28.278 -30.610  13.699  0.00  0.00    -0.153 OA
BRANCH  12  15
ATOM     15  N   LIG    1       29.074 -29.170  11.896  0.00  0.00    -0.203 NA
ATOM     16  H   LIG    1       28.996 -28.287  11.401  0.00  0.00    +0.144 HD
ATOM     17  H   LIG    1       29.953 -29.672  11.705  0.00  0.00    +0.144 HD
ENDBRANCH  12  15
ENDBRANCH   1  12
BRANCH   5  18
ATOM     18  C   LIG    1       26.858 -24.635  14.499  0.00  0.00    +0.337 C 
ATOM     19  O   LIG    1       27.955 -24.168  14.213  0.00  0.00    -0.245 OA
BRANCH  18  20
ATOM     20  O   LIG    1       25.968 -23.984  15.275  0.00  0.00    -0.477 OA
ATOM     21  H   LIG    1       25.018 -24.155  15.128  0.00  0.00    +0.295 HD
ENDBRANCH  18  20
ENDBRANCH   5  18
BRANCH   2  22
ATOM     22  O   LIG    1       25.040 -29.758  12.517  0.00  0.00    -0.452 OA
BRANCH  22  23
ATOM     23  C   LIG    1       24.867 -29.964  11.159  0.00  0.00    +0.129 A 
ATOM     24  C   LIG    1       23.739 -30.603  10.637  0.00  0.00    +0.046 A 
ATOM     25  C   LIG    1       23.416 -30.504   9.260  0.00  0.00    +0.004 A 
ATOM     26  C   LIG    1       24.265 -29.837   8.388  0.00  0.00    +0.000 A 
ATOM     27  C   LIG    1       25.521 -29.509   8.861  0.00  0.00    +0.004 A 
ATOM     28  C   LIG    1       25.834 -29.686  10.226  0.00  0.00    +0.046 A 
ENDBRANCH  22  23
ENDBRANCH   2  22
TORSDOF 7
ENDMDL
MODEL 9
REMARK VINA RESULT:      -5.6      5.021      8.120
REMARK  Name = *****
REMARK                            x       y       z     vdW  Elec       q    Type
REMARK                         _______ _______ _______ _____ _____    ______ ____
ROOT
ATOM      1  C   LIG    1       25.567 -27.474  13.155  0.00  0.00    +0.150 A 
ATOM      2  C   LIG    1       24.318 -28.204  13.390  0.00  0.00    +0.176 A 
ATOM      3  C   LIG    1       23.986 -29.298  12.437  0.00  0.00    +0.075 A 
ATOM      4  C   LIG    1       24.974 -29.604  11.444  0.00  0.00    +0.042 A 
ATOM      5  C   LIG    1       26.201 -28.974  11.324  0.00  0.00    +0.063 A 
ATOM      6  C   LIG    1       26.464 -27.902  12.143  0.00  0.00    +0.047 A 
ENDROOT
BRANCH   3   7
ATOM      7  N   LIG    1       22.817 -30.081  12.321  0.00  0.00    -0.327 N 
ATOM      8  C   LIG    1       22.557 -31.246  13.237  0.00  0.00    +0.105 C 
ATOM      9  C   LIG    1       21.244 -31.874  12.772  0.00  0.00    +0.020 C 
ATOM     10  C   LIG    1       20.505 -30.646  12.282  0.00  0.00    +0.020 C 
ATOM     11  C   LIG    1       21.613 -29.892  11.496  0.00  0.00    +0.105 C 
ENDBRANCH   3   7
BRANCH   1  12
ATOM     12  S   LIG    1       26.298 -25.906  13.760  0.00  0.00    +0.059 S 
ATOM     13  O   LIG    1       26.219 -24.831  12.759  0.00  0.00    -0.153 OA
ATOM     14  O   LIG    1       25.814 -25.606  15.050  0.00  0.00    -0.153 OA
BRANCH  12  15
ATOM     15  N   LIG    1       27.899 -26.417  14.073  0.00  0.00    -0.203 NA
ATOM     16  H   LIG    1       28.546 -25.753  14.485  0.00  0.00    +0.144 HD
ATOM     17  H   LIG    1       27.975 -27.365  14.469  0.00  0.00    +0.144 HD
ENDBRANCH  12  15
ENDBRANCH   1  12
BRANCH   5  18
ATOM     18  C   LIG    1       27.170 -29.399  10.286  0.00  0.00    +0.337 C 
ATOM     19  O   LIG    1       27.997 -30.281  10.489  0.00  0.00    -0.245 OA
BRANCH  18  20
ATOM     20  O   LIG    1       27.105 -28.713   9.127  0.00  0.00    -0.477 OA
ATOM     21  H   LIG    1       27.528 -27.834   9.089  0.00  0.00    +0.295 HD
ENDBRANCH  18  20
ENDBRANCH   5  18
BRANCH   2  22
ATOM     22  O   LIG    1       23.380 -28.064  14.449  0.00  0.00    -0.452 OA
BRANCH  22  23
ATOM     23  C   LIG    1       22.140 -27.454  14.367  0.00  0.00    +0.129 A 
ATOM     24  C   LIG    1       21.724 -26.756  13.229  0.00  0.00    +0.046 A 
ATOM     25  C   LIG    1       20.357 -26.438  13.029  0.00  0.00    +0.004 A 
ATOM     26  C   LIG    1       19.416 -26.742  14.003  0.00  0.00    +0.000 A 
ATOM     27  C   LIG    1       19.895 -27.122  15.242  0.00  0.00    +0.004 A 
ATOM     28  C   LIG    1       21.273 -27.362  15.426  0.00  0.00    +0.046 A 
ENDBRANCH  22  23
ENDBRANCH   2  22
TORSDOF 7
ENDMDL
