MODEL 1
REMARK VINA RESULT:      -5.1      0.000      0.000
REMARK  Name = *****
REMARK                            x       y       z     vdW  Elec       q    Type
REMARK                         _______ _______ _______ _____ _____    ______ ____
ROOT
ATOM      1  C   LIG    1       20.984 -29.808  13.057  0.00  0.00    +0.220 A 
ATOM      2  N   LIG    1       20.273 -30.576  12.224  0.00  0.00    -0.197 NA
ATOM      3  C   LIG    1       20.803 -30.978  11.052  0.00  0.00    +0.153 A 
ATOM      4  C   LIG    1       22.119 -30.632  10.674  0.00  0.00    +0.136 A 
ATOM      5  N   LIG    1       22.686 -31.023   9.509  0.00  0.00    -0.209 NA
ATOM      6  C   LIG    1       23.944 -30.686   9.213  0.00  0.00    +0.220 A 
ATOM      7  N   LIG    1       24.691 -29.989  10.075  0.00  0.00    -0.197 NA
ATOM      8  C   LIG    1       24.148 -29.572  11.244  0.00  0.00    +0.153 A 
ATOM      9  C   LIG    1       22.812 -29.858  11.620  0.00  0.00    +0.136 A 
ATOM     10  N   LIG    1       22.235 -29.441  12.769  0.00  0.00    -0.209 NA
ENDROOT
BRANCH   3  11
ATOM     11  N   LIG    1       19.897 -31.730  10.267  0.00  0.00    -0.313 N 
ATOM     12  C   LIG    1       18.586 -31.069  10.130  0.00  0.00    +0.106 C 
ATOM     13  C   LIG    1       17.697 -31.715   9.056  0.00  0.00    +0.019 C 
ATOM     14  C   LIG    1       17.724 -33.238   9.051  0.00  0.00    +0.003 C 
ATOM     15  C   LIG    1       19.162 -33.732   9.098  0.00  0.00    +0.019 C 
ATOM     16  C   LIG    1       19.871 -33.183  10.340  0.00  0.00    +0.106 C 
ENDBRANCH   3  11
BRANCH   8  17
ATOM     17  N   LIG    1       25.007 -28.822  12.125  0.00  0.00    -0.313 N 
ATOM     18  C   LIG    1       26.140 -28.229  11.386  0.00  0.00    +0.106 C 
ATOM     19  C   LIG    1       27.010 -27.370  12.318  0.00  0.00    +0.019 C 
ATOM     20  C   LIG    1       27.458 -28.136  13.559  0.00  0.00    +0.003 C 
ATOM     21  C   LIG    1       26.246 -28.737  14.262  0.00  0.00    +0.019 C 
ATOM     22  C   LIG    1       25.436 -29.612  13.301  0.00  0.00    +0.106 C 
ENDBRANCH   8  17
BRANCH   6  23
ATOM     23  N   LIG    1       24.498 -31.087   7.983  0.00  0.00    -0.295 N 
BRANCH  23  24
ATOM     24  C   LIG    1       25.159 -30.005   7.233  0.00  0.00    +0.136 C 
BRANCH  24  25
ATOM     25  C   LIG    1       24.409 -29.631   5.946  0.00  0.00    +0.175 C 
BRANCH  25  26
ATOM     26  O   LIG    1       23.299 -30.507   5.739  0.00  0.00    -0.394 OA
ATOM     27  H   LIG    1       23.033 -30.872   6.601  0.00  0.00    +0.209 HD
ENDBRANCH  25  26
ENDBRANCH  24  25
ENDBRANCH  23  24
BRANCH  23  28
ATOM     28  C   LIG    1       25.278 -32.343   8.080  0.00  0.00    +0.136 C 
BRANCH  28  29
ATOM     29  C   LIG    1       26.786 -32.079   8.159  0.00  0.00    +0.175 C 
BRANCH  29  30
ATOM     30  O   LIG    1       27.184 -31.872   9.514  0.00  0.00    -0.394 OA
ATOM     31  H   LIG    1       26.615 -31.149   9.839  0.00  0.00    +0.209 HD
ENDBRANCH  29  30
ENDBRANCH  28  29
ENDBRANCH  23  28
ENDBRANCH   6  23
BRANCH   1  32
ATOM     32  N   LIG    1       20.358 -29.338  14.186  0.00  0.00    -0.295 N 
BRANCH  32  33
ATOM     33  C   LIG    1       19.450 -30.211  14.944  0.00  0.00    +0.136 C 
BRANCH  33  34
ATOM     34  C   LIG    1       17.982 -29.777  14.833  0.00  0.00    +0.175 C 
BRANCH  34  35
ATOM     35  O   LIG    1       17.583 -29.534  13.487  0.00  0.00    -0.394 OA
ATOM     36  H   LIG    1       16.943 -30.237  13.257  0.00  0.00    +0.209 HD
ENDBRANCH  34  35
ENDBRANCH  33  34
ENDBRANCH  32  33
BRANCH  32  37
ATOM     37  C   LIG    1       20.519 -27.934  14.551  0.00  0.00    +0.136 C 
BRANCH  37  38
ATOM     38  C   LIG    1       20.085 -26.989  13.418  0.00  0.00    +0.175 C 
BRANCH  38  39
ATOM     39  O   LIG    1       18.711 -26.640  13.563  0.00  0.00    -0.394 OA
ATOM     40  H   LIG    1       18.207 -27.243  12.988  0.00  0.00    +0.209 HD
ENDBRANCH  38  39
ENDBRANCH  37  38
ENDBRANCH  32  37
ENDBRANCH   1  32
TORSDOF 16
ENDMDL
MODEL 2
REMARK VINA RESULT:      -5.0      1.564      6.554
REMARK  Name = *****
REMARK                            x       y       z     vdW  Elec       q    Type
REMARK                         _______ _______ _______ _____ _____    ______ ____
ROOT
ATOM      1  C   LIG    1       23.383 -30.125  10.024  0.00  0.00    +0.220 A 
ATOM      2  N   LIG    1       22.240 -30.807   9.890  0.00  0.00    -0.197 NA
ATOM      3  C   LIG    1       21.281 -30.717  10.834  0.00  0.00    +0.153 A 
ATOM      4  C   LIG    1       21.431 -29.891  11.970  0.00  0.00    +0.136 A 
ATOM      5  N   LIG    1       20.488 -29.771  12.933  0.00  0.00    -0.209 NA
ATOM      6  C   LIG    1       20.674 -28.956  13.975  0.00  0.00    +0.220 A 
ATOM      7  N   LIG    1       21.777 -28.207  14.075  0.00  0.00    -0.197 NA
ATOM      8  C   LIG    1       22.745 -28.315  13.134  0.00  0.00    +0.153 A 
ATOM      9  C   LIG    1       22.642 -29.179  12.015  0.00  0.00    +0.136 A 
ATOM     10  N   LIG    1       23.597 -29.323  11.070  0.00  0.00    -0.209 NA
ENDROOT
BRANCH   3  11
ATOM     11  N   LIG    1       20.167 -31.547  10.568  0.00  0.00    -0.313 N 
ATOM     12  C   LIG    1       20.544 -32.789   9.867  0.00  0.00    +0.106 C 
ATOM     13  C   LIG    1       19.410 -33.825   9.830  0.00  0.00    +0.019 C 
ATOM     14  C   LIG    1       18.033 -33.241   9.540  0.00  0.00    +0.003 C 
ATOM     15  C   LIG    1       17.788 -32.028  10.427  0.00  0.00    +0.019 C 
ATOM     16  C   LIG    1       18.879 -30.977  10.202  0.00  0.00    +0.106 C 
ENDBRANCH   3  11
BRANCH   8  17
ATOM     17  N   LIG    1       23.909 -27.482  13.305  0.00  0.00    -0.313 N 
ATOM     18  C   LIG    1       24.873 -28.100  14.239  0.00  0.00    +0.106 C 
ATOM     19  C   LIG    1       26.143 -27.242  14.358  0.00  0.00    +0.019 C 
ATOM     20  C   LIG    1       25.830 -25.792  14.715  0.00  0.00    +0.003 C 
ATOM     21  C   LIG    1       24.819 -25.223  13.727  0.00  0.00    +0.019 C 
ATOM     22  C   LIG    1       23.559 -26.092  13.674  0.00  0.00    +0.106 C 
ENDBRANCH   8  17
BRANCH   6  23
ATOM     23  N   LIG    1       19.685 -28.870  14.972  0.00  0.00    -0.295 N 
BRANCH  23  24
ATOM     24  C   LIG    1       19.194 -27.504  15.224  0.00  0.00    +0.136 C 
BRANCH  24  25
ATOM     25  C   LIG    1       19.076 -26.669  13.941  0.00  0.00    +0.175 C 
BRANCH  25  26
ATOM     26  O   LIG    1       18.055 -25.678  14.079  0.00  0.00    -0.394 OA
ATOM     27  H   LIG    1       17.551 -25.640  13.247  0.00  0.00    +0.209 HD
ENDBRANCH  25  26
ENDBRANCH  24  25
ENDBRANCH  23  24
BRANCH  23  28
ATOM     28  C   LIG    1       18.625 -29.895  14.830  0.00  0.00    +0.136 C 
BRANCH  28  29
ATOM     29  C   LIG    1       17.240 -29.267  14.636  0.00  0.00    +0.175 C 
BRANCH  29  30
ATOM     30  O   LIG    1       16.789 -29.463  13.295  0.00  0.00    -0.394 OA
ATOM     31  H   LIG    1       15.842 -29.228  13.308  0.00  0.00    +0.209 HD
ENDBRANCH  29  30
ENDBRANCH  28  29
ENDBRANCH  23  28
ENDBRANCH   6  23
BRANCH   1  32
ATOM     32  N   LIG    1       24.368 -30.337   9.090  0.00  0.00    -0.295 N 
BRANCH  32  33
ATOM     33  C   LIG    1       25.706 -29.761   9.288  0.00  0.00    +0.136 C 
BRANCH  33  34
ATOM     34  C   LIG    1       26.743 -30.807   9.719  0.00  0.00    +0.175 C 
BRANCH  34  35
ATOM     35  O   LIG    1       27.795 -30.247  10.499  0.00  0.00    -0.394 OA
ATOM     36  H   LIG    1       28.086 -30.947  11.116  0.00  0.00    +0.209 HD
ENDBRANCH  34  35
ENDBRANCH  33  34
ENDBRANCH  32  33
BRANCH  32  37
ATOM     37  C   LIG    1       24.033 -31.038   7.856  0.00  0.00    +0.136 C 
BRANCH  37  38
ATOM     38  C   LIG    1       24.396 -30.217   6.607  0.00  0.00    +0.175 C 
BRANCH  38  39
ATOM     39  O   LIG    1       23.264 -30.092   5.751  0.00  0.00    -0.394 OA
ATOM     40  H   LIG    1       23.590 -30.186   4.839  0.00  0.00    +0.209 HD
ENDBRANCH  38  39
ENDBRANCH  37  38
ENDBRANCH  32  37
ENDBRANCH   1  32
TORSDOF 16
ENDMDL
MODEL 3
REMARK VINA RESULT:      -5.0      0.638      2.140
REMARK  Name = *****
REMARK                            x       y       z     vdW  Elec       q    Type
REMARK                         _______ _______ _______ _____ _____    ______ ____
ROOT
ATOM      1  C   LIG    1       20.962 -29.686  12.982  0.00  0.00    +0.220 A 
ATOM      2  N   LIG    1       20.286 -30.495  12.159  0.00  0.00    -0.197 NA
ATOM      3  C   LIG    1       20.870 -30.967  11.039  0.00  0.00    +0.153 A 
ATOM      4  C   LIG    1       22.206 -30.653  10.709  0.00  0.00    +0.136 A 
ATOM      5  N   LIG    1       22.827 -31.113   9.598  0.00  0.00    -0.209 NA
ATOM      6  C   LIG    1       24.101 -30.803   9.347  0.00  0.00    +0.220 A 
ATOM      7  N   LIG    1       24.811 -30.063  10.205  0.00  0.00    -0.197 NA
ATOM      8  C   LIG    1       24.215 -29.576  11.320  0.00  0.00    +0.153 A 
ATOM      9  C   LIG    1       22.859 -29.831  11.644  0.00  0.00    +0.136 A 
ATOM     10  N   LIG    1       22.230 -29.345  12.736  0.00  0.00    -0.209 NA
ENDROOT
BRANCH   3  11
ATOM     11  N   LIG    1       19.997 -31.756  10.253  0.00  0.00    -0.313 N 
ATOM     12  C   LIG    1       18.652 -31.161  10.134  0.00  0.00    +0.106 C 
ATOM     13  C   LIG    1       17.789 -31.840   9.061  0.00  0.00    +0.019 C 
ATOM     14  C   LIG    1       17.893 -33.360   9.039  0.00  0.00    +0.003 C 
ATOM     15  C   LIG    1       19.355 -33.780   9.069  0.00  0.00    +0.019 C 
ATOM     16  C   LIG    1       20.045 -33.209  10.311  0.00  0.00    +0.106 C 
ENDBRANCH   3  11
BRANCH   8  17
ATOM     17  N   LIG    1       25.036 -28.783  12.199  0.00  0.00    -0.313 N 
ATOM     18  C   LIG    1       26.149 -28.150  11.462  0.00  0.00    +0.106 C 
ATOM     19  C   LIG    1       26.976 -27.248  12.391  0.00  0.00    +0.019 C 
ATOM     20  C   LIG    1       27.448 -27.984  13.642  0.00  0.00    +0.003 C 
ATOM     21  C   LIG    1       26.257 -28.627  14.343  0.00  0.00    +0.019 C 
ATOM     22  C   LIG    1       25.490 -29.544  13.385  0.00  0.00    +0.106 C 
ENDBRANCH   8  17
BRANCH   6  23
ATOM     23  N   LIG    1       24.712 -31.278   8.172  0.00  0.00    -0.295 N 
BRANCH  23  24
ATOM     24  C   LIG    1       25.331 -32.608   8.304  0.00  0.00    +0.136 C 
BRANCH  24  25
ATOM     25  C   LIG    1       26.128 -33.019   7.057  0.00  0.00    +0.175 C 
BRANCH  25  26
ATOM     26  O   LIG    1       27.265 -32.171   6.886  0.00  0.00    -0.394 OA
ATOM     27  H   LIG    1       27.905 -32.372   7.591  0.00  0.00    +0.209 HD
ENDBRANCH  25  26
ENDBRANCH  24  25
ENDBRANCH  23  24
BRANCH  23  28
ATOM     28  C   LIG    1       23.870 -31.100   6.966  0.00  0.00    +0.136 C 
BRANCH  28  29
ATOM     29  C   LIG    1       24.244 -29.837   6.184  0.00  0.00    +0.175 C 
BRANCH  29  30
ATOM     30  O   LIG    1       23.162 -29.434   5.343  0.00  0.00    -0.394 OA
ATOM     31  H   LIG    1       23.149 -28.460   5.394  0.00  0.00    +0.209 HD
ENDBRANCH  29  30
ENDBRANCH  28  29
ENDBRANCH  23  28
ENDBRANCH   6  23
BRANCH   1  32
ATOM     32  N   LIG    1       20.286 -29.147  14.049  0.00  0.00    -0.295 N 
BRANCH  32  33
ATOM     33  C   LIG    1       20.510 -27.746  14.432  0.00  0.00    +0.136 C 
BRANCH  33  34
ATOM     34  C   LIG    1       19.966 -26.755  13.394  0.00  0.00    +0.175 C 
BRANCH  34  35
ATOM     35  O   LIG    1       18.579 -26.484  13.568  0.00  0.00    -0.394 OA
ATOM     36  H   LIG    1       18.520 -25.688  14.132  0.00  0.00    +0.209 HD
ENDBRANCH  34  35
ENDBRANCH  33  34
ENDBRANCH  32  33
BRANCH  32  37
ATOM     37  C   LIG    1       19.438 -30.015  14.860  0.00  0.00    +0.136 C 
BRANCH  37  38
ATOM     38  C   LIG    1       17.958 -29.600  14.797  0.00  0.00    +0.175 C 
BRANCH  38  39
ATOM     39  O   LIG    1       17.541 -29.460  13.441  0.00  0.00    -0.394 OA
ATOM     40  H   LIG    1       16.571 -29.542  13.436  0.00  0.00    +0.209 HD
ENDBRANCH  38  39
ENDBRANCH  37  38
ENDBRANCH  32  37
ENDBRANCH   1  32
TORSDOF 16
ENDMDL
MODEL 4
REMARK VINA RESULT:      -4.9      1.210      8.242
REMARK  Name = *****
REMARK                            x       y       z     vdW  Elec       q    Type
REMARK                         _______ _______ _______ _____ _____    ______ ____
ROOT
ATOM      1  C   LIG    1       24.004 -30.780   9.215  0.00  0.00    +0.220 A 
ATOM      2  N   LIG    1       24.752 -30.141  10.121  0.00  0.00    -0.197 NA
ATOM      3  C   LIG    1       24.197 -29.689  11.263  0.00  0.00    +0.153 A 
ATOM      4  C   LIG    1       22.830 -29.891  11.555  0.00  0.00    +0.136 A 
ATOM      5  N   LIG    1       22.240 -29.457  12.694  0.00  0.00    -0.209 NA
ATOM      6  C   LIG    1       20.948 -29.697  12.929  0.00  0.00    +0.220 A 
ATOM      7  N   LIG    1       20.211 -30.407  12.068  0.00  0.00    -0.197 NA
ATOM      8  C   LIG    1       20.770 -30.844  10.914  0.00  0.00    +0.153 A 
ATOM      9  C   LIG    1       22.124 -30.604  10.572  0.00  0.00    +0.136 A 
ATOM     10  N   LIG    1       22.705 -31.009   9.421  0.00  0.00    -0.209 NA
ENDROOT
BRANCH   3  11
ATOM     11  N   LIG    1       25.112 -28.984  12.080  0.00  0.00    -0.313 N 
ATOM     12  C   LIG    1       26.174 -28.323  11.296  0.00  0.00    +0.106 C 
ATOM     13  C   LIG    1       26.997 -27.325  12.125  0.00  0.00    +0.019 C 
ATOM     14  C   LIG    1       27.351 -27.811  13.524  0.00  0.00    +0.003 C 
ATOM     15  C   LIG    1       26.111 -28.368  14.209  0.00  0.00    +0.019 C 
ATOM     16  C   LIG    1       25.513 -29.506  13.377  0.00  0.00    +0.106 C 
ENDBRANCH   3  11
BRANCH   8  17
ATOM     17  N   LIG    1       19.919 -31.599  10.029  0.00  0.00    -0.313 N 
ATOM     18  C   LIG    1       18.534 -31.086  10.055  0.00  0.00    +0.106 C 
ATOM     19  C   LIG    1       17.650 -31.848   9.055  0.00  0.00    +0.019 C 
ATOM     20  C   LIG    1       17.717 -33.359   9.258  0.00  0.00    +0.003 C 
ATOM     21  C   LIG    1       19.170 -33.819   9.239  0.00  0.00    +0.019 C 
ATOM     22  C   LIG    1       19.998 -33.056  10.278  0.00  0.00    +0.106 C 
ENDBRANCH   8  17
BRANCH   6  23
ATOM     23  N   LIG    1       20.357 -29.213  14.111  0.00  0.00    -0.295 N 
BRANCH  23  24
ATOM     24  C   LIG    1       20.622 -27.790  14.384  0.00  0.00    +0.136 C 
BRANCH  24  25
ATOM     25  C   LIG    1       19.477 -26.874  13.927  0.00  0.00    +0.175 C 
BRANCH  25  26
ATOM     26  O   LIG    1       19.742 -26.350  12.625  0.00  0.00    -0.394 OA
ATOM     27  H   LIG    1       18.981 -25.809  12.352  0.00  0.00    +0.209 HD
ENDBRANCH  25  26
ENDBRANCH  24  25
ENDBRANCH  23  24
BRANCH  23  28
ATOM     28  C   LIG    1       18.940 -29.621  14.262  0.00  0.00    +0.136 C 
BRANCH  28  29
ATOM     29  C   LIG    1       18.791 -30.864  15.147  0.00  0.00    +0.175 C 
BRANCH  29  30
ATOM     30  O   LIG    1       18.636 -32.032  14.341  0.00  0.00    -0.394 OA
ATOM     31  H   LIG    1       18.347 -31.704  13.469  0.00  0.00    +0.209 HD
ENDBRANCH  29  30
ENDBRANCH  28  29
ENDBRANCH  23  28
ENDBRANCH   6  23
BRANCH   1  32
ATOM     32  N   LIG    1       24.596 -31.123   8.023  0.00  0.00    -0.295 N 
BRANCH  32  33
ATOM     33  C   LIG    1       25.158 -30.081   7.152  0.00  0.00    +0.136 C 
BRANCH  33  34
ATOM     34  C   LIG    1       24.104 -29.069   6.685  0.00  0.00    +0.175 C 
BRANCH  34  35
ATOM     35  O   LIG    1       23.321 -29.554   5.598  0.00  0.00    -0.394 OA
ATOM     36  H   LIG    1       23.065 -28.773   5.069  0.00  0.00    +0.209 HD
ENDBRANCH  34  35
ENDBRANCH  33  34
ENDBRANCH  32  33
BRANCH  32  37
ATOM     37  C   LIG    1       24.552 -32.515   7.587  0.00  0.00    +0.136 C 
BRANCH  37  38
ATOM     38  C   LIG    1       23.314 -32.812   6.725  0.00  0.00    +0.175 C 
BRANCH  38  39
ATOM     39  O   LIG    1       23.543 -32.413   5.376  0.00  0.00    -0.394 OA
ATOM     40  H   LIG    1       23.407 -31.450   5.341  0.00  0.00    +0.209 HD
ENDBRANCH  38  39
ENDBRANCH  37  38
ENDBRANCH  32  37
ENDBRANCH   1  32
TORSDOF 16
ENDMDL
MODEL 5
REMARK VINA RESULT:      -4.6      2.129      5.733
REMARK  Name = *****
REMARK                            x       y       z     vdW  Elec       q    Type
REMARK                         _______ _______ _______ _____ _____    ______ ____
ROOT
ATOM      1  C   LIG    1       20.837 -31.044  10.547  0.00  0.00    +0.220 A 
ATOM      2  N   LIG    1       20.696 -30.223  11.594  0.00  0.00    -0.197 NA
ATOM      3  C   LIG    1       21.754 -29.530  12.060  0.00  0.00    +0.153 A 
ATOM      4  C   LIG    1       23.027 -29.620  11.456  0.00  0.00    +0.136 A 
ATOM      5  N   LIG    1       24.109 -28.935  11.892  0.00  0.00    -0.209 NA
ATOM      6  C   LIG    1       25.284 -29.041  11.267  0.00  0.00    +0.220 A 
ATOM      7  N   LIG    1       25.416 -29.794  10.170  0.00  0.00    -0.197 NA
ATOM      8  C   LIG    1       24.354 -30.503   9.716  0.00  0.00    +0.153 A 
ATOM      9  C   LIG    1       23.082 -30.472  10.340  0.00  0.00    +0.136 A 
ATOM     10  N   LIG    1       22.010 -31.182   9.923  0.00  0.00    -0.209 NA
ENDROOT
BRANCH   3  11
ATOM     11  N   LIG    1       21.446 -28.759  13.206  0.00  0.00    -0.313 N 
ATOM     12  C   LIG    1       20.537 -29.462  14.131  0.00  0.00    +0.106 C 
ATOM     13  C   LIG    1       20.424 -28.774  15.500  0.00  0.00    +0.019 C 
ATOM     14  C   LIG    1       20.328 -27.256  15.435  0.00  0.00    +0.003 C 
ATOM     15  C   LIG    1       21.405 -26.707  14.510  0.00  0.00    +0.019 C 
ATOM     16  C   LIG    1       21.266 -27.318  13.112  0.00  0.00    +0.106 C 
ENDBRANCH   3  11
BRANCH   8  17
ATOM     17  N   LIG    1       24.565 -31.297   8.532  0.00  0.00    -0.313 N 
ATOM     18  C   LIG    1       25.837 -32.044   8.612  0.00  0.00    +0.106 C 
ATOM     19  C   LIG    1       26.020 -32.944   7.380  0.00  0.00    +0.019 C 
ATOM     20  C   LIG    1       25.877 -32.172   6.072  0.00  0.00    +0.003 C 
ATOM     21  C   LIG    1       24.556 -31.411   6.063  0.00  0.00    +0.019 C 
ATOM     22  C   LIG    1       24.441 -30.501   7.290  0.00  0.00    +0.106 C 
ENDBRANCH   8  17
BRANCH   6  23
ATOM     23  N   LIG    1       26.397 -28.333  11.758  0.00  0.00    -0.295 N 
BRANCH  23  24
ATOM     24  C   LIG    1       26.137 -27.571  12.992  0.00  0.00    +0.136 C 
BRANCH  24  25
ATOM     25  C   LIG    1       26.525 -26.090  12.869  0.00  0.00    +0.175 C 
BRANCH  25  26
ATOM     26  O   LIG    1       27.787 -25.849  13.494  0.00  0.00    -0.394 OA
ATOM     27  H   LIG    1       27.683 -25.105  14.113  0.00  0.00    +0.209 HD
ENDBRANCH  25  26
ENDBRANCH  24  25
ENDBRANCH  23  24
BRANCH  23  28
ATOM     28  C   LIG    1       27.639 -29.142  11.778  0.00  0.00    +0.136 C 
BRANCH  28  29
ATOM     29  C   LIG    1       28.108 -29.441  13.206  0.00  0.00    +0.175 C 
BRANCH  29  30
ATOM     30  O   LIG    1       27.645 -30.725  13.624  0.00  0.00    -0.394 OA
ATOM     31  H   LIG    1       28.124 -31.363  13.062  0.00  0.00    +0.209 HD
ENDBRANCH  29  30
ENDBRANCH  28  29
ENDBRANCH  23  28
ENDBRANCH   6  23
BRANCH   1  32
ATOM     32  N   LIG    1       19.755 -31.808  10.182  0.00  0.00    -0.295 N 
BRANCH  32  33
ATOM     33  C   LIG    1       18.460 -31.167   9.910  0.00  0.00    +0.136 C 
BRANCH  33  34
ATOM     34  C   LIG    1       17.429 -31.424  11.017  0.00  0.00    +0.175 C 
BRANCH  34  35
ATOM     35  O   LIG    1       17.793 -30.824  12.256  0.00  0.00    -0.394 OA
ATOM     36  H   LIG    1       18.614 -31.268  12.549  0.00  0.00    +0.209 HD
ENDBRANCH  34  35
ENDBRANCH  33  34
ENDBRANCH  32  33
BRANCH  32  37
ATOM     37  C   LIG    1       19.882 -33.261  10.182  0.00  0.00    +0.136 C 
BRANCH  37  38
ATOM     38  C   LIG    1       20.355 -33.799  11.543  0.00  0.00    +0.175 C 
BRANCH  38  39
ATOM     39  O   LIG    1       19.388 -33.516  12.551  0.00  0.00    -0.394 OA
ATOM     40  H   LIG    1       19.417 -34.255  13.184  0.00  0.00    +0.209 HD
ENDBRANCH  38  39
ENDBRANCH  37  38
ENDBRANCH  32  37
ENDBRANCH   1  32
TORSDOF 16
ENDMDL
MODEL 6
REMARK VINA RESULT:      -4.6      1.009      8.358
REMARK  Name = *****
REMARK                            x       y       z     vdW  Elec       q    Type
REMARK                         _______ _______ _______ _____ _____    ______ ____
ROOT
ATOM      1  C   LIG    1       24.270 -30.359   9.353  0.00  0.00    +0.220 A 
ATOM      2  N   LIG    1       25.018 -29.712  10.254  0.00  0.00    -0.197 NA
ATOM      3  C   LIG    1       24.476 -29.309  11.421  0.00  0.00    +0.153 A 
ATOM      4  C   LIG    1       23.127 -29.572  11.744  0.00  0.00    +0.136 A 
ATOM      5  N   LIG    1       22.551 -29.188  12.908  0.00  0.00    -0.209 NA
ATOM      6  C   LIG    1       21.276 -29.485  13.171  0.00  0.00    +0.220 A 
ATOM      7  N   LIG    1       20.545 -30.202  12.313  0.00  0.00    -0.197 NA
ATOM      8  C   LIG    1       21.088 -30.590  11.134  0.00  0.00    +0.153 A 
ATOM      9  C   LIG    1       22.422 -30.289  10.763  0.00  0.00    +0.136 A 
ATOM     10  N   LIG    1       22.987 -30.644   9.588  0.00  0.00    -0.209 NA
ENDROOT
BRANCH   3  11
ATOM     11  N   LIG    1       25.386 -28.588  12.231  0.00  0.00    -0.313 N 
ATOM     12  C   LIG    1       26.266 -29.474  13.015  0.00  0.00    +0.106 C 
ATOM     13  C   LIG    1       27.440 -28.728  13.668  0.00  0.00    +0.019 C 
ATOM     14  C   LIG    1       27.068 -27.383  14.278  0.00  0.00    +0.003 C 
ATOM     15  C   LIG    1       26.245 -26.573  13.286  0.00  0.00    +0.019 C 
ATOM     16  C   LIG    1       24.988 -27.350  12.882  0.00  0.00    +0.106 C 
ENDBRANCH   3  11
BRANCH   8  17
ATOM     17  N   LIG    1       20.244 -31.358  10.254  0.00  0.00    -0.313 N 
ATOM     18  C   LIG    1       18.857 -30.848  10.269  0.00  0.00    +0.106 C 
ATOM     19  C   LIG    1       17.980 -31.624   9.273  0.00  0.00    +0.019 C 
ATOM     20  C   LIG    1       18.051 -33.132   9.492  0.00  0.00    +0.003 C 
ATOM     21  C   LIG    1       19.506 -33.588   9.484  0.00  0.00    +0.019 C 
ATOM     22  C   LIG    1       20.327 -32.811  10.519  0.00  0.00    +0.106 C 
ENDBRANCH   8  17
BRANCH   6  23
ATOM     23  N   LIG    1       20.699 -29.052  14.380  0.00  0.00    -0.295 N 
BRANCH  23  24
ATOM     24  C   LIG    1       20.379 -27.614  14.420  0.00  0.00    +0.136 C 
BRANCH  24  25
ATOM     25  C   LIG    1       21.264 -26.836  15.405  0.00  0.00    +0.175 C 
BRANCH  25  26
ATOM     26  O   LIG    1       22.558 -27.436  15.500  0.00  0.00    -0.394 OA
ATOM     27  H   LIG    1       23.169 -26.785  15.885  0.00  0.00    +0.209 HD
ENDBRANCH  25  26
ENDBRANCH  24  25
ENDBRANCH  23  24
BRANCH  23  28
ATOM     28  C   LIG    1       19.617 -29.943  14.859  0.00  0.00    +0.136 C 
BRANCH  28  29
ATOM     29  C   LIG    1       18.233 -29.305  14.698  0.00  0.00    +0.175 C 
BRANCH  29  30
ATOM     30  O   LIG    1       17.660 -29.669  13.442  0.00  0.00    -0.394 OA
ATOM     31  H   LIG    1       16.714 -29.446  13.519  0.00  0.00    +0.209 HD
ENDBRANCH  29  30
ENDBRANCH  28  29
ENDBRANCH  23  28
ENDBRANCH   6  23
BRANCH   1  32
ATOM     32  N   LIG    1       24.842 -30.651   8.138  0.00  0.00    -0.295 N 
BRANCH  32  33
ATOM     33  C   LIG    1       25.218 -32.034   7.814  0.00  0.00    +0.136 C 
BRANCH  33  34
ATOM     34  C   LIG    1       26.707 -32.315   8.056  0.00  0.00    +0.175 C 
BRANCH  34  35
ATOM     35  O   LIG    1       27.081 -32.154   9.421  0.00  0.00    -0.394 OA
ATOM     36  H   LIG    1       27.450 -33.012   9.711  0.00  0.00    +0.209 HD
ENDBRANCH  34  35
ENDBRANCH  33  34
ENDBRANCH  32  33
BRANCH  32  37
ATOM     37  C   LIG    1       25.173 -29.557   7.231  0.00  0.00    +0.136 C 
BRANCH  37  38
ATOM     38  C   LIG    1       24.699 -29.834   5.794  0.00  0.00    +0.175 C 
BRANCH  38  39
ATOM     39  O   LIG    1       23.275 -29.882   5.744  0.00  0.00    -0.394 OA
ATOM     40  H   LIG    1       22.974 -30.181   6.620  0.00  0.00    +0.209 HD
ENDBRANCH  38  39
ENDBRANCH  37  38
ENDBRANCH  32  37
ENDBRANCH   1  32
TORSDOF 16
ENDMDL
MODEL 7
REMARK VINA RESULT:      -4.5      2.134      6.801
REMARK  Name = *****
REMARK                            x       y       z     vdW  Elec       q    Type
REMARK                         _______ _______ _______ _____ _____    ______ ____
ROOT
ATOM      1  C   LIG    1       24.913 -29.052  11.273  0.00  0.00    +0.220 A 
ATOM      2  N   LIG    1       25.037 -29.761  10.146  0.00  0.00    -0.197 NA
ATOM      3  C   LIG    1       24.001 -30.490   9.685  0.00  0.00    +0.153 A 
ATOM      4  C   LIG    1       22.755 -30.514  10.349  0.00  0.00    +0.136 A 
ATOM      5  N   LIG    1       21.692 -31.228   9.913  0.00  0.00    -0.209 NA
ATOM      6  C   LIG    1       20.529 -31.194  10.568  0.00  0.00    +0.220 A 
ATOM      7  N   LIG    1       20.369 -30.424  11.649  0.00  0.00    -0.197 NA
ATOM      8  C   LIG    1       21.419 -29.707  12.118  0.00  0.00    +0.153 A 
ATOM      9  C   LIG    1       22.695 -29.712  11.501  0.00  0.00    +0.136 A 
ATOM     10  N   LIG    1       23.766 -29.024  11.955  0.00  0.00    -0.209 NA
ENDROOT
BRANCH   3  11
ATOM     11  N   LIG    1       24.320 -31.226   8.519  0.00  0.00    -0.313 N 
ATOM     12  C   LIG    1       25.330 -32.272   8.771  0.00  0.00    +0.106 C 
ATOM     13  C   LIG    1       25.473 -33.261   7.605  0.00  0.00    +0.019 C 
ATOM     14  C   LIG    1       25.457 -32.613   6.226  0.00  0.00    +0.003 C 
ATOM     15  C   LIG    1       24.291 -31.640   6.123  0.00  0.00    +0.019 C 
ATOM     16  C   LIG    1       24.391 -30.575   7.220  0.00  0.00    +0.106 C 
ENDBRANCH   3  11
BRANCH   8  17
ATOM     17  N   LIG    1       21.180 -28.900  13.288  0.00  0.00    -0.313 N 
ATOM     18  C   LIG    1       20.163 -29.520  14.163  0.00  0.00    +0.106 C 
ATOM     19  C   LIG    1       19.968 -28.694  15.444  0.00  0.00    +0.019 C 
ATOM     20  C   LIG    1       19.667 -27.228  15.146  0.00  0.00    +0.003 C 
ATOM     21  C   LIG    1       20.740 -26.656  14.226  0.00  0.00    +0.019 C 
ATOM     22  C   LIG    1       20.868 -27.494  12.950  0.00  0.00    +0.106 C 
ENDBRANCH   8  17
BRANCH   6  23
ATOM     23  N   LIG    1       19.448 -31.967  10.103  0.00  0.00    -0.295 N 
BRANCH  23  24
ATOM     24  C   LIG    1       19.375 -33.320  10.682  0.00  0.00    +0.136 C 
BRANCH  24  25
ATOM     25  C   LIG    1       20.411 -33.548  11.792  0.00  0.00    +0.175 C 
BRANCH  25  26
ATOM     26  O   LIG    1       19.854 -33.238  13.070  0.00  0.00    -0.394 OA
ATOM     27  H   LIG    1       20.183 -32.364  13.343  0.00  0.00    +0.209 HD
ENDBRANCH  25  26
ENDBRANCH  24  25
ENDBRANCH  23  24
BRANCH  23  28
ATOM     28  C   LIG    1       18.165 -31.225  10.093  0.00  0.00    +0.136 C 
BRANCH  28  29
ATOM     29  C   LIG    1       17.268 -31.611  11.274  0.00  0.00    +0.175 C 
BRANCH  29  30
ATOM     30  O   LIG    1       17.181 -30.534  12.206  0.00  0.00    -0.394 OA
ATOM     31  H   LIG    1       16.505 -29.934  11.840  0.00  0.00    +0.209 HD
ENDBRANCH  29  30
ENDBRANCH  28  29
ENDBRANCH  23  28
ENDBRANCH   6  23
BRANCH   1  32
ATOM     32  N   LIG    1       26.031 -28.415  11.755  0.00  0.00    -0.295 N 
BRANCH  32  33
ATOM     33  C   LIG    1       27.343 -28.660  11.138  0.00  0.00    +0.136 C 
BRANCH  33  34
ATOM     34  C   LIG    1       28.295 -29.432  12.061  0.00  0.00    +0.175 C 
BRANCH  34  35
ATOM     35  O   LIG    1       29.666 -29.194  11.757  0.00  0.00    -0.394 OA
ATOM     36  H   LIG    1       29.732 -28.256  11.489  0.00  0.00    +0.209 HD
ENDBRANCH  34  35
ENDBRANCH  33  34
ENDBRANCH  32  33
BRANCH  32  37
ATOM     37  C   LIG    1       25.913 -27.589  12.951  0.00  0.00    +0.136 C 
BRANCH  37  38
ATOM     38  C   LIG    1       26.594 -26.220  12.778  0.00  0.00    +0.175 C 
BRANCH  38  39
ATOM     39  O   LIG    1       27.777 -26.152  13.571  0.00  0.00    -0.394 OA
ATOM     40  H   LIG    1       28.114 -25.243  13.493  0.00  0.00    +0.209 HD
ENDBRANCH  38  39
ENDBRANCH  37  38
ENDBRANCH  32  37
ENDBRANCH   1  32
TORSDOF 16
ENDMDL
MODEL 8
REMARK VINA RESULT:      -4.3      1.567      6.396
REMARK  Name = *****
REMARK                            x       y       z     vdW  Elec       q    Type
REMARK                         _______ _______ _______ _____ _____    ______ ____
ROOT
ATOM      1  C   LIG    1       23.467 -30.091  10.091  0.00  0.00    +0.220 A 
ATOM      2  N   LIG    1       22.356 -30.784   9.816  0.00  0.00    -0.197 NA
ATOM      3  C   LIG    1       21.339 -30.814  10.700  0.00  0.00    +0.153 A 
ATOM      4  C   LIG    1       21.394 -30.106  11.921  0.00  0.00    +0.136 A 
ATOM      5  N   LIG    1       20.390 -30.109  12.828  0.00  0.00    -0.209 NA
ATOM      6  C   LIG    1       20.486 -29.401  13.957  0.00  0.00    +0.220 A 
ATOM      7  N   LIG    1       21.556 -28.639  14.203  0.00  0.00    -0.197 NA
ATOM      8  C   LIG    1       22.584 -28.626  13.320  0.00  0.00    +0.153 A 
ATOM      9  C   LIG    1       22.576 -29.373  12.115  0.00  0.00    +0.136 A 
ATOM     10  N   LIG    1       23.592 -29.396  11.224  0.00  0.00    -0.209 NA
ENDROOT
BRANCH   3  11
ATOM     11  N   LIG    1       20.269 -31.641  10.281  0.00  0.00    -0.313 N 
ATOM     12  C   LIG    1       18.997 -30.902  10.169  0.00  0.00    +0.106 C 
ATOM     13  C   LIG    1       17.903 -31.700   9.445  0.00  0.00    +0.019 C 
ATOM     14  C   LIG    1       17.833 -33.170   9.836  0.00  0.00    +0.003 C 
ATOM     15  C   LIG    1       19.226 -33.783   9.800  0.00  0.00    +0.019 C 
ATOM     16  C   LIG    1       20.166 -33.018  10.736  0.00  0.00    +0.106 C 
ENDBRANCH   3  11
BRANCH   8  17
ATOM     17  N   LIG    1       23.708 -27.786  13.648  0.00  0.00    -0.313 N 
ATOM     18  C   LIG    1       23.400 -26.363  13.400  0.00  0.00    +0.106 C 
ATOM     19  C   LIG    1       24.576 -25.468  13.822  0.00  0.00    +0.019 C 
ATOM     20  C   LIG    1       25.891 -25.902  13.181  0.00  0.00    +0.003 C 
ATOM     21  C   LIG    1       26.139 -27.380  13.459  0.00  0.00    +0.019 C 
ATOM     22  C   LIG    1       24.956 -28.230  12.986  0.00  0.00    +0.106 C 
ENDBRANCH   8  17
BRANCH   6  23
ATOM     23  N   LIG    1       19.435 -29.442  14.892  0.00  0.00    -0.295 N 
BRANCH  23  24
ATOM     24  C   LIG    1       18.324 -28.520  14.598  0.00  0.00    +0.136 C 
BRANCH  24  25
ATOM     25  C   LIG    1       18.549 -27.114  15.174  0.00  0.00    +0.175 C 
BRANCH  25  26
ATOM     26  O   LIG    1       17.753 -26.153  14.479  0.00  0.00    -0.394 OA
ATOM     27  H   LIG    1       18.350 -25.537  14.019  0.00  0.00    +0.209 HD
ENDBRANCH  25  26
ENDBRANCH  24  25
ENDBRANCH  23  24
BRANCH  23  28
ATOM     28  C   LIG    1       19.023 -30.821  15.244  0.00  0.00    +0.136 C 
BRANCH  28  29
ATOM     29  C   LIG    1       17.677 -31.197  14.613  0.00  0.00    +0.175 C 
BRANCH  29  30
ATOM     30  O   LIG    1       17.879 -31.813  13.341  0.00  0.00    -0.394 OA
ATOM     31  H   LIG    1       18.067 -31.077  12.729  0.00  0.00    +0.209 HD
ENDBRANCH  29  30
ENDBRANCH  28  29
ENDBRANCH  23  28
ENDBRANCH   6  23
BRANCH   1  32
ATOM     32  N   LIG    1       24.514 -30.182   9.206  0.00  0.00    -0.295 N 
BRANCH  32  33
ATOM     33  C   LIG    1       24.369 -30.967   7.971  0.00  0.00    +0.136 C 
BRANCH  33  34
ATOM     34  C   LIG    1       24.389 -30.093   6.709  0.00  0.00    +0.175 C 
BRANCH  34  35
ATOM     35  O   LIG    1       23.333 -30.410   5.807  0.00  0.00    -0.394 OA
ATOM     36  H   LIG    1       23.604 -30.066   4.932  0.00  0.00    +0.209 HD
ENDBRANCH  34  35
ENDBRANCH  33  34
ENDBRANCH  32  33
BRANCH  32  37
ATOM     37  C   LIG    1       25.797 -29.588   9.565  0.00  0.00    +0.136 C 
BRANCH  37  38
ATOM     38  C   LIG    1       26.923 -30.635   9.619  0.00  0.00    +0.175 C 
BRANCH  38  39
ATOM     39  O   LIG    1       27.951 -30.208  10.510  0.00  0.00    -0.394 OA
ATOM     40  H   LIG    1       28.488 -29.556  10.026  0.00  0.00    +0.209 HD
ENDBRANCH  38  39
ENDBRANCH  37  38
ENDBRANCH  32  37
ENDBRANCH   1  32
TORSDOF 16
ENDMDL
MODEL 9
REMARK VINA RESULT:      -4.3      2.111      5.631
REMARK  Name = *****
REMARK                            x       y       z     vdW  Elec       q    Type
REMARK                         _______ _______ _______ _____ _____    ______ ____
ROOT
ATOM      1  C   LIG    1       20.478 -31.529  10.963  0.00  0.00    +0.220 A 
ATOM      2  N   LIG    1       20.204 -30.562  11.845  0.00  0.00    -0.197 NA
ATOM      3  C   LIG    1       21.186 -29.758  12.299  0.00  0.00    +0.153 A 
ATOM      4  C   LIG    1       22.519 -29.886  11.848  0.00  0.00    +0.136 A 
ATOM      5  N   LIG    1       23.529 -29.093  12.275  0.00  0.00    -0.209 NA
ATOM      6  C   LIG    1       24.766 -29.243  11.796  0.00  0.00    +0.220 A 
ATOM      7  N   LIG    1       25.034 -30.151  10.853  0.00  0.00    -0.197 NA
ATOM      8  C   LIG    1       24.047 -30.969  10.414  0.00  0.00    +0.153 A 
ATOM      9  C   LIG    1       22.715 -30.898  10.893  0.00  0.00    +0.136 A 
ATOM     10  N   LIG    1       21.714 -31.710  10.490  0.00  0.00    -0.209 NA
ENDROOT
BRANCH   3  11
ATOM     11  N   LIG    1       20.737 -28.832  13.270  0.00  0.00    -0.313 N 
ATOM     12  C   LIG    1       19.577 -29.333  14.031  0.00  0.00    +0.106 C 
ATOM     13  C   LIG    1       19.260 -28.482  15.270  0.00  0.00    +0.019 C 
ATOM     14  C   LIG    1       19.360 -26.979  15.043  0.00  0.00    +0.003 C 
ATOM     15  C   LIG    1       20.666 -26.647  14.334  0.00  0.00    +0.019 C 
ATOM     16  C   LIG    1       20.753 -27.402  13.004  0.00  0.00    +0.106 C 
ENDBRANCH   3  11
BRANCH   8  17
ATOM     17  N   LIG    1       24.405 -31.928   9.399  0.00  0.00    -0.313 N 
ATOM     18  C   LIG    1       25.680 -32.598   9.726  0.00  0.00    +0.106 C 
ATOM     19  C   LIG    1       26.017 -33.670   8.678  0.00  0.00    +0.019 C 
ATOM     20  C   LIG    1       25.995 -33.117   7.256  0.00  0.00    +0.003 C 
ATOM     21  C   LIG    1       24.663 -32.425   6.991  0.00  0.00    +0.019 C 
ATOM     22  C   LIG    1       24.393 -31.341   8.040  0.00  0.00    +0.106 C 
ENDBRANCH   8  17
BRANCH   6  23
ATOM     23  N   LIG    1       25.801 -28.419  12.278  0.00  0.00    -0.295 N 
BRANCH  23  24
ATOM     24  C   LIG    1       26.874 -28.159  11.302  0.00  0.00    +0.136 C 
BRANCH  24  25
ATOM     25  C   LIG    1       28.113 -29.037  11.534  0.00  0.00    +0.175 C 
BRANCH  25  26
ATOM     26  O   LIG    1       28.090 -30.174  10.670  0.00  0.00    -0.394 OA
ATOM     27  H   LIG    1       29.008 -30.400  10.438  0.00  0.00    +0.209 HD
ENDBRANCH  25  26
ENDBRANCH  24  25
ENDBRANCH  23  24
BRANCH  23  28
ATOM     28  C   LIG    1       25.304 -27.218  12.990  0.00  0.00    +0.136 C 
BRANCH  28  29
ATOM     29  C   LIG    1       26.447 -26.302  13.439  0.00  0.00    +0.175 C 
BRANCH  29  30
ATOM     30  O   LIG    1       26.297 -25.002  12.868  0.00  0.00    -0.394 OA
ATOM     31  H   LIG    1       26.904 -24.430  13.373  0.00  0.00    +0.209 HD
ENDBRANCH  29  30
ENDBRANCH  28  29
ENDBRANCH  23  28
ENDBRANCH   6  23
BRANCH   1  32
ATOM     32  N   LIG    1       19.462 -32.387  10.617  0.00  0.00    -0.295 N 
BRANCH  32  33
ATOM     33  C   LIG    1       18.573 -32.061   9.493  0.00  0.00    +0.136 C 
BRANCH  33  34
ATOM     34  C   LIG    1       17.464 -31.075   9.883  0.00  0.00    +0.175 C 
BRANCH  34  35
ATOM     35  O   LIG    1       17.257 -30.066   8.900  0.00  0.00    -0.394 OA
ATOM     36  H   LIG    1       17.012 -30.528   8.074  0.00  0.00    +0.209 HD
ENDBRANCH  34  35
ENDBRANCH  33  34
ENDBRANCH  32  33
BRANCH  32  37
ATOM     37  C   LIG    1       19.212 -33.558  11.450  0.00  0.00    +0.136 C 
BRANCH  37  38
ATOM     38  C   LIG    1       18.205 -33.264  12.575  0.00  0.00    +0.175 C 
BRANCH  38  39
ATOM     39  O   LIG    1       18.883 -32.772  13.728  0.00  0.00    -0.394 OA
ATOM     40  H   LIG    1       19.681 -33.319  13.839  0.00  0.00    +0.209 HD
ENDBRANCH  38  39
ENDBRANCH  37  38
ENDBRANCH  32  37
ENDBRANCH   1  32
TORSDOF 16
ENDMDL
