MODEL 1
REMARK VINA RESULT:     -10.1      0.000      0.000
REMARK  Name = *****
REMARK                            x       y       z     vdW  Elec       q    Type
REMARK                         _______ _______ _______ _____ _____    ______ ____
ROOT
ATOM      1  N   LIG    1       27.737 -20.364   6.737  0.00  0.00    -0.226 N 
ATOM      2  C   LIG    1       27.339 -19.705   5.581  0.00  0.00    +0.275 C 
ATOM      3  O   LIG    1       28.002 -18.830   5.016  0.00  0.00    -0.266 OA
ATOM      4  C   LIG    1       26.042 -20.101   5.005  0.00  0.00    +0.050 A 
ATOM      5  C   LIG    1       25.252 -21.048   5.654  0.00  0.00    +0.011 A 
ATOM      6  C   LIG    1       24.011 -21.397   5.102  0.00  0.00    +0.010 A 
ATOM      7  C   LIG    1       23.588 -20.831   3.895  0.00  0.00    +0.001 A 
ATOM      8  C   LIG    1       24.393 -19.904   3.237  0.00  0.00    +0.001 A 
ATOM      9  C   LIG    1       25.811 -21.657   6.882  0.00  0.00    +0.074 C 
ATOM     10  C   LIG    1       25.612 -19.531   3.794  0.00  0.00    +0.014 A 
ATOM     11  N   LIG    1       26.964 -21.321   7.376  0.00  0.00    -0.172 NA
ENDROOT
BRANCH   1  16
ATOM     12  C   LIG    1       32.285 -17.888   9.778  0.00  0.00    +0.105 C 
ATOM     13  N   LIG    1       31.211 -18.834   9.458  0.00  0.00    -0.305 NA
ATOM     14  C   LIG    1       30.166 -18.158   8.680  0.00  0.00    +0.086 C 
ATOM     15  C   LIG    1       28.890 -18.977   8.441  0.00  0.00    +0.042 C 
ATOM     16  C   LIG    1       29.049 -20.050   7.362  0.00  0.00    +0.112 C 
ATOM     17  C   LIG    1       29.763 -21.336   7.808  0.00  0.00    +0.028 C 
ATOM     18  C   LIG    1       30.821 -21.214   8.902  0.00  0.00    +0.017 C 
ATOM     19  C   LIG    1       31.764 -20.020   8.794  0.00  0.00    +0.084 C 
ENDBRANCH   1  16
BRANCH   9  20
ATOM     20  C   LIG    1       25.052 -22.787   7.581  0.00  0.00    +0.092 C 
BRANCH  20  21
ATOM     21  C   LIG    1       25.070 -24.117   6.858  0.00  0.00    -0.041 A 
ATOM     22  C   LIG    1       26.279 -24.805   6.665  0.00  0.00    +0.005 A 
ATOM     23  C   LIG    1       26.292 -26.077   6.083  0.00  0.00    +0.020 A 
ATOM     24  C   LIG    1       25.095 -26.673   5.694  0.00  0.00    +0.041 A 
ATOM     25 CL   LIG    1       25.111 -28.247   4.998  0.00  0.00    -0.084 Cl
ATOM     26  C   LIG    1       23.887 -26.007   5.880  0.00  0.00    +0.020 A 
ATOM     27  C   LIG    1       23.874 -24.736   6.463  0.00  0.00    +0.005 A 
ENDBRANCH  20  21
ENDBRANCH   9  20
TORSDOF 3
ENDMDL
MODEL 2
REMARK VINA RESULT:      -8.0      3.591      5.748
REMARK  Name = *****
REMARK                            x       y       z     vdW  Elec       q    Type
REMARK                         _______ _______ _______ _____ _____    ______ ____
ROOT
ATOM      1  N   LIG    1       27.513 -20.242   6.736  0.00  0.00    -0.226 N 
ATOM      2  C   LIG    1       26.625 -20.957   7.529  0.00  0.00    +0.275 C 
ATOM      3  O   LIG    1       26.888 -21.385   8.657  0.00  0.00    -0.266 OA
ATOM      4  C   LIG    1       25.284 -21.200   6.969  0.00  0.00    +0.050 A 
ATOM      5  C   LIG    1       24.981 -20.774   5.678  0.00  0.00    +0.011 A 
ATOM      6  C   LIG    1       23.706 -21.032   5.154  0.00  0.00    +0.010 A 
ATOM      7  C   LIG    1       22.737 -21.675   5.932  0.00  0.00    +0.001 A 
ATOM      8  C   LIG    1       23.037 -22.077   7.232  0.00  0.00    +0.001 A 
ATOM      9  C   LIG    1       26.036 -20.029   4.954  0.00  0.00    +0.074 C 
ATOM     10  C   LIG    1       24.309 -21.849   7.747  0.00  0.00    +0.014 A 
ATOM     11  N   LIG    1       27.210 -19.798   5.458  0.00  0.00    -0.172 NA
ENDROOT
BRANCH   1  16
ATOM     12  C   LIG    1       32.306 -17.749   9.358  0.00  0.00    +0.105 C 
ATOM     13  N   LIG    1       31.211 -18.699   9.135  0.00  0.00    -0.305 NA
ATOM     14  C   LIG    1       30.098 -18.027   8.455  0.00  0.00    +0.086 C 
ATOM     15  C   LIG    1       28.808 -18.851   8.330  0.00  0.00    +0.042 C 
ATOM     16  C   LIG    1       28.875 -19.922   7.241  0.00  0.00    +0.112 C 
ATOM     17  C   LIG    1       29.632 -21.206   7.619  0.00  0.00    +0.028 C 
ATOM     18  C   LIG    1       30.783 -21.081   8.614  0.00  0.00    +0.017 C 
ATOM     19  C   LIG    1       31.708 -19.883   8.422  0.00  0.00    +0.084 C 
ENDBRANCH   1  16
BRANCH   9  20
ATOM     20  C   LIG    1       25.734 -19.430   3.579  0.00  0.00    +0.092 C 
BRANCH  20  21
ATOM     21  C   LIG    1       25.354 -17.965   3.586  0.00  0.00    -0.041 A 
ATOM     22  C   LIG    1       24.060 -17.568   3.960  0.00  0.00    +0.005 A 
ATOM     23  C   LIG    1       23.730 -16.211   4.059  0.00  0.00    +0.020 A 
ATOM     24  C   LIG    1       24.693 -15.242   3.790  0.00  0.00    +0.041 A 
ATOM     25 CL   LIG    1       24.292 -13.575   3.934  0.00  0.00    -0.084 Cl
ATOM     26  C   LIG    1       25.982 -15.618   3.421  0.00  0.00    +0.020 A 
ATOM     27  C   LIG    1       26.312 -16.973   3.322  0.00  0.00    +0.005 A 
ENDBRANCH  20  21
ENDBRANCH   9  20
TORSDOF 3
ENDMDL
MODEL 3
REMARK VINA RESULT:      -8.0      6.225      9.565
REMARK  Name = *****
REMARK                            x       y       z     vdW  Elec       q    Type
REMARK                         _______ _______ _______ _____ _____    ______ ____
ROOT
ATOM      1  N   LIG    1       25.878 -30.069   9.032  0.00  0.00    -0.226 N 
ATOM      2  C   LIG    1       26.452 -31.272   8.643  0.00  0.00    +0.275 C 
ATOM      3  O   LIG    1       27.048 -32.038   9.407  0.00  0.00    -0.266 OA
ATOM      4  C   LIG    1       26.320 -31.641   7.223  0.00  0.00    +0.050 A 
ATOM      5  C   LIG    1       25.699 -30.768   6.332  0.00  0.00    +0.011 A 
ATOM      6  C   LIG    1       25.601 -31.127   4.979  0.00  0.00    +0.010 A 
ATOM      7  C   LIG    1       26.085 -32.363   4.537  0.00  0.00    +0.001 A 
ATOM      8  C   LIG    1       26.683 -33.243   5.437  0.00  0.00    +0.001 A 
ATOM      9  C   LIG    1       25.142 -29.519   6.897  0.00  0.00    +0.074 C 
ATOM     10  C   LIG    1       26.809 -32.881   6.774  0.00  0.00    +0.014 A 
ATOM     11  N   LIG    1       25.242 -29.206   8.153  0.00  0.00    -0.172 NA
ENDROOT
BRANCH   1  16
ATOM     12  C   LIG    1       27.086 -27.321  14.233  0.00  0.00    +0.105 C 
ATOM     13  N   LIG    1       26.327 -27.719  13.043  0.00  0.00    -0.305 NA
ATOM     14  C   LIG    1       27.248 -28.018  11.940  0.00  0.00    +0.086 C 
ATOM     15  C   LIG    1       26.586 -28.261  10.577  0.00  0.00    +0.042 C 
ATOM     16  C   LIG    1       25.934 -29.639  10.454  0.00  0.00    +0.112 C 
ATOM     17  C   LIG    1       24.557 -29.783  11.123  0.00  0.00    +0.028 C 
ATOM     18  C   LIG    1       24.281 -28.933  12.361  0.00  0.00    +0.017 C 
ATOM     19  C   LIG    1       25.420 -28.826  13.369  0.00  0.00    +0.084 C 
ENDBRANCH   1  16
BRANCH   9  20
ATOM     20  C   LIG    1       24.345 -28.570   6.000  0.00  0.00    +0.092 C 
BRANCH  20  21
ATOM     21  C   LIG    1       24.754 -27.115   6.081  0.00  0.00    -0.041 A 
ATOM     22  C   LIG    1       23.780 -26.104   6.124  0.00  0.00    +0.005 A 
ATOM     23  C   LIG    1       24.148 -24.765   6.294  0.00  0.00    +0.020 A 
ATOM     24  C   LIG    1       25.492 -24.426   6.426  0.00  0.00    +0.041 A 
ATOM     25 CL   LIG    1       25.941 -22.781   6.656  0.00  0.00    -0.084 Cl
ATOM     26  C   LIG    1       26.471 -25.416   6.388  0.00  0.00    +0.020 A 
ATOM     27  C   LIG    1       26.103 -26.754   6.219  0.00  0.00    +0.005 A 
ENDBRANCH  20  21
ENDBRANCH   9  20
TORSDOF 3
ENDMDL
MODEL 4
REMARK VINA RESULT:      -7.5      5.817      8.707
REMARK  Name = *****
REMARK                            x       y       z     vdW  Elec       q    Type
REMARK                         _______ _______ _______ _____ _____    ______ ____
ROOT
ATOM      1  N   LIG    1       26.193 -28.584   9.637  0.00  0.00    -0.226 N 
ATOM      2  C   LIG    1       25.509 -29.765   9.376  0.00  0.00    +0.275 C 
ATOM      3  O   LIG    1       25.290 -30.643  10.216  0.00  0.00    -0.266 OA
ATOM      4  C   LIG    1       25.012 -29.953   8.001  0.00  0.00    +0.050 A 
ATOM      5  C   LIG    1       25.293 -29.001   7.024  0.00  0.00    +0.011 A 
ATOM      6  C   LIG    1       24.830 -29.206   5.715  0.00  0.00    +0.010 A 
ATOM      7  C   LIG    1       24.063 -30.335   5.405  0.00  0.00    +0.001 A 
ATOM      8  C   LIG    1       23.765 -31.271   6.392  0.00  0.00    +0.001 A 
ATOM      9  C   LIG    1       26.039 -27.797   7.456  0.00  0.00    +0.074 C 
ATOM     10  C   LIG    1       24.245 -31.087   7.684  0.00  0.00    +0.014 A 
ATOM     11  N   LIG    1       26.457 -27.624   8.672  0.00  0.00    -0.172 NA
ENDROOT
BRANCH   1  16
ATOM     12  C   LIG    1       26.756 -27.186  15.450  0.00  0.00    +0.105 C 
ATOM     13  N   LIG    1       26.726 -28.017  14.242  0.00  0.00    -0.305 NA
ATOM     14  C   LIG    1       25.821 -27.425  13.250  0.00  0.00    +0.086 C 
ATOM     15  C   LIG    1       25.542 -28.289  12.013  0.00  0.00    +0.042 C 
ATOM     16  C   LIG    1       26.695 -28.300  11.007  0.00  0.00    +0.112 C 
ATOM     17  C   LIG    1       27.873 -29.224  11.360  0.00  0.00    +0.028 C 
ATOM     18  C   LIG    1       28.170 -29.457  12.839  0.00  0.00    +0.017 C 
ATOM     19  C   LIG    1       28.089 -28.230  13.741  0.00  0.00    +0.084 C 
ENDBRANCH   1  16
BRANCH   9  20
ATOM     20  C   LIG    1       26.280 -26.657   6.464  0.00  0.00    +0.092 C 
BRANCH  20  21
ATOM     21  C   LIG    1       25.447 -25.415   6.698  0.00  0.00    -0.041 A 
ATOM     22  C   LIG    1       26.059 -24.213   7.089  0.00  0.00    +0.005 A 
ATOM     23  C   LIG    1       25.308 -23.038   7.214  0.00  0.00    +0.020 A 
ATOM     24  C   LIG    1       23.943 -23.056   6.945  0.00  0.00    +0.041 A 
ATOM     25 CL   LIG    1       23.026 -21.606   7.079  0.00  0.00    -0.084 Cl
ATOM     26  C   LIG    1       23.321 -24.238   6.553  0.00  0.00    +0.020 A 
ATOM     27  C   LIG    1       24.070 -25.412   6.427  0.00  0.00    +0.005 A 
ENDBRANCH  20  21
ENDBRANCH   9  20
TORSDOF 3
ENDMDL
MODEL 5
REMARK VINA RESULT:      -7.5      3.270      6.781
REMARK  Name = *****
REMARK                            x       y       z     vdW  Elec       q    Type
REMARK                         _______ _______ _______ _____ _____    ______ ____
ROOT
ATOM      1  N   LIG    1       24.487 -22.275   5.408  0.00  0.00    -0.226 N 
ATOM      2  C   LIG    1       23.216 -21.726   5.289  0.00  0.00    +0.275 C 
ATOM      3  O   LIG    1       22.169 -22.336   5.526  0.00  0.00    -0.266 OA
ATOM      4  C   LIG    1       23.140 -20.319   4.860  0.00  0.00    +0.050 A 
ATOM      5  C   LIG    1       24.304 -19.626   4.535  0.00  0.00    +0.011 A 
ATOM      6  C   LIG    1       24.211 -18.293   4.108  0.00  0.00    +0.010 A 
ATOM      7  C   LIG    1       22.967 -17.655   4.046  0.00  0.00    +0.001 A 
ATOM      8  C   LIG    1       21.808 -18.344   4.395  0.00  0.00    +0.001 A 
ATOM      9  C   LIG    1       25.584 -20.350   4.708  0.00  0.00    +0.074 C 
ATOM     10  C   LIG    1       21.892 -19.675   4.792  0.00  0.00    +0.014 A 
ATOM     11  N   LIG    1       25.650 -21.584   5.106  0.00  0.00    -0.172 NA
ENDROOT
BRANCH   1  16
ATOM     12  C   LIG    1       24.730 -28.258   5.863  0.00  0.00    +0.105 C 
ATOM     13  N   LIG    1       25.209 -26.875   5.762  0.00  0.00    -0.305 NA
ATOM     14  C   LIG    1       24.233 -26.060   5.030  0.00  0.00    +0.086 C 
ATOM     15  C   LIG    1       24.691 -24.638   4.681  0.00  0.00    +0.042 C 
ATOM     16  C   LIG    1       24.653 -23.678   5.871  0.00  0.00    +0.112 C 
ATOM     17  C   LIG    1       25.831 -23.793   6.853  0.00  0.00    +0.028 C 
ATOM     18  C   LIG    1       26.481 -25.164   7.020  0.00  0.00    +0.017 C 
ATOM     19  C   LIG    1       25.528 -26.353   7.096  0.00  0.00    +0.084 C 
ENDBRANCH   1  16
BRANCH   9  20
ATOM     20  C   LIG    1       26.907 -19.615   4.483  0.00  0.00    +0.092 C 
BRANCH  20  21
ATOM     21  C   LIG    1       27.895 -19.708   5.626  0.00  0.00    -0.041 A 
ATOM     22  C   LIG    1       27.715 -20.654   6.647  0.00  0.00    +0.005 A 
ATOM     23  C   LIG    1       28.673 -20.809   7.655  0.00  0.00    +0.020 A 
ATOM     24  C   LIG    1       29.822 -20.022   7.646  0.00  0.00    +0.041 A 
ATOM     25 CL   LIG    1       31.009 -20.229   8.874  0.00  0.00    -0.084 Cl
ATOM     26  C   LIG    1       30.019 -19.081   6.640  0.00  0.00    +0.020 A 
ATOM     27  C   LIG    1       29.062 -18.926   5.632  0.00  0.00    +0.005 A 
ENDBRANCH  20  21
ENDBRANCH   9  20
TORSDOF 3
ENDMDL
MODEL 6
REMARK VINA RESULT:      -7.2      6.735     10.611
REMARK  Name = *****
REMARK                            x       y       z     vdW  Elec       q    Type
REMARK                         _______ _______ _______ _____ _____    ______ ____
ROOT
ATOM      1  N   LIG    1       24.513 -30.865   8.990  0.00  0.00    -0.226 N 
ATOM      2  C   LIG    1       25.264 -31.982   8.647  0.00  0.00    +0.275 C 
ATOM      3  O   LIG    1       25.616 -32.856   9.444  0.00  0.00    -0.266 OA
ATOM      4  C   LIG    1       25.644 -32.114   7.229  0.00  0.00    +0.050 A 
ATOM      5  C   LIG    1       25.304 -31.114   6.321  0.00  0.00    +0.011 A 
ATOM      6  C   LIG    1       25.693 -31.246   4.979  0.00  0.00    +0.010 A 
ATOM      7  C   LIG    1       26.379 -32.388   4.551  0.00  0.00    +0.001 A 
ATOM      8  C   LIG    1       26.695 -33.397   5.458  0.00  0.00    +0.001 A 
ATOM      9  C   LIG    1       24.506 -29.980   6.841  0.00  0.00    +0.074 C 
ATOM     10  C   LIG    1       26.338 -33.258   6.795  0.00  0.00    +0.014 A 
ATOM     11  N   LIG    1       24.155 -29.876   8.086  0.00  0.00    -0.172 NA
ENDROOT
BRANCH   1  16
ATOM     12  C   LIG    1       24.005 -29.399  14.792  0.00  0.00    +0.105 C 
ATOM     13  N   LIG    1       23.759 -29.359  13.346  0.00  0.00    -0.305 NA
ATOM     14  C   LIG    1       24.959 -29.795  12.622  0.00  0.00    +0.086 C 
ATOM     15  C   LIG    1       24.909 -29.619  11.099  0.00  0.00    +0.042 C 
ATOM     16  C   LIG    1       24.057 -30.675  10.392  0.00  0.00    +0.112 C 
ATOM     17  C   LIG    1       22.538 -30.443  10.446  0.00  0.00    +0.028 C 
ATOM     18  C   LIG    1       21.974 -29.725  11.669  0.00  0.00    +0.017 C 
ATOM     19  C   LIG    1       22.558 -30.138  13.017  0.00  0.00    +0.084 C 
ENDBRANCH   1  16
BRANCH   9  20
ATOM     20  C   LIG    1       23.998 -28.906   5.878  0.00  0.00    +0.092 C 
BRANCH  20  21
ATOM     21  C   LIG    1       24.584 -27.526   6.088  0.00  0.00    -0.041 A 
ATOM     22  C   LIG    1       23.933 -26.392   5.575  0.00  0.00    +0.005 A 
ATOM     23  C   LIG    1       24.418 -25.107   5.846  0.00  0.00    +0.020 A 
ATOM     24  C   LIG    1       25.554 -24.947   6.634  0.00  0.00    +0.041 A 
ATOM     25 CL   LIG    1       26.136 -23.366   6.983  0.00  0.00    -0.084 Cl
ATOM     26  C   LIG    1       26.210 -26.060   7.153  0.00  0.00    +0.020 A 
ATOM     27  C   LIG    1       25.726 -27.344   6.884  0.00  0.00    +0.005 A 
ENDBRANCH  20  21
ENDBRANCH   9  20
TORSDOF 3
ENDMDL
