MODEL 1
REMARK VINA RESULT:      15.2      0.000      0.000
REMARK  Name = *****
REMARK                            x       y       z     vdW  Elec       q    Type
REMARK                         _______ _______ _______ _____ _____    ______ ____
ROOT
ATOM      1  C   LIG    1       26.293 -18.781   4.879  0.00  0.00    +0.061 A 
ATOM      2  C   LIG    1       24.950 -19.242   4.992  0.00  0.00    +0.049 A 
ATOM      3  I   LIG    1       24.286 -20.477   6.627  0.00  0.00    -0.041 I 
ATOM      4  C   LIG    1       23.914 -18.560   4.356  0.00  0.00    +0.066 A 
ATOM      5  C   LIG    1       24.201 -17.245   3.982  0.00  0.00    +0.040 A 
ATOM      6  I   LIG    1       23.234 -15.863   5.719  0.00  0.00    -0.042 I 
ATOM      7  C   LIG    1       25.501 -16.730   3.778  0.00  0.00    +0.065 A 
ATOM      8  C   LIG    1       26.549 -17.530   4.266  0.00  0.00    +0.049 A 
ATOM      9  I   LIG    1       28.441 -16.596   4.642  0.00  0.00    -0.041 I 
ENDROOT
BRANCH   1  11
ATOM     10  C   LIG    1       28.500 -19.434   5.776  0.00  0.00    +0.243 C 
ATOM     11  N   LIG    1       27.357 -19.715   5.044  0.00  0.00    -0.282 N 
ATOM     12  H   LIG    1       27.521 -20.356   4.266  0.00  0.00    +0.155 HD
ATOM     13  O   LIG    1       28.783 -18.325   6.221  0.00  0.00    -0.273 OA
BRANCH  10  14
ATOM     14  C   LIG    1       29.415 -20.645   5.974  0.00  0.00    +0.255 C 
BRANCH  14  16
ATOM     15  C   LIG    1       27.465 -21.358   7.059  0.00  0.00    +0.194 C 
ATOM     16  O   LIG    1       28.863 -21.568   6.901  0.00  0.00    -0.374 OA
ENDBRANCH  14  16
ENDBRANCH  10  14
ENDBRANCH   1  11
BRANCH   4  17
ATOM     17  C   LIG    1       22.831 -19.349   3.638  0.00  0.00    +0.248 C 
ATOM     18  N   LIG    1       22.657 -20.731   3.837  0.00  0.00    -0.298 N 
ATOM     19  C   LIG    1       23.472 -21.527   4.713  0.00  0.00    +0.132 C 
ATOM     20  O   LIG    1       22.044 -18.712   2.925  0.00  0.00    -0.270 OA
BRANCH  18  21
ATOM     21  C   LIG    1       21.670 -21.494   3.035  0.00  0.00    +0.141 C 
BRANCH  21  22
ATOM     22  C   LIG    1       20.185 -21.401   3.498  0.00  0.00    +0.157 C 
BRANCH  22  23
ATOM     23  O   LIG    1       20.117 -21.414   4.929  0.00  0.00    -0.388 OA
ATOM     24  H   LIG    1       21.035 -21.580   5.223  0.00  0.00    +0.210 HD
ENDBRANCH  22  23
BRANCH  22  25
ATOM     25  C   LIG    1       19.373 -20.189   2.996  0.00  0.00    +0.188 C 
BRANCH  25  26
ATOM     26  O   LIG    1       19.474 -19.110   3.927  0.00  0.00    -0.392 OA
ATOM     27  H   LIG    1       19.416 -19.511   4.817  0.00  0.00    +0.209 HD
ENDBRANCH  25  26
ENDBRANCH  22  25
ENDBRANCH  21  22
ENDBRANCH  18  21
ENDBRANCH   4  17
BRANCH   7  28
ATOM     28  C   LIG    1       25.651 -15.519   2.877  0.00  0.00    +0.246 C 
ATOM     29  N   LIG    1       26.893 -14.844   3.039  0.00  0.00    -0.309 N 
ATOM     30  H   LIG    1       27.652 -15.295   3.533  0.00  0.00    +0.149 HD
ATOM     31  O   LIG    1       24.788 -15.150   2.185  0.00  0.00    -0.270 OA
BRANCH  29  32
ATOM     32  C   LIG    1       27.246 -13.609   2.327  0.00  0.00    +0.138 C 
BRANCH  32  33
ATOM     33  C   LIG    1       28.120 -12.620   3.132  0.00  0.00    +0.157 C 
BRANCH  33  34
ATOM     34  O   LIG    1       29.475 -13.063   3.196  0.00  0.00    -0.388 OA
ATOM     35  H   LIG    1       30.024 -12.485   2.643  0.00  0.00    +0.210 HD
ENDBRANCH  33  34
BRANCH  33  36
ATOM     36  C   LIG    1       27.569 -12.426   4.557  0.00  0.00    +0.188 C 
BRANCH  36  37
ATOM     37  O   LIG    1       26.183 -12.733   4.633  0.00  0.00    -0.392 OA
ATOM     38  H   LIG    1       26.019 -13.523   4.090  0.00  0.00    +0.209 HD
ENDBRANCH  36  37
ENDBRANCH  33  36
ENDBRANCH  32  33
ENDBRANCH  29  32
ENDBRANCH   7  28
TORSDOF 15
ENDMDL
MODEL 2
REMARK VINA RESULT:      17.2      2.109      5.956
REMARK  Name = *****
REMARK                            x       y       z     vdW  Elec       q    Type
REMARK                         _______ _______ _______ _____ _____    ______ ____
ROOT
ATOM      1  C   LIG    1       23.609 -18.141   3.827  0.00  0.00    +0.061 A 
ATOM      2  C   LIG    1       24.643 -19.121   3.798  0.00  0.00    +0.049 A 
ATOM      3  I   LIG    1       24.473 -20.945   2.665  0.00  0.00    -0.041 I 
ATOM      4  C   LIG    1       25.960 -18.765   4.083  0.00  0.00    +0.066 A 
ATOM      5  C   LIG    1       26.250 -17.402   3.985  0.00  0.00    +0.040 A 
ATOM      6  I   LIG    1       27.282 -17.123   1.813  0.00  0.00    -0.042 I 
ATOM      7  C   LIG    1       25.292 -16.367   4.078  0.00  0.00    +0.065 A 
ATOM      8  C   LIG    1       23.952 -16.774   3.974  0.00  0.00    +0.049 A 
ATOM      9  I   LIG    1       22.490 -15.308   3.416  0.00  0.00    -0.041 I 
ENDROOT
BRANCH   1  11
ATOM     10  C   LIG    1       21.267 -18.478   3.119  0.00  0.00    +0.243 C 
ATOM     11  N   LIG    1       22.270 -18.562   4.073  0.00  0.00    -0.282 N 
ATOM     12  H   LIG    1       21.930 -18.454   5.029  0.00  0.00    +0.155 HD
ATOM     13  O   LIG    1       21.383 -17.904   2.040  0.00  0.00    -0.273 OA
BRANCH  10  14
ATOM     14  C   LIG    1       19.963 -19.160   3.540  0.00  0.00    +0.255 C 
BRANCH  14  16
ATOM     15  C   LIG    1       21.486 -20.606   4.579  0.00  0.00    +0.194 C 
ATOM     16  O   LIG    1       20.171 -20.062   4.617  0.00  0.00    -0.374 OA
ENDBRANCH  14  16
ENDBRANCH  10  14
ENDBRANCH   1  11
BRANCH   4  17
ATOM     17  C   LIG    1       26.805 -19.675   4.961  0.00  0.00    +0.248 C 
ATOM     18  N   LIG    1       26.302 -20.253   6.140  0.00  0.00    -0.298 N 
ATOM     19  C   LIG    1       24.969 -20.044   6.634  0.00  0.00    +0.132 C 
ATOM     20  O   LIG    1       27.941 -19.957   4.555  0.00  0.00    -0.270 OA
BRANCH  18  21
ATOM     21  C   LIG    1       27.186 -21.038   7.037  0.00  0.00    +0.141 C 
BRANCH  21  22
ATOM     22  C   LIG    1       28.717 -20.918   6.773  0.00  0.00    +0.157 C 
BRANCH  22  23
ATOM     23  O   LIG    1       29.011 -21.287   5.421  0.00  0.00    -0.388 OA
ATOM     24  H   LIG    1       29.804 -20.766   5.185  0.00  0.00    +0.210 HD
ENDBRANCH  22  23
BRANCH  22  25
ATOM     25  C   LIG    1       29.364 -19.543   7.040  0.00  0.00    +0.188 C 
BRANCH  25  26
ATOM     26  O   LIG    1       29.132 -18.668   5.934  0.00  0.00    -0.392 OA
ATOM     27  H   LIG    1       29.057 -19.240   5.145  0.00  0.00    +0.209 HD
ENDBRANCH  25  26
ENDBRANCH  22  25
ENDBRANCH  21  22
ENDBRANCH  18  21
ENDBRANCH   4  17
BRANCH   7  28
ATOM     28  C   LIG    1       25.774 -14.992   4.501  0.00  0.00    +0.246 C 
ATOM     29  N   LIG    1       24.722 -14.123   4.904  0.00  0.00    -0.309 N 
ATOM     30  H   LIG    1       23.804 -14.499   5.099  0.00  0.00    +0.149 HD
ATOM     31  O   LIG    1       26.894 -14.674   4.419  0.00  0.00    -0.270 OA
BRANCH  29  32
ATOM     32  C   LIG    1       24.929 -12.722   5.293  0.00  0.00    +0.138 C 
BRANCH  32  33
ATOM     33  C   LIG    1       23.936 -11.718   4.664  0.00  0.00    +0.157 C 
BRANCH  33  34
ATOM     34  O   LIG    1       22.611 -11.930   5.150  0.00  0.00    -0.388 OA
ATOM     35  H   LIG    1       22.014 -11.285   4.737  0.00  0.00    +0.210 HD
ENDBRANCH  33  34
BRANCH  33  36
ATOM     36  C   LIG    1       23.947 -11.815   3.128  0.00  0.00    +0.188 C 
BRANCH  36  37
ATOM     37  O   LIG    1       25.074 -12.539   2.653  0.00  0.00    -0.392 OA
ATOM     38  H   LIG    1       25.465 -12.038   1.915  0.00  0.00    +0.209 HD
ENDBRANCH  36  37
ENDBRANCH  33  36
ENDBRANCH  32  33
ENDBRANCH  29  32
ENDBRANCH   7  28
TORSDOF 15
ENDMDL
