MODEL 1
REMARK VINA RESULT:      -2.5      0.000      0.000
REMARK  Name = *****
REMARK                            x       y       z     vdW  Elec       q    Type
REMARK                         _______ _______ _______ _____ _____    ______ ____
ROOT
ATOM      1  C   LIG    1       21.793 -16.814   4.650  0.00  0.00    +0.155 C 
ATOM      2  N   LIG    1       23.184 -16.822   4.236  0.00  0.00    -0.280 N 
ATOM      3  C   LIG    1       23.808 -18.031   3.924  0.00  0.00    +0.333 C 
ATOM      4  O   LIG    1       23.225 -19.114   4.034  0.00  0.00    -0.246 OA
ATOM      5  N   LIG    1       25.145 -17.969   3.490  0.00  0.00    -0.262 N 
ATOM      6  C   LIG    1       25.809 -19.224   3.194  0.00  0.00    +0.157 C 
ATOM      7  C   LIG    1       25.923 -16.819   3.469  0.00  0.00    +0.282 C 
ATOM      8  O   LIG    1       27.145 -16.837   3.291  0.00  0.00    -0.265 OA
ATOM      9  C   LIG    1       25.195 -15.630   3.729  0.00  0.00    +0.151 A 
ATOM     10  N   LIG    1       25.542 -14.306   3.707  0.00  0.00    -0.322 N 
ATOM     11  C   LIG    1       24.422 -13.596   4.066  0.00  0.00    +0.202 A 
ATOM     12  N   LIG    1       23.402 -14.391   4.318  0.00  0.00    -0.218 NA
ATOM     13  C   LIG    1       23.880 -15.645   4.096  0.00  0.00    +0.168 A 
ENDROOT
BRANCH  10  14
ATOM     14  C   LIG    1       26.793 -13.727   3.269  0.00  0.00    +0.157 C 
BRANCH  14  15
ATOM     15  C   LIG    1       27.874 -13.606   4.350  0.00  0.00    +0.160 C 
BRANCH  15  16
ATOM     16  O   LIG    1       27.205 -13.398   5.606  0.00  0.00    -0.388 OA
ATOM     17  H   LIG    1       26.818 -12.498   5.541  0.00  0.00    +0.210 HD
ENDBRANCH  15  16
BRANCH  15  18
ATOM     18  C   LIG    1       28.869 -12.456   4.152  0.00  0.00    +0.188 C 
BRANCH  18  19
ATOM     19  O   LIG    1       29.121 -11.820   5.404  0.00  0.00    -0.392 OA
ATOM     20  H   LIG    1       29.192 -10.857   5.226  0.00  0.00    +0.209 HD
ENDBRANCH  18  19
ENDBRANCH  15  18
ENDBRANCH  14  15
ENDBRANCH  10  14
TORSDOF 5
ENDMDL
MODEL 2
REMARK VINA RESULT:      -2.4      2.977      4.155
REMARK  Name = *****
REMARK                            x       y       z     vdW  Elec       q    Type
REMARK                         _______ _______ _______ _____ _____    ______ ____
ROOT
ATOM      1  C   LIG    1       24.969 -21.541   5.818  0.00  0.00    +0.155 C 
ATOM      2  N   LIG    1       26.000 -20.544   5.599  0.00  0.00    -0.280 N 
ATOM      3  C   LIG    1       27.230 -20.662   6.249  0.00  0.00    +0.333 C 
ATOM      4  O   LIG    1       27.459 -21.572   7.052  0.00  0.00    -0.246 OA
ATOM      5  N   LIG    1       28.202 -19.686   5.963  0.00  0.00    -0.262 N 
ATOM      6  C   LIG    1       29.471 -19.785   6.659  0.00  0.00    +0.157 C 
ATOM      7  C   LIG    1       27.991 -18.554   5.188  0.00  0.00    +0.282 C 
ATOM      8  O   LIG    1       28.791 -17.614   5.136  0.00  0.00    -0.265 OA
ATOM      9  C   LIG    1       26.745 -18.549   4.509  0.00  0.00    +0.151 A 
ATOM     10  N   LIG    1       26.193 -17.698   3.590  0.00  0.00    -0.322 N 
ATOM     11  C   LIG    1       24.944 -18.189   3.295  0.00  0.00    +0.202 A 
ATOM     12  N   LIG    1       24.678 -19.285   3.976  0.00  0.00    -0.218 NA
ATOM     13  C   LIG    1       25.798 -19.510   4.715  0.00  0.00    +0.168 A 
ENDROOT
BRANCH  10  14
ATOM     14  C   LIG    1       26.823 -16.571   2.937  0.00  0.00    +0.157 C 
BRANCH  14  15
ATOM     15  C   LIG    1       26.246 -15.198   3.300  0.00  0.00    +0.160 C 
BRANCH  15  16
ATOM     16  O   LIG    1       26.105 -14.454   2.077  0.00  0.00    -0.388 OA
ATOM     17  H   LIG    1       26.531 -15.011   1.391  0.00  0.00    +0.210 HD
ENDBRANCH  15  16
BRANCH  15  18
ATOM     18  C   LIG    1       27.102 -14.363   4.261  0.00  0.00    +0.188 C 
BRANCH  18  19
ATOM     19  O   LIG    1       28.398 -14.165   3.700  0.00  0.00    -0.392 OA
ATOM     20  H   LIG    1       28.579 -13.200   3.732  0.00  0.00    +0.209 HD
ENDBRANCH  18  19
ENDBRANCH  15  18
ENDBRANCH  14  15
ENDBRANCH  10  14
TORSDOF 5
ENDMDL
MODEL 3
REMARK VINA RESULT:      -2.3      1.937      6.186
REMARK  Name = *****
REMARK                            x       y       z     vdW  Elec       q    Type
REMARK                         _______ _______ _______ _____ _____    ______ ____
ROOT
ATOM      1  C   LIG    1       28.078 -14.207   3.316  0.00  0.00    +0.155 C 
ATOM      2  N   LIG    1       26.683 -14.503   3.581  0.00  0.00    -0.280 N 
ATOM      3  C   LIG    1       25.790 -13.462   3.847  0.00  0.00    +0.333 C 
ATOM      4  O   LIG    1       26.161 -12.286   3.911  0.00  0.00    -0.246 OA
ATOM      5  N   LIG    1       24.443 -13.810   4.055  0.00  0.00    -0.262 N 
ATOM      6  C   LIG    1       23.517 -12.737   4.361  0.00  0.00    +0.157 C 
ATOM      7  C   LIG    1       23.960 -15.109   4.141  0.00  0.00    +0.282 C 
ATOM      8  O   LIG    1       22.822 -15.379   4.539  0.00  0.00    -0.265 OA
ATOM      9  C   LIG    1       24.913 -16.099   3.789  0.00  0.00    +0.151 A 
ATOM     10  N   LIG    1       24.828 -17.458   3.645  0.00  0.00    -0.322 N 
ATOM     11  C   LIG    1       26.084 -17.899   3.304  0.00  0.00    +0.202 A 
ATOM     12  N   LIG    1       26.947 -16.906   3.235  0.00  0.00    -0.218 NA
ATOM     13  C   LIG    1       26.216 -15.795   3.522  0.00  0.00    +0.168 A 
ENDROOT
BRANCH  10  14
ATOM     14  C   LIG    1       23.640 -18.281   3.702  0.00  0.00    +0.157 C 
BRANCH  14  15
ATOM     15  C   LIG    1       23.805 -19.620   4.432  0.00  0.00    +0.160 C 
BRANCH  15  16
ATOM     16  O   LIG    1       23.965 -20.639   3.432  0.00  0.00    -0.388 OA
ATOM     17  H   LIG    1       23.668 -21.469   3.865  0.00  0.00    +0.210 HD
ENDBRANCH  15  16
BRANCH  15  18
ATOM     18  C   LIG    1       22.629 -20.023   5.331  0.00  0.00    +0.188 C 
BRANCH  18  19
ATOM     19  O   LIG    1       22.083 -21.260   4.879  0.00  0.00    -0.392 OA
ATOM     20  H   LIG    1       22.841 -21.856   4.691  0.00  0.00    +0.209 HD
ENDBRANCH  18  19
ENDBRANCH  15  18
ENDBRANCH  14  15
ENDBRANCH  10  14
TORSDOF 5
ENDMDL
MODEL 4
REMARK VINA RESULT:      -2.3      3.544      6.629
REMARK  Name = *****
REMARK                            x       y       z     vdW  Elec       q    Type
REMARK                         _______ _______ _______ _____ _____    ______ ____
ROOT
ATOM      1  C   LIG    1       27.664 -16.755   3.678  0.00  0.00    +0.155 C 
ATOM      2  N   LIG    1       27.474 -17.991   4.413  0.00  0.00    -0.280 N 
ATOM      3  C   LIG    1       28.413 -18.382   5.370  0.00  0.00    +0.333 C 
ATOM      4  O   LIG    1       29.438 -17.727   5.583  0.00  0.00    -0.246 OA
ATOM      5  N   LIG    1       28.151 -19.569   6.078  0.00  0.00    -0.262 N 
ATOM      6  C   LIG    1       29.138 -19.996   7.051  0.00  0.00    +0.157 C 
ATOM      7  C   LIG    1       27.103 -20.440   5.812  0.00  0.00    +0.282 C 
ATOM      8  O   LIG    1       27.028 -21.572   6.302  0.00  0.00    -0.265 OA
ATOM      9  C   LIG    1       26.160 -19.935   4.881  0.00  0.00    +0.151 A 
ATOM     10  N   LIG    1       24.960 -20.411   4.425  0.00  0.00    -0.322 N 
ATOM     11  C   LIG    1       24.494 -19.499   3.509  0.00  0.00    +0.202 A 
ATOM     12  N   LIG    1       25.329 -18.490   3.358  0.00  0.00    -0.218 NA
ATOM     13  C   LIG    1       26.350 -18.758   4.217  0.00  0.00    +0.168 A 
ENDROOT
BRANCH  10  14
ATOM     14  C   LIG    1       24.234 -21.572   4.892  0.00  0.00    +0.157 C 
BRANCH  14  15
ATOM     15  C   LIG    1       22.958 -21.270   5.687  0.00  0.00    +0.160 C 
BRANCH  15  16
ATOM     16  O   LIG    1       21.852 -21.347   4.772  0.00  0.00    -0.388 OA
ATOM     17  H   LIG    1       22.038 -22.134   4.215  0.00  0.00    +0.210 HD
ENDBRANCH  15  16
BRANCH  15  18
ATOM     18  C   LIG    1       22.917 -19.892   6.359  0.00  0.00    +0.188 C 
BRANCH  18  19
ATOM     19  O   LIG    1       22.252 -18.963   5.506  0.00  0.00    -0.392 OA
ATOM     20  H   LIG    1       22.315 -19.317   4.592  0.00  0.00    +0.209 HD
ENDBRANCH  18  19
ENDBRANCH  15  18
ENDBRANCH  14  15
ENDBRANCH  10  14
TORSDOF 5
ENDMDL
MODEL 5
REMARK VINA RESULT:      -2.1      2.820      4.367
REMARK  Name = *****
REMARK                            x       y       z     vdW  Elec       q    Type
REMARK                         _______ _______ _______ _____ _____    ______ ____
ROOT
ATOM      1  C   LIG    1       26.071 -21.572   7.054  0.00  0.00    +0.155 C 
ATOM      2  N   LIG    1       25.437 -20.691   6.091  0.00  0.00    -0.280 N 
ATOM      3  C   LIG    1       24.052 -20.738   5.915  0.00  0.00    +0.333 C 
ATOM      4  O   LIG    1       23.344 -21.545   6.524  0.00  0.00    -0.246 OA
ATOM      5  N   LIG    1       23.492 -19.830   4.997  0.00  0.00    -0.262 N 
ATOM      6  C   LIG    1       22.058 -19.895   4.787  0.00  0.00    +0.157 C 
ATOM      7  C   LIG    1       24.217 -18.986   4.167  0.00  0.00    +0.282 C 
ATOM      8  O   LIG    1       23.709 -18.367   3.227  0.00  0.00    -0.265 OA
ATOM      9  C   LIG    1       25.605 -18.949   4.460  0.00  0.00    +0.151 A 
ATOM     10  N   LIG    1       26.637 -18.197   3.967  0.00  0.00    -0.322 N 
ATOM     11  C   LIG    1       27.774 -18.610   4.617  0.00  0.00    +0.202 A 
ATOM     12  N   LIG    1       27.520 -19.576   5.478  0.00  0.00    -0.218 NA
ATOM     13  C   LIG    1       26.177 -19.773   5.386  0.00  0.00    +0.168 A 
ENDROOT
BRANCH  10  14
ATOM     14  C   LIG    1       26.560 -17.089   3.041  0.00  0.00    +0.157 C 
BRANCH  14  15
ATOM     15  C   LIG    1       26.249 -15.727   3.674  0.00  0.00    +0.160 C 
BRANCH  15  16
ATOM     16  O   LIG    1       24.846 -15.476   3.487  0.00  0.00    -0.388 OA
ATOM     17  H   LIG    1       24.747 -14.504   3.581  0.00  0.00    +0.210 HD
ENDBRANCH  15  16
BRANCH  15  18
ATOM     18  C   LIG    1       27.021 -14.541   3.084  0.00  0.00    +0.188 C 
BRANCH  18  19
ATOM     19  O   LIG    1       26.475 -14.198   1.812  0.00  0.00    -0.392 OA
ATOM     20  H   LIG    1       27.172 -14.375   1.144  0.00  0.00    +0.209 HD
ENDBRANCH  18  19
ENDBRANCH  15  18
ENDBRANCH  14  15
ENDBRANCH  10  14
TORSDOF 5
ENDMDL
MODEL 6
REMARK VINA RESULT:      -2.0      2.148      5.226
REMARK  Name = *****
REMARK                            x       y       z     vdW  Elec       q    Type
REMARK                         _______ _______ _______ _____ _____    ______ ____
ROOT
ATOM      1  C   LIG    1       22.383 -14.852   5.051  0.00  0.00    +0.155 C 
ATOM      2  N   LIG    1       23.431 -15.683   4.488  0.00  0.00    -0.280 N 
ATOM      3  C   LIG    1       24.658 -15.114   4.140  0.00  0.00    +0.333 C 
ATOM      4  O   LIG    1       24.869 -13.902   4.252  0.00  0.00    -0.246 OA
ATOM      5  N   LIG    1       25.647 -15.979   3.639  0.00  0.00    -0.262 N 
ATOM      6  C   LIG    1       26.912 -15.388   3.247  0.00  0.00    +0.157 C 
ATOM      7  C   LIG    1       25.457 -17.323   3.348  0.00  0.00    +0.282 C 
ATOM      8  O   LIG    1       26.274 -17.996   2.710  0.00  0.00    -0.265 OA
ATOM      9  C   LIG    1       24.213 -17.836   3.797  0.00  0.00    +0.151 A 
ATOM     10  N   LIG    1       23.678 -19.096   3.805  0.00  0.00    -0.322 N 
ATOM     11  C   LIG    1       22.422 -18.989   4.351  0.00  0.00    +0.202 A 
ATOM     12  N   LIG    1       22.135 -17.744   4.675  0.00  0.00    -0.218 NA
ATOM     13  C   LIG    1       23.250 -17.038   4.343  0.00  0.00    +0.168 A 
ENDROOT
BRANCH  10  14
ATOM     14  C   LIG    1       24.329 -20.336   3.443  0.00  0.00    +0.157 C 
BRANCH  14  15
ATOM     15  C   LIG    1       24.858 -21.166   4.619  0.00  0.00    +0.160 C 
BRANCH  15  16
ATOM     16  O   LIG    1       23.726 -21.555   5.415  0.00  0.00    -0.388 OA
ATOM     17  H   LIG    1       23.321 -22.306   4.929  0.00  0.00    +0.210 HD
ENDBRANCH  15  16
BRANCH  15  18
ATOM     18  C   LIG    1       25.851 -20.440   5.536  0.00  0.00    +0.188 C 
BRANCH  18  19
ATOM     19  O   LIG    1       27.018 -20.088   4.796  0.00  0.00    -0.392 OA
ATOM     20  H   LIG    1       27.570 -20.897   4.730  0.00  0.00    +0.209 HD
ENDBRANCH  18  19
ENDBRANCH  15  18
ENDBRANCH  14  15
ENDBRANCH  10  14
TORSDOF 5
ENDMDL
MODEL 7
REMARK VINA RESULT:      -1.8      1.804      5.415
REMARK  Name = *****
REMARK                            x       y       z     vdW  Elec       q    Type
REMARK                         _______ _______ _______ _____ _____    ______ ____
ROOT
ATOM      1  C   LIG    1       23.079 -13.551   4.923  0.00  0.00    +0.155 C 
ATOM      2  N   LIG    1       23.948 -14.601   4.427  0.00  0.00    -0.280 N 
ATOM      3  C   LIG    1       25.265 -14.303   4.071  0.00  0.00    +0.333 C 
ATOM      4  O   LIG    1       25.709 -13.151   4.119  0.00  0.00    -0.246 OA
ATOM      5  N   LIG    1       26.070 -15.371   3.636  0.00  0.00    -0.262 N 
ATOM      6  C   LIG    1       27.429 -15.063   3.235  0.00  0.00    +0.157 C 
ATOM      7  C   LIG    1       25.622 -16.667   3.417  0.00  0.00    +0.282 C 
ATOM      8  O   LIG    1       26.296 -17.522   2.832  0.00  0.00    -0.265 OA
ATOM      9  C   LIG    1       24.299 -16.901   3.871  0.00  0.00    +0.151 A 
ATOM     10  N   LIG    1       23.528 -18.030   3.939  0.00  0.00    -0.322 N 
ATOM     11  C   LIG    1       22.312 -17.649   4.454  0.00  0.00    +0.202 A 
ATOM     12  N   LIG    1       22.273 -16.356   4.704  0.00  0.00    -0.218 NA
ATOM     13  C   LIG    1       23.506 -15.901   4.354  0.00  0.00    +0.168 A 
ENDROOT
BRANCH  10  14
ATOM     14  C   LIG    1       23.926 -19.392   3.658  0.00  0.00    +0.157 C 
BRANCH  14  15
ATOM     15  C   LIG    1       24.815 -20.047   4.722  0.00  0.00    +0.160 C 
BRANCH  15  16
ATOM     16  O   LIG    1       26.132 -20.177   4.162  0.00  0.00    -0.388 OA
ATOM     17  H   LIG    1       26.420 -19.257   3.974  0.00  0.00    +0.210 HD
ENDBRANCH  15  16
BRANCH  15  18
ATOM     18  C   LIG    1       24.362 -21.438   5.185  0.00  0.00    +0.188 C 
BRANCH  18  19
ATOM     19  O   LIG    1       22.954 -21.570   4.998  0.00  0.00    -0.392 OA
ATOM     20  H   LIG    1       22.521 -21.076   5.727  0.00  0.00    +0.209 HD
ENDBRANCH  18  19
ENDBRANCH  15  18
ENDBRANCH  14  15
ENDBRANCH  10  14
TORSDOF 5
ENDMDL
MODEL 8
REMARK VINA RESULT:      -1.5      2.322      3.475
REMARK  Name = *****
REMARK                            x       y       z     vdW  Elec       q    Type
REMARK                         _______ _______ _______ _____ _____    ______ ____
ROOT
ATOM      1  C   LIG    1       26.038 -19.587   3.155  0.00  0.00    +0.155 C 
ATOM      2  N   LIG    1       25.147 -18.497   3.508  0.00  0.00    -0.280 N 
ATOM      3  C   LIG    1       23.830 -18.770   3.881  0.00  0.00    +0.333 C 
ATOM      4  O   LIG    1       23.375 -19.918   3.876  0.00  0.00    -0.246 OA
ATOM      5  N   LIG    1       23.028 -17.675   4.252  0.00  0.00    -0.262 N 
ATOM      6  C   LIG    1       21.650 -17.949   4.611  0.00  0.00    +0.157 C 
ATOM      7  C   LIG    1       23.406 -16.342   4.155  0.00  0.00    +0.282 C 
ATOM      8  O   LIG    1       22.610 -15.406   4.281  0.00  0.00    -0.265 OA
ATOM      9  C   LIG    1       24.777 -16.157   3.840  0.00  0.00    +0.151 A 
ATOM     10  N   LIG    1       25.565 -15.041   3.750  0.00  0.00    -0.322 N 
ATOM     11  C   LIG    1       26.819 -15.471   3.388  0.00  0.00    +0.202 A 
ATOM     12  N   LIG    1       26.862 -16.779   3.239  0.00  0.00    -0.218 NA
ATOM     13  C   LIG    1       25.602 -17.200   3.532  0.00  0.00    +0.168 A 
ENDROOT
BRANCH  10  14
ATOM     14  C   LIG    1       25.214 -13.680   4.090  0.00  0.00    +0.157 C 
BRANCH  14  15
ATOM     15  C   LIG    1       24.557 -12.872   2.965  0.00  0.00    +0.160 C 
BRANCH  15  16
ATOM     16  O   LIG    1       25.607 -12.390   2.110  0.00  0.00    -0.388 OA
ATOM     17  H   LIG    1       26.316 -13.068   2.173  0.00  0.00    +0.210 HD
ENDBRANCH  15  16
BRANCH  15  18
ATOM     18  C   LIG    1       23.733 -11.663   3.425  0.00  0.00    +0.188 C 
BRANCH  18  19
ATOM     19  O   LIG    1       23.770 -11.570   4.847  0.00  0.00    -0.392 OA
ATOM     20  H   LIG    1       22.936 -11.963   5.182  0.00  0.00    +0.209 HD
ENDBRANCH  18  19
ENDBRANCH  15  18
ENDBRANCH  14  15
ENDBRANCH  10  14
TORSDOF 5
ENDMDL
MODEL 9
REMARK VINA RESULT:      -1.4      1.463      2.736
REMARK  Name = *****
REMARK                            x       y       z     vdW  Elec       q    Type
REMARK                         _______ _______ _______ _____ _____    ______ ____
ROOT
ATOM      1  C   LIG    1       24.795 -19.771   3.468  0.00  0.00    +0.155 C 
ATOM      2  N   LIG    1       24.435 -18.390   3.729  0.00  0.00    -0.280 N 
ATOM      3  C   LIG    1       23.150 -18.081   4.181  0.00  0.00    +0.333 C 
ATOM      4  O   LIG    1       22.283 -18.948   4.324  0.00  0.00    -0.246 OA
ATOM      5  N   LIG    1       22.875 -16.729   4.455  0.00  0.00    -0.262 N 
ATOM      6  C   LIG    1       21.533 -16.398   4.895  0.00  0.00    +0.157 C 
ATOM      7  C   LIG    1       23.735 -15.671   4.192  0.00  0.00    +0.282 C 
ATOM      8  O   LIG    1       23.383 -14.488   4.241  0.00  0.00    -0.265 OA
ATOM      9  C   LIG    1       25.039 -16.076   3.805  0.00  0.00    +0.151 A 
ATOM     10  N   LIG    1       26.191 -15.380   3.559  0.00  0.00    -0.322 N 
ATOM     11  C   LIG    1       27.143 -16.304   3.201  0.00  0.00    +0.202 A 
ATOM     12  N   LIG    1       26.657 -17.529   3.200  0.00  0.00    -0.218 NA
ATOM     13  C   LIG    1       25.361 -17.385   3.587  0.00  0.00    +0.168 A 
ENDROOT
BRANCH  10  14
ATOM     14  C   LIG    1       26.430 -13.967   3.755  0.00  0.00    +0.157 C 
BRANCH  14  15
ATOM     15  C   LIG    1       27.499 -13.623   4.799  0.00  0.00    +0.160 C 
BRANCH  15  16
ATOM     16  O   LIG    1       26.820 -13.112   5.958  0.00  0.00    -0.388 OA
ATOM     17  H   LIG    1       25.954 -13.574   5.969  0.00  0.00    +0.210 HD
ENDBRANCH  15  16
BRANCH  15  18
ATOM     18  C   LIG    1       28.529 -12.575   4.358  0.00  0.00    +0.188 C 
BRANCH  18  19
ATOM     19  O   LIG    1       29.027 -11.882   5.500  0.00  0.00    -0.392 OA
ATOM     20  H   LIG    1       29.993 -12.053   5.541  0.00  0.00    +0.209 HD
ENDBRANCH  18  19
ENDBRANCH  15  18
ENDBRANCH  14  15
ENDBRANCH  10  14
TORSDOF 5
ENDMDL
