MODEL 1
REMARK VINA RESULT:      -3.4      0.000      0.000
REMARK  Name = *****
REMARK                            x       y       z     vdW  Elec       q    Type
REMARK                         _______ _______ _______ _____ _____    ______ ____
ROOT
ATOM      1  C   LIG    1       24.167 -18.203   3.741  0.00  0.00    +0.189 A 
ATOM      2  S   LIG    1       23.932 -16.525   3.952  0.00  0.00    -0.011 S 
ATOM      3  C   LIG    1       25.555 -16.347   3.454  0.00  0.00    +0.256 A 
ATOM      4  N   LIG    1       26.180 -17.462   3.133  0.00  0.00    -0.119 NA
ATOM      5  N   LIG    1       25.355 -18.547   3.305  0.00  0.00    -0.124 NA
ENDROOT
BRANCH   1   8
ATOM      6  C   LIG    1       24.470 -20.400   5.608  0.00  0.00    +0.109 C 
ATOM      7  C   LIG    1       23.173 -20.071   4.910  0.00  0.00    +0.216 C 
ATOM      8  N   LIG    1       23.110 -19.006   4.058  0.00  0.00    -0.264 N 
ATOM      9  H   LIG    1       22.200 -18.799   3.668  0.00  0.00    +0.157 HD
ATOM     10  O   LIG    1       22.157 -20.738   5.114  0.00  0.00    -0.276 OA
ENDBRANCH   1   8
BRANCH   3  11
ATOM     11  S   LIG    1       26.295 -14.755   3.396  0.00  0.00    +0.082 S 
ATOM     12  O   LIG    1       25.551 -13.941   4.322  0.00  0.00    -0.151 OA
ATOM     13  O   LIG    1       26.431 -14.439   1.991  0.00  0.00    -0.151 OA
BRANCH  11  14
ATOM     14  N   LIG    1       27.860 -14.911   4.019  0.00  0.00    -0.202 NA
ATOM     15  H   LIG    1       28.560 -14.892   3.276  0.00  0.00    +0.144 HD
ATOM     16  H   LIG    1       28.040 -14.228   4.756  0.00  0.00    +0.144 HD
ENDBRANCH  11  14
ENDBRANCH   3  11
TORSDOF 3
ENDMDL
MODEL 2
REMARK VINA RESULT:      -3.2      4.052      5.595
REMARK  Name = *****
REMARK                            x       y       z     vdW  Elec       q    Type
REMARK                         _______ _______ _______ _____ _____    ______ ____
ROOT
ATOM      1  C   LIG    1       26.006 -21.152   6.265  0.00  0.00    +0.189 A 
ATOM      2  S   LIG    1       25.673 -20.327   4.807  0.00  0.00    -0.011 S 
ATOM      3  C   LIG    1       24.053 -20.259   5.345  0.00  0.00    +0.256 A 
ATOM      4  N   LIG    1       23.822 -20.787   6.529  0.00  0.00    -0.119 NA
ATOM      5  N   LIG    1       24.975 -21.310   7.062  0.00  0.00    -0.124 NA
ENDROOT
BRANCH   1   8
ATOM      6  C   LIG    1       28.091 -19.287   7.022  0.00  0.00    +0.109 C 
ATOM      7  C   LIG    1       28.335 -20.756   6.777  0.00  0.00    +0.216 C 
ATOM      8  N   LIG    1       27.292 -21.572   6.441  0.00  0.00    -0.264 N 
ATOM      9  H   LIG    1       27.507 -22.556   6.348  0.00  0.00    +0.157 HD
ATOM     10  O   LIG    1       29.461 -21.240   6.896  0.00  0.00    -0.276 OA
ENDBRANCH   1   8
BRANCH   3  11
ATOM     11  S   LIG    1       22.816 -19.523   4.339  0.00  0.00    +0.082 S 
ATOM     12  O   LIG    1       21.655 -20.367   4.461  0.00  0.00    -0.151 OA
ATOM     13  O   LIG    1       23.461 -19.236   3.076  0.00  0.00    -0.151 OA
BRANCH  11  14
ATOM     14  N   LIG    1       22.423 -18.035   5.041  0.00  0.00    -0.202 NA
ATOM     15  H   LIG    1       23.261 -17.502   5.276  0.00  0.00    +0.144 HD
ATOM     16  H   LIG    1       21.764 -17.511   4.463  0.00  0.00    +0.144 HD
ENDBRANCH  11  14
ENDBRANCH   3  11
TORSDOF 3
ENDMDL
MODEL 3
REMARK VINA RESULT:      -3.2      1.424      1.495
REMARK  Name = *****
REMARK                            x       y       z     vdW  Elec       q    Type
REMARK                         _______ _______ _______ _____ _____    ______ ____
ROOT
ATOM      1  C   LIG    1       24.833 -17.503   3.524  0.00  0.00    +0.189 A 
ATOM      2  S   LIG    1       24.170 -15.991   3.963  0.00  0.00    -0.011 S 
ATOM      3  C   LIG    1       25.708 -15.339   3.608  0.00  0.00    +0.256 A 
ATOM      4  N   LIG    1       26.606 -16.197   3.171  0.00  0.00    -0.119 NA
ATOM      5  N   LIG    1       26.082 -17.467   3.125  0.00  0.00    -0.124 NA
ENDROOT
BRANCH   1   8
ATOM      6  C   LIG    1       25.777 -19.973   4.712  0.00  0.00    +0.109 C 
ATOM      7  C   LIG    1       24.380 -19.787   4.175  0.00  0.00    +0.216 C 
ATOM      8  N   LIG    1       24.008 -18.583   3.648  0.00  0.00    -0.264 N 
ATOM      9  H   LIG    1       23.042 -18.500   3.359  0.00  0.00    +0.157 HD
ATOM     10  O   LIG    1       23.555 -20.700   4.225  0.00  0.00    -0.276 OA
ENDBRANCH   1   8
BRANCH   3  11
ATOM     11  S   LIG    1       26.016 -13.624   3.836  0.00  0.00    +0.082 S 
ATOM     12  O   LIG    1       26.480 -13.484   5.192  0.00  0.00    -0.151 OA
ATOM     13  O   LIG    1       24.847 -12.946   3.321  0.00  0.00    -0.151 OA
BRANCH  11  14
ATOM     14  N   LIG    1       27.308 -13.213   2.824  0.00  0.00    -0.202 NA
ATOM     15  H   LIG    1       28.162 -13.704   3.092  0.00  0.00    +0.144 HD
ATOM     16  H   LIG    1       27.067 -13.337   1.840  0.00  0.00    +0.144 HD
ENDBRANCH  11  14
ENDBRANCH   3  11
TORSDOF 3
ENDMDL
MODEL 4
REMARK VINA RESULT:      -2.8      2.017      2.316
REMARK  Name = *****
REMARK                            x       y       z     vdW  Elec       q    Type
REMARK                         _______ _______ _______ _____ _____    ______ ____
ROOT
ATOM      1  C   LIG    1       25.755 -17.274   3.499  0.00  0.00    +0.189 A 
ATOM      2  S   LIG    1       27.255 -16.475   3.670  0.00  0.00    -0.011 S 
ATOM      3  C   LIG    1       26.357 -15.023   3.660  0.00  0.00    +0.256 A 
ATOM      4  N   LIG    1       25.050 -15.160   3.568  0.00  0.00    -0.119 NA
ATOM      5  N   LIG    1       24.706 -16.486   3.474  0.00  0.00    -0.124 NA
ENDROOT
BRANCH   1   8
ATOM      6  C   LIG    1       23.407 -18.894   4.013  0.00  0.00    +0.109 C 
ATOM      7  C   LIG    1       24.750 -19.469   3.636  0.00  0.00    +0.216 C 
ATOM      8  N   LIG    1       25.803 -18.633   3.392  0.00  0.00    -0.264 N 
ATOM      9  H   LIG    1       26.661 -19.073   3.085  0.00  0.00    +0.157 HD
ATOM     10  O   LIG    1       24.910 -20.685   3.522  0.00  0.00    -0.276 OA
ENDBRANCH   1   8
BRANCH   3  11
ATOM     11  S   LIG    1       27.178 -13.473   3.762  0.00  0.00    +0.082 S 
ATOM     12  O   LIG    1       27.151 -13.104   5.154  0.00  0.00    -0.151 OA
ATOM     13  O   LIG    1       26.605 -12.659   2.712  0.00  0.00    -0.151 OA
BRANCH  11  14
ATOM     14  N   LIG    1       28.797 -13.740   3.350  0.00  0.00    -0.202 NA
ATOM     15  H   LIG    1       29.347 -14.020   4.163  0.00  0.00    +0.144 HD
ATOM     16  H   LIG    1       28.882 -14.388   2.566  0.00  0.00    +0.144 HD
ENDBRANCH  11  14
ENDBRANCH   3  11
TORSDOF 3
ENDMDL
MODEL 5
REMARK VINA RESULT:      -2.7      2.384      5.288
REMARK  Name = *****
REMARK                            x       y       z     vdW  Elec       q    Type
REMARK                         _______ _______ _______ _____ _____    ______ ____
ROOT
ATOM      1  C   LIG    1       24.803 -15.662   3.572  0.00  0.00    +0.189 A 
ATOM      2  S   LIG    1       23.751 -16.896   4.111  0.00  0.00    -0.011 S 
ATOM      3  C   LIG    1       24.990 -17.988   3.677  0.00  0.00    +0.256 A 
ATOM      4  N   LIG    1       26.092 -17.444   3.204  0.00  0.00    -0.119 NA
ATOM      5  N   LIG    1       25.973 -16.077   3.146  0.00  0.00    -0.124 NA
ENDROOT
BRANCH   1   8
ATOM      6  C   LIG    1       26.184 -13.602   5.072  0.00  0.00    +0.109 C 
ATOM      7  C   LIG    1       24.895 -13.367   4.325  0.00  0.00    +0.216 C 
ATOM      8  N   LIG    1       24.317 -14.388   3.625  0.00  0.00    -0.264 N 
ATOM      9  H   LIG    1       23.488 -14.155   3.096  0.00  0.00    +0.157 HD
ATOM     10  O   LIG    1       24.361 -12.257   4.315  0.00  0.00    -0.276 OA
ENDBRANCH   1   8
BRANCH   3  11
ATOM     11  S   LIG    1       24.751 -19.718   3.866  0.00  0.00    +0.082 S 
ATOM     12  O   LIG    1       24.511 -20.231   2.542  0.00  0.00    -0.151 OA
ATOM     13  O   LIG    1       23.812 -19.865   4.958  0.00  0.00    -0.151 OA
BRANCH  11  14
ATOM     14  N   LIG    1       26.221 -20.369   4.392  0.00  0.00    -0.202 NA
ATOM     15  H   LIG    1       26.214 -20.541   5.398  0.00  0.00    +0.144 HD
ATOM     16  H   LIG    1       26.483 -21.191   3.846  0.00  0.00    +0.144 HD
ENDBRANCH  11  14
ENDBRANCH   3  11
TORSDOF 3
ENDMDL
MODEL 6
REMARK VINA RESULT:      -2.7      1.376      1.501
REMARK  Name = *****
REMARK                            x       y       z     vdW  Elec       q    Type
REMARK                         _______ _______ _______ _____ _____    ______ ____
ROOT
ATOM      1  C   LIG    1       24.629 -18.141   3.664  0.00  0.00    +0.189 A 
ATOM      2  S   LIG    1       26.166 -17.482   3.316  0.00  0.00    -0.011 S 
ATOM      3  C   LIG    1       25.442 -15.954   3.554  0.00  0.00    +0.256 A 
ATOM      4  N   LIG    1       24.170 -15.971   3.895  0.00  0.00    -0.119 NA
ATOM      5  N   LIG    1       23.701 -17.261   3.957  0.00  0.00    -0.124 NA
ENDROOT
BRANCH   1   8
ATOM      6  C   LIG    1       22.733 -19.583   5.316  0.00  0.00    +0.109 C 
ATOM      7  C   LIG    1       23.672 -20.254   4.344  0.00  0.00    +0.216 C 
ATOM      8  N   LIG    1       24.523 -19.499   3.588  0.00  0.00    -0.264 N 
ATOM      9  H   LIG    1       25.085 -20.000   2.913  0.00  0.00    +0.157 HD
ATOM     10  O   LIG    1       23.669 -21.478   4.203  0.00  0.00    -0.276 OA
ENDBRANCH   1   8
BRANCH   3  11
ATOM     11  S   LIG    1       26.382 -14.486   3.338  0.00  0.00    +0.082 S 
ATOM     12  O   LIG    1       25.750 -13.488   4.163  0.00  0.00    -0.151 OA
ATOM     13  O   LIG    1       26.558 -14.342   1.909  0.00  0.00    -0.151 OA
BRANCH  11  14
ATOM     14  N   LIG    1       27.914 -14.775   3.996  0.00  0.00    -0.202 NA
ATOM     15  H   LIG    1       28.640 -14.273   3.483  0.00  0.00    +0.144 HD
ATOM     16  H   LIG    1       27.932 -14.589   4.999  0.00  0.00    +0.144 HD
ENDBRANCH  11  14
ENDBRANCH   3  11
TORSDOF 3
ENDMDL
MODEL 7
REMARK VINA RESULT:      -2.6      3.060      3.467
REMARK  Name = *****
REMARK                            x       y       z     vdW  Elec       q    Type
REMARK                         _______ _______ _______ _____ _____    ______ ____
ROOT
ATOM      1  C   LIG    1       27.647 -17.264   4.184  0.00  0.00    +0.189 A 
ATOM      2  S   LIG    1       27.904 -15.604   4.491  0.00  0.00    -0.011 S 
ATOM      3  C   LIG    1       26.575 -15.320   3.456  0.00  0.00    +0.256 A 
ATOM      4  N   LIG    1       25.993 -16.395   2.967  0.00  0.00    -0.119 NA
ATOM      5  N   LIG    1       26.629 -17.533   3.400  0.00  0.00    -0.124 NA
ENDROOT
BRANCH   1   8
ATOM      6  C   LIG    1       26.742 -19.781   5.302  0.00  0.00    +0.109 C 
ATOM      7  C   LIG    1       28.179 -19.323   5.335  0.00  0.00    +0.216 C 
ATOM      8  N   LIG    1       28.526 -18.129   4.768  0.00  0.00    -0.264 N 
ATOM      9  H   LIG    1       29.512 -17.905   4.768  0.00  0.00    +0.157 HD
ATOM     10  O   LIG    1       29.055 -20.020   5.848  0.00  0.00    -0.276 OA
ENDBRANCH   1   8
BRANCH   3  11
ATOM     11  S   LIG    1       26.066 -13.678   3.099  0.00  0.00    +0.082 S 
ATOM     12  O   LIG    1       25.425 -13.194   4.294  0.00  0.00    -0.151 OA
ATOM     13  O   LIG    1       25.404 -13.746   1.814  0.00  0.00    -0.151 OA
BRANCH  11  14
ATOM     14  N   LIG    1       27.469 -12.758   2.881  0.00  0.00    -0.202 NA
ATOM     15  H   LIG    1       27.929 -12.564   3.771  0.00  0.00    +0.144 HD
ATOM     16  H   LIG    1       28.092 -13.183   2.192  0.00  0.00    +0.144 HD
ENDBRANCH  11  14
ENDBRANCH   3  11
TORSDOF 3
ENDMDL
MODEL 8
REMARK VINA RESULT:      -2.5      1.721      2.072
REMARK  Name = *****
REMARK                            x       y       z     vdW  Elec       q    Type
REMARK                         _______ _______ _______ _____ _____    ______ ____
ROOT
ATOM      1  C   LIG    1       24.596 -18.016   3.697  0.00  0.00    +0.189 A 
ATOM      2  S   LIG    1       26.088 -17.293   3.286  0.00  0.00    -0.011 S 
ATOM      3  C   LIG    1       25.312 -15.797   3.561  0.00  0.00    +0.256 A 
ATOM      4  N   LIG    1       24.058 -15.868   3.956  0.00  0.00    -0.119 NA
ATOM      5  N   LIG    1       23.646 -17.176   4.032  0.00  0.00    -0.124 NA
ENDROOT
BRANCH   1   8
ATOM      6  C   LIG    1       22.675 -19.524   5.258  0.00  0.00    +0.109 C 
ATOM      7  C   LIG    1       23.684 -20.162   4.335  0.00  0.00    +0.216 C 
ATOM      8  N   LIG    1       24.543 -19.377   3.619  0.00  0.00    -0.264 N 
ATOM      9  H   LIG    1       25.155 -19.858   2.973  0.00  0.00    +0.157 HD
ATOM     10  O   LIG    1       23.733 -21.385   4.197  0.00  0.00    -0.276 OA
ENDBRANCH   1   8
BRANCH   3  11
ATOM     11  S   LIG    1       26.181 -14.290   3.313  0.00  0.00    +0.082 S 
ATOM     12  O   LIG    1       26.670 -14.336   1.959  0.00  0.00    -0.151 OA
ATOM     13  O   LIG    1       27.042 -14.142   4.465  0.00  0.00    -0.151 OA
BRANCH  11  14
ATOM     14  N   LIG    1       25.041 -13.042   3.387  0.00  0.00    -0.202 NA
ATOM     15  H   LIG    1       24.798 -12.703   2.455  0.00  0.00    +0.144 HD
ATOM     16  H   LIG    1       24.227 -13.310   3.941  0.00  0.00    +0.144 HD
ENDBRANCH  11  14
ENDBRANCH   3  11
TORSDOF 3
ENDMDL
MODEL 9
REMARK VINA RESULT:      -2.4      2.625      5.736
REMARK  Name = *****
REMARK                            x       y       z     vdW  Elec       q    Type
REMARK                         _______ _______ _______ _____ _____    ______ ____
ROOT
ATOM      1  C   LIG    1       26.675 -15.740   3.461  0.00  0.00    +0.189 A 
ATOM      2  S   LIG    1       27.223 -17.339   3.708  0.00  0.00    -0.011 S 
ATOM      3  C   LIG    1       25.577 -17.793   3.652  0.00  0.00    +0.256 A 
ATOM      4  N   LIG    1       24.722 -16.816   3.434  0.00  0.00    -0.119 NA
ATOM      5  N   LIG    1       25.377 -15.613   3.323  0.00  0.00    -0.124 NA
ENDROOT
BRANCH   1   8
ATOM      6  C   LIG    1       26.560 -13.509   5.308  0.00  0.00    +0.109 C 
ATOM      7  C   LIG    1       27.641 -13.677   4.269  0.00  0.00    +0.216 C 
ATOM      8  N   LIG    1       27.633 -14.769   3.449  0.00  0.00    -0.264 N 
ATOM      9  H   LIG    1       28.416 -14.857   2.814  0.00  0.00    +0.157 HD
ATOM     10  O   LIG    1       28.550 -12.853   4.162  0.00  0.00    -0.276 OA
ENDBRANCH   1   8
BRANCH   3  11
ATOM     11  S   LIG    1       25.113 -19.472   3.882  0.00  0.00    +0.082 S 
ATOM     12  O   LIG    1       25.007 -20.037   2.561  0.00  0.00    -0.151 OA
ATOM     13  O   LIG    1       24.018 -19.447   4.827  0.00  0.00    -0.151 OA
BRANCH  11  14
ATOM     14  N   LIG    1       26.408 -20.245   4.650  0.00  0.00    -0.202 NA
ATOM     15  H   LIG    1       27.125 -19.577   4.934  0.00  0.00    +0.144 HD
ATOM     16  H   LIG    1       26.088 -20.839   5.416  0.00  0.00    +0.144 HD
ENDBRANCH  11  14
ENDBRANCH   3  11
TORSDOF 3
ENDMDL
