MODEL 1
REMARK VINA RESULT:      -5.4      0.000      0.000
REMARK  Name = *****
REMARK                            x       y       z     vdW  Elec       q    Type
REMARK                         _______ _______ _______ _____ _____    ______ ____
ROOT
ATOM      1  C   LIG    1       22.442 -28.769  12.357  0.00  0.00    +0.061 A 
ATOM      2  C   LIG    1       23.563 -28.292  13.058  0.00  0.00    +0.049 A 
ATOM      3  I   LIG    1       23.284 -26.689  14.454  0.00  0.00    -0.041 I 
ATOM      4  C   LIG    1       24.834 -28.782  12.730  0.00  0.00    +0.066 A 
ATOM      5  C   LIG    1       24.981 -29.414  11.488  0.00  0.00    +0.040 A 
ATOM      6  I   LIG    1       26.578 -28.664  10.261  0.00  0.00    -0.042 I 
ATOM      7  C   LIG    1       23.889 -30.042  10.846  0.00  0.00    +0.065 A 
ATOM      8  C   LIG    1       22.621 -29.803  11.399  0.00  0.00    +0.049 A 
ATOM      9  I   LIG    1       21.089 -31.288  11.300  0.00  0.00    -0.041 I 
ENDROOT
BRANCH   1  11
ATOM     10  C   LIG    1       20.489 -28.756  13.839  0.00  0.00    +0.243 C 
ATOM     11  N   LIG    1       21.156 -28.279  12.715  0.00  0.00    -0.282 N 
ATOM     12  H   LIG    1       20.550 -28.019  11.941  0.00  0.00    +0.155 HD
ATOM     13  O   LIG    1       20.934 -29.630  14.582  0.00  0.00    -0.273 OA
BRANCH  10  14
ATOM     14  C   LIG    1       19.110 -28.119  14.047  0.00  0.00    +0.255 C 
BRANCH  14  16
ATOM     15  C   LIG    1       17.911 -26.092  14.018  0.00  0.00    +0.194 C 
ATOM     16  O   LIG    1       19.190 -26.705  13.923  0.00  0.00    -0.374 OA
ENDBRANCH  14  16
ENDBRANCH  10  14
ENDBRANCH   1  11
BRANCH   4  17
ATOM     17  C   LIG    1       25.824 -28.984  13.847  0.00  0.00    +0.248 C 
ATOM     18  N   LIG    1       26.869 -28.070  14.087  0.00  0.00    -0.298 N 
ATOM     19  C   LIG    1       27.035 -26.739  13.513  0.00  0.00    +0.132 C 
ATOM     20  O   LIG    1       25.808 -30.052  14.454  0.00  0.00    -0.270 OA
BRANCH  18  21
ATOM     21  C   LIG    1       27.955 -28.498  14.996  0.00  0.00    +0.141 C 
BRANCH  21  22
ATOM     22  C   LIG    1       29.067 -29.281  14.250  0.00  0.00    +0.157 C 
BRANCH  22  23
ATOM     23  O   LIG    1       28.854 -30.697  14.303  0.00  0.00    -0.388 OA
ATOM     24  H   LIG    1       27.952 -30.843  14.654  0.00  0.00    +0.210 HD
ENDBRANCH  22  23
BRANCH  22  25
ATOM     25  C   LIG    1       30.456 -28.965  14.824  0.00  0.00    +0.188 C 
BRANCH  25  26
ATOM     26  O   LIG    1       31.414 -28.740  13.795  0.00  0.00    -0.392 OA
ATOM     27  H   LIG    1       30.944 -28.351  13.037  0.00  0.00    +0.209 HD
ENDBRANCH  25  26
ENDBRANCH  22  25
ENDBRANCH  21  22
ENDBRANCH  18  21
ENDBRANCH   4  17
BRANCH   7  28
ATOM     28  C   LIG    1       24.209 -31.081   9.812  0.00  0.00    +0.246 C 
ATOM     29  N   LIG    1       23.950 -30.834   8.486  0.00  0.00    -0.309 N 
ATOM     30  H   LIG    1       23.555 -29.940   8.210  0.00  0.00    +0.149 HD
ATOM     31  O   LIG    1       24.758 -32.136  10.193  0.00  0.00    -0.270 OA
BRANCH  29  32
ATOM     32  C   LIG    1       24.209 -31.821   7.413  0.00  0.00    +0.138 C 
BRANCH  32  33
ATOM     33  C   LIG    1       24.908 -31.209   6.183  0.00  0.00    +0.157 C 
BRANCH  33  34
ATOM     34  O   LIG    1       26.329 -31.305   6.352  0.00  0.00    -0.388 OA
ATOM     35  H   LIG    1       26.556 -30.615   7.001  0.00  0.00    +0.210 HD
ENDBRANCH  33  34
BRANCH  33  36
ATOM     36  C   LIG    1       24.535 -29.734   5.973  0.00  0.00    +0.188 C 
BRANCH  36  37
ATOM     37  O   LIG    1       23.192 -29.593   5.528  0.00  0.00    -0.392 OA
ATOM     38  H   LIG    1       22.961 -28.651   5.611  0.00  0.00    +0.209 HD
ENDBRANCH  36  37
ENDBRANCH  33  36
ENDBRANCH  32  33
ENDBRANCH  29  32
ENDBRANCH   7  28
TORSDOF 15
ENDMDL
MODEL 2
REMARK VINA RESULT:      -5.0      2.539      6.348
REMARK  Name = *****
REMARK                            x       y       z     vdW  Elec       q    Type
REMARK                         _______ _______ _______ _____ _____    ______ ____
ROOT
ATOM      1  C   LIG    1       21.128 -29.571  12.456  0.00  0.00    +0.061 A 
ATOM      2  C   LIG    1       21.461 -30.487  11.443  0.00  0.00    +0.049 A 
ATOM      3  I   LIG    1       19.897 -31.692  10.606  0.00  0.00    -0.041 I 
ATOM      4  C   LIG    1       22.808 -30.679  11.110  0.00  0.00    +0.066 A 
ATOM      5  C   LIG    1       23.769 -30.256  12.039  0.00  0.00    +0.040 A 
ATOM      6  I   LIG    1       25.226 -31.738  12.587  0.00  0.00    -0.042 I 
ATOM      7  C   LIG    1       23.499 -29.219  12.959  0.00  0.00    +0.065 A 
ATOM      8  C   LIG    1       22.162 -28.797  13.047  0.00  0.00    +0.049 A 
ATOM      9  I   LIG    1       21.686 -26.768  13.519  0.00  0.00    -0.041 I 
ENDROOT
BRANCH   1  11
ATOM     10  C   LIG    1       19.180 -29.946  13.898  0.00  0.00    +0.243 C 
ATOM     11  N   LIG    1       19.755 -29.371  12.768  0.00  0.00    -0.282 N 
ATOM     12  H   LIG    1       19.129 -29.282  11.973  0.00  0.00    +0.155 HD
ATOM     13  O   LIG    1       19.789 -30.670  14.684  0.00  0.00    -0.273 OA
BRANCH  10  14
ATOM     14  C   LIG    1       17.688 -29.628  14.052  0.00  0.00    +0.255 C 
BRANCH  14  16
ATOM     15  C   LIG    1       16.440 -30.978  12.580  0.00  0.00    +0.194 C 
ATOM     16  O   LIG    1       16.910 -30.809  13.911  0.00  0.00    -0.374 OA
ENDBRANCH  14  16
ENDBRANCH  10  14
ENDBRANCH   1  11
BRANCH   4  17
ATOM     17  C   LIG    1       23.152 -30.916   9.663  0.00  0.00    +0.248 C 
ATOM     18  N   LIG    1       23.482 -32.198   9.179  0.00  0.00    -0.298 N 
ATOM     19  C   LIG    1       23.326 -33.475   9.867  0.00  0.00    +0.132 C 
ATOM     20  O   LIG    1       23.301 -29.940   8.931  0.00  0.00    -0.270 OA
BRANCH  18  21
ATOM     21  C   LIG    1       24.091 -32.282   7.833  0.00  0.00    +0.141 C 
BRANCH  21  22
ATOM     22  C   LIG    1       25.623 -32.044   7.868  0.00  0.00    +0.157 C 
BRANCH  22  23
ATOM     23  O   LIG    1       25.960 -30.678   7.597  0.00  0.00    -0.388 OA
ATOM     24  H   LIG    1       26.868 -30.530   7.933  0.00  0.00    +0.210 HD
ENDBRANCH  22  23
BRANCH  22  25
ATOM     25  C   LIG    1       26.355 -32.946   6.864  0.00  0.00    +0.188 C 
BRANCH  25  26
ATOM     26  O   LIG    1       27.617 -32.405   6.490  0.00  0.00    -0.392 OA
ATOM     27  H   LIG    1       27.733 -32.562   5.538  0.00  0.00    +0.209 HD
ENDBRANCH  25  26
ENDBRANCH  22  25
ENDBRANCH  21  22
ENDBRANCH  18  21
ENDBRANCH   4  17
BRANCH   7  28
ATOM     28  C   LIG    1       24.678 -28.511  13.558  0.00  0.00    +0.246 C 
ATOM     29  N   LIG    1       25.473 -27.713  12.771  0.00  0.00    -0.309 N 
ATOM     30  H   LIG    1       25.249 -27.595  11.788  0.00  0.00    +0.149 HD
ATOM     31  O   LIG    1       24.871 -28.631  14.786  0.00  0.00    -0.270 OA
BRANCH  29  32
ATOM     32  C   LIG    1       26.670 -27.007  13.282  0.00  0.00    +0.138 C 
BRANCH  32  33
ATOM     33  C   LIG    1       26.627 -25.486  13.039  0.00  0.00    +0.157 C 
BRANCH  33  34
ATOM     34  O   LIG    1       27.911 -24.924  13.339  0.00  0.00    -0.388 OA
ATOM     35  H   LIG    1       28.212 -24.517  12.506  0.00  0.00    +0.210 HD
ENDBRANCH  33  34
BRANCH  33  36
ATOM     36  C   LIG    1       25.568 -24.786  13.904  0.00  0.00    +0.188 C 
BRANCH  36  37
ATOM     37  O   LIG    1       26.039 -23.539  14.397  0.00  0.00    -0.392 OA
ATOM     38  H   LIG    1       25.316 -23.146  14.918  0.00  0.00    +0.209 HD
ENDBRANCH  36  37
ENDBRANCH  33  36
ENDBRANCH  32  33
ENDBRANCH  29  32
ENDBRANCH   7  28
TORSDOF 15
ENDMDL
MODEL 3
REMARK VINA RESULT:      -4.8      1.889      6.246
REMARK  Name = *****
REMARK                            x       y       z     vdW  Elec       q    Type
REMARK                         _______ _______ _______ _____ _____    ______ ____
ROOT
ATOM      1  C   LIG    1       21.605 -29.720  12.503  0.00  0.00    +0.061 A 
ATOM      2  C   LIG    1       21.662 -30.748  11.548  0.00  0.00    +0.049 A 
ATOM      3  I   LIG    1       19.821 -31.477  10.725  0.00  0.00    -0.041 I 
ATOM      4  C   LIG    1       22.894 -31.352  11.265  0.00  0.00    +0.066 A 
ATOM      5  C   LIG    1       23.925 -31.183  12.200  0.00  0.00    +0.040 A 
ATOM      6  I   LIG    1       24.864 -32.999  12.864  0.00  0.00    -0.042 I 
ATOM      7  C   LIG    1       23.965 -30.062  13.060  0.00  0.00    +0.065 A 
ATOM      8  C   LIG    1       22.815 -29.257  13.087  0.00  0.00    +0.049 A 
ATOM      9  I   LIG    1       22.962 -27.156  13.443  0.00  0.00    -0.041 I 
ENDROOT
BRANCH   1  11
ATOM     10  C   LIG    1       19.689 -29.293  13.974  0.00  0.00    +0.243 C 
ATOM     11  N   LIG    1       20.351 -29.102  12.765  0.00  0.00    -0.282 N 
ATOM     12  H   LIG    1       19.739 -28.985  11.961  0.00  0.00    +0.155 HD
ATOM     13  O   LIG    1       20.112 -30.009  14.881  0.00  0.00    -0.273 OA
BRANCH  10  14
ATOM     14  C   LIG    1       18.345 -28.559  14.058  0.00  0.00    +0.255 C 
BRANCH  14  16
ATOM     15  C   LIG    1       18.319 -26.205  14.006  0.00  0.00    +0.194 C 
ATOM     16  O   LIG    1       18.477 -27.364  14.815  0.00  0.00    -0.374 OA
ENDBRANCH  14  16
ENDBRANCH  10  14
ENDBRANCH   1  11
BRANCH   4  17
ATOM     17  C   LIG    1       23.171 -31.761   9.843  0.00  0.00    +0.248 C 
ATOM     18  N   LIG    1       23.844 -30.911   8.943  0.00  0.00    -0.298 N 
ATOM     19  C   LIG    1       24.562 -29.679   9.253  0.00  0.00    +0.132 C 
ATOM     20  O   LIG    1       22.656 -32.795   9.422  0.00  0.00    -0.270 OA
BRANCH  18  21
ATOM     21  C   LIG    1       23.804 -31.267   7.508  0.00  0.00    +0.141 C 
BRANCH  21  22
ATOM     22  C   LIG    1       24.217 -30.081   6.599  0.00  0.00    +0.157 C 
BRANCH  22  23
ATOM     23  O   LIG    1       23.182 -29.728   5.673  0.00  0.00    -0.388 OA
ATOM     24  H   LIG    1       22.604 -30.512   5.570  0.00  0.00    +0.210 HD
ENDBRANCH  22  23
BRANCH  22  25
ATOM     25  C   LIG    1       25.500 -30.394   5.814  0.00  0.00    +0.188 C 
BRANCH  25  26
ATOM     26  O   LIG    1       26.331 -31.317   6.508  0.00  0.00    -0.392 OA
ATOM     27  H   LIG    1       27.064 -31.556   5.914  0.00  0.00    +0.209 HD
ENDBRANCH  25  26
ENDBRANCH  22  25
ENDBRANCH  21  22
ENDBRANCH  18  21
ENDBRANCH   4  17
BRANCH   7  28
ATOM     28  C   LIG    1       25.294 -29.706  13.657  0.00  0.00    +0.246 C 
ATOM     29  N   LIG    1       26.222 -29.022  12.910  0.00  0.00    -0.309 N 
ATOM     30  H   LIG    1       25.998 -28.748  11.959  0.00  0.00    +0.149 HD
ATOM     31  O   LIG    1       25.496 -30.003  14.853  0.00  0.00    -0.270 OA
BRANCH  29  32
ATOM     32  C   LIG    1       27.565 -28.662  13.420  0.00  0.00    +0.138 C 
BRANCH  32  33
ATOM     33  C   LIG    1       27.599 -27.292  14.125  0.00  0.00    +0.157 C 
BRANCH  33  34
ATOM     34  O   LIG    1       26.902 -27.388  15.374  0.00  0.00    -0.388 OA
ATOM     35  H   LIG    1       26.549 -26.495  15.538  0.00  0.00    +0.210 HD
ENDBRANCH  33  34
BRANCH  33  36
ATOM     36  C   LIG    1       26.949 -26.185  13.282  0.00  0.00    +0.188 C 
BRANCH  36  37
ATOM     37  O   LIG    1       27.743 -25.006  13.267  0.00  0.00    -0.392 OA
ATOM     38  H   LIG    1       27.271 -24.337  13.794  0.00  0.00    +0.209 HD
ENDBRANCH  36  37
ENDBRANCH  33  36
ENDBRANCH  32  33
ENDBRANCH  29  32
ENDBRANCH   7  28
TORSDOF 15
ENDMDL
MODEL 4
REMARK VINA RESULT:      -4.6      2.587      6.265
REMARK  Name = *****
REMARK                            x       y       z     vdW  Elec       q    Type
REMARK                         _______ _______ _______ _____ _____    ______ ____
ROOT
ATOM      1  C   LIG    1       20.912 -30.816  12.203  0.00  0.00    +0.061 A 
ATOM      2  C   LIG    1       21.297 -31.826  11.306  0.00  0.00    +0.049 A 
ATOM      3  I   LIG    1       19.762 -32.958  10.326  0.00  0.00    -0.041 I 
ATOM      4  C   LIG    1       22.654 -32.149  11.181  0.00  0.00    +0.066 A 
ATOM      5  C   LIG    1       23.512 -31.739  12.211  0.00  0.00    +0.040 A 
ATOM      6  I   LIG    1       24.741 -33.290  13.051  0.00  0.00    -0.042 I 
ATOM      7  C   LIG    1       23.212 -30.619  13.019  0.00  0.00    +0.065 A 
ATOM      8  C   LIG    1       21.919 -30.086  12.889  0.00  0.00    +0.049 A 
ATOM      9  I   LIG    1       21.568 -27.997  13.164  0.00  0.00    -0.041 I 
ENDROOT
BRANCH   1  11
ATOM     10  C   LIG    1       18.763 -30.907  13.382  0.00  0.00    +0.243 C 
ATOM     11  N   LIG    1       19.533 -30.483  12.302  0.00  0.00    -0.282 N 
ATOM     12  H   LIG    1       19.028 -30.419  11.422  0.00  0.00    +0.155 HD
ATOM     13  O   LIG    1       19.196 -31.601  14.301  0.00  0.00    -0.273 OA
BRANCH  10  14
ATOM     14  C   LIG    1       17.298 -30.464  13.300  0.00  0.00    +0.255 C 
BRANCH  14  16
ATOM     15  C   LIG    1       16.283 -32.440  12.518  0.00  0.00    +0.194 C 
ATOM     16  O   LIG    1       16.646 -31.100  12.210  0.00  0.00    -0.374 OA
ENDBRANCH  14  16
ENDBRANCH  10  14
ENDBRANCH   1  11
BRANCH   4  17
ATOM     17  C   LIG    1       23.172 -32.517   9.816  0.00  0.00    +0.248 C 
ATOM     18  N   LIG    1       23.560 -31.537   8.880  0.00  0.00    -0.298 N 
ATOM     19  C   LIG    1       23.756 -30.111   9.117  0.00  0.00    +0.132 C 
ATOM     20  O   LIG    1       23.101 -33.692   9.462  0.00  0.00    -0.270 OA
BRANCH  18  21
ATOM     21  C   LIG    1       23.765 -31.973   7.481  0.00  0.00    +0.141 C 
BRANCH  21  22
ATOM     22  C   LIG    1       24.285 -30.822   6.581  0.00  0.00    +0.157 C 
BRANCH  22  23
ATOM     23  O   LIG    1       23.319 -30.433   5.596  0.00  0.00    -0.388 OA
ATOM     24  H   LIG    1       23.610 -29.572   5.229  0.00  0.00    +0.210 HD
ENDBRANCH  22  23
BRANCH  22  25
ATOM     25  C   LIG    1       25.590 -31.211   5.870  0.00  0.00    +0.188 C 
BRANCH  25  26
ATOM     26  O   LIG    1       26.612 -31.562   6.797  0.00  0.00    -0.392 OA
ATOM     27  H   LIG    1       26.530 -32.514   6.977  0.00  0.00    +0.209 HD
ENDBRANCH  25  26
ENDBRANCH  22  25
ENDBRANCH  21  22
ENDBRANCH  18  21
ENDBRANCH   4  17
BRANCH   7  28
ATOM     28  C   LIG    1       24.357 -29.968  13.737  0.00  0.00    +0.246 C 
ATOM     29  N   LIG    1       25.432 -29.491  13.027  0.00  0.00    -0.309 N 
ATOM     30  H   LIG    1       25.440 -29.570  12.015  0.00  0.00    +0.149 HD
ATOM     31  O   LIG    1       24.269 -29.830  14.975  0.00  0.00    -0.270 OA
BRANCH  29  32
ATOM     32  C   LIG    1       26.611 -28.864  13.667  0.00  0.00    +0.138 C 
BRANCH  32  33
ATOM     33  C   LIG    1       27.571 -28.208  12.655  0.00  0.00    +0.157 C 
BRANCH  33  34
ATOM     34  O   LIG    1       27.269 -26.810  12.556  0.00  0.00    -0.388 OA
ATOM     35  H   LIG    1       28.126 -26.375  12.398  0.00  0.00    +0.210 HD
ENDBRANCH  33  34
BRANCH  33  36
ATOM     36  C   LIG    1       27.466 -28.836  11.258  0.00  0.00    +0.188 C 
BRANCH  36  37
ATOM     37  O   LIG    1       27.959 -30.169  11.246  0.00  0.00    -0.392 OA
ATOM     38  H   LIG    1       28.895 -30.130  11.510  0.00  0.00    +0.209 HD
ENDBRANCH  36  37
ENDBRANCH  33  36
ENDBRANCH  32  33
ENDBRANCH  29  32
ENDBRANCH   7  28
TORSDOF 15
ENDMDL
MODEL 5
REMARK VINA RESULT:      -4.3      2.511      2.930
REMARK  Name = *****
REMARK                            x       y       z     vdW  Elec       q    Type
REMARK                         _______ _______ _______ _____ _____    ______ ____
ROOT
ATOM      1  C   LIG    1       22.420 -30.533  10.862  0.00  0.00    +0.061 A 
ATOM      2  C   LIG    1       23.024 -29.741  11.853  0.00  0.00    +0.049 A 
ATOM      3  I   LIG    1       21.774 -28.469  13.044  0.00  0.00    -0.041 I 
ATOM      4  C   LIG    1       24.422 -29.706  11.942  0.00  0.00    +0.066 A 
ATOM      5  C   LIG    1       25.151 -30.137  10.825  0.00  0.00    +0.040 A 
ATOM      6  I   LIG    1       26.639 -28.759  10.115  0.00  0.00    -0.042 I 
ATOM      7  C   LIG    1       24.610 -31.064   9.905  0.00  0.00    +0.065 A 
ATOM      8  C   LIG    1       23.242 -31.348  10.039  0.00  0.00    +0.049 A 
ATOM      9  I   LIG    1       22.473 -33.276   9.532  0.00  0.00    -0.041 I 
ENDROOT
BRANCH   1  11
ATOM     10  C   LIG    1       20.261 -31.383  11.657  0.00  0.00    +0.243 C 
ATOM     11  N   LIG    1       21.000 -30.575  10.798  0.00  0.00    -0.282 N 
ATOM     12  H   LIG    1       20.595 -30.461   9.872  0.00  0.00    +0.155 HD
ATOM     13  O   LIG    1       20.762 -32.121  12.505  0.00  0.00    -0.273 OA
BRANCH  10  14
ATOM     14  C   LIG    1       18.748 -31.305  11.420  0.00  0.00    +0.255 C 
BRANCH  14  16
ATOM     15  C   LIG    1       18.224 -32.751   9.637  0.00  0.00    +0.194 C 
ATOM     16  O   LIG    1       18.456 -31.406  10.033  0.00  0.00    -0.374 OA
ENDBRANCH  14  16
ENDBRANCH  10  14
ENDBRANCH   1  11
BRANCH   4  17
ATOM     17  C   LIG    1       25.042 -29.625  13.312  0.00  0.00    +0.248 C 
ATOM     18  N   LIG    1       25.566 -28.419  13.820  0.00  0.00    -0.298 N 
ATOM     19  C   LIG    1       25.401 -27.077  13.271  0.00  0.00    +0.132 C 
ATOM     20  O   LIG    1       25.234 -30.671  13.928  0.00  0.00    -0.270 OA
BRANCH  18  21
ATOM     21  C   LIG    1       26.413 -28.500  15.030  0.00  0.00    +0.141 C 
BRANCH  21  22
ATOM     22  C   LIG    1       27.924 -28.558  14.684  0.00  0.00    +0.157 C 
BRANCH  22  23
ATOM     23  O   LIG    1       28.159 -28.401  13.279  0.00  0.00    -0.388 OA
ATOM     24  H   LIG    1       28.096 -29.290  12.872  0.00  0.00    +0.210 HD
ENDBRANCH  22  23
BRANCH  22  25
ATOM     25  C   LIG    1       28.556 -29.878  15.149  0.00  0.00    +0.188 C 
BRANCH  25  26
ATOM     26  O   LIG    1       28.111 -30.981  14.369  0.00  0.00    -0.392 OA
ATOM     27  H   LIG    1       27.376 -31.401  14.847  0.00  0.00    +0.209 HD
ENDBRANCH  25  26
ENDBRANCH  22  25
ENDBRANCH  21  22
ENDBRANCH  18  21
ENDBRANCH   4  17
BRANCH   7  28
ATOM     28  C   LIG    1       25.581 -31.826   9.053  0.00  0.00    +0.246 C 
ATOM     29  N   LIG    1       25.561 -31.679   7.687  0.00  0.00    -0.309 N 
ATOM     30  H   LIG    1       24.896 -31.040   7.261  0.00  0.00    +0.149 HD
ATOM     31  O   LIG    1       26.425 -32.545   9.628  0.00  0.00    -0.270 OA
BRANCH  29  32
ATOM     32  C   LIG    1       26.466 -32.420   6.779  0.00  0.00    +0.138 C 
BRANCH  32  33
ATOM     33  C   LIG    1       26.335 -31.985   5.306  0.00  0.00    +0.157 C 
BRANCH  33  34
ATOM     34  O   LIG    1       26.035 -30.584   5.253  0.00  0.00    -0.388 OA
ATOM     35  H   LIG    1       26.861 -30.137   5.511  0.00  0.00    +0.210 HD
ENDBRANCH  33  34
BRANCH  33  36
ATOM     36  C   LIG    1       25.230 -32.754   4.566  0.00  0.00    +0.188 C 
BRANCH  36  37
ATOM     37  O   LIG    1       25.203 -32.425   3.183  0.00  0.00    -0.392 OA
ATOM     38  H   LIG    1       24.560 -31.702   3.075  0.00  0.00    +0.209 HD
ENDBRANCH  36  37
ENDBRANCH  33  36
ENDBRANCH  32  33
ENDBRANCH  29  32
ENDBRANCH   7  28
TORSDOF 15
ENDMDL
MODEL 6
REMARK VINA RESULT:      -4.2      2.871      6.439
REMARK  Name = *****
REMARK                            x       y       z     vdW  Elec       q    Type
REMARK                         _______ _______ _______ _____ _____    ______ ____
ROOT
ATOM      1  C   LIG    1       24.259 -30.208  11.230  0.00  0.00    +0.061 A 
ATOM      2  C   LIG    1       25.245 -29.632  12.049  0.00  0.00    +0.049 A 
ATOM      3  I   LIG    1       26.971 -28.769  11.114  0.00  0.00    -0.041 I 
ATOM      4  C   LIG    1       25.137 -29.757  13.441  0.00  0.00    +0.066 A 
ATOM      5  C   LIG    1       24.288 -30.757  13.935  0.00  0.00    +0.040 A 
ATOM      6  I   LIG    1       25.178 -32.087  15.369  0.00  0.00    -0.042 I 
ATOM      7  C   LIG    1       23.190 -31.231  13.182  0.00  0.00    +0.065 A 
ATOM      8  C   LIG    1       23.131 -30.819  11.840  0.00  0.00    +0.049 A 
ATOM      9  I   LIG    1       21.251 -30.543  10.865  0.00  0.00    -0.041 I 
ENDROOT
BRANCH   1  11
ATOM     10  C   LIG    1       24.811 -31.099   9.013  0.00  0.00    +0.243 C 
ATOM     11  N   LIG    1       24.371 -30.055   9.821  0.00  0.00    -0.282 N 
ATOM     12  H   LIG    1       24.634 -29.128   9.496  0.00  0.00    +0.155 HD
ATOM     13  O   LIG    1       25.150 -32.201   9.442  0.00  0.00    -0.273 OA
BRANCH  10  14
ATOM     14  C   LIG    1       24.880 -30.733   7.526  0.00  0.00    +0.255 C 
BRANCH  14  16
ATOM     15  C   LIG    1       24.302 -28.831   6.264  0.00  0.00    +0.194 C 
ATOM     16  O   LIG    1       23.853 -29.811   7.191  0.00  0.00    -0.374 OA
ENDBRANCH  14  16
ENDBRANCH  10  14
ENDBRANCH   1  11
BRANCH   4  17
ATOM     17  C   LIG    1       25.572 -28.593  14.291  0.00  0.00    +0.248 C 
ATOM     18  N   LIG    1       24.879 -27.365  14.281  0.00  0.00    -0.298 N 
ATOM     19  C   LIG    1       23.575 -27.086  13.688  0.00  0.00    +0.132 C 
ATOM     20  O   LIG    1       26.646 -28.671  14.882  0.00  0.00    -0.270 OA
BRANCH  18  21
ATOM     21  C   LIG    1       25.544 -26.201  14.907  0.00  0.00    +0.141 C 
BRANCH  21  22
ATOM     22  C   LIG    1       25.298 -24.891  14.113  0.00  0.00    +0.157 C 
BRANCH  22  23
ATOM     23  O   LIG    1       26.134 -24.802  12.953  0.00  0.00    -0.388 OA
ATOM     24  H   LIG    1       27.031 -24.554  13.259  0.00  0.00    +0.210 HD
ENDBRANCH  22  23
BRANCH  22  25
ATOM     25  C   LIG    1       25.530 -23.652  14.990  0.00  0.00    +0.188 C 
BRANCH  25  26
ATOM     26  O   LIG    1       25.405 -22.447  14.245  0.00  0.00    -0.392 OA
ATOM     27  H   LIG    1       24.772 -22.611  13.525  0.00  0.00    +0.209 HD
ENDBRANCH  25  26
ENDBRANCH  22  25
ENDBRANCH  21  22
ENDBRANCH  18  21
ENDBRANCH   4  17
BRANCH   7  28
ATOM     28  C   LIG    1       22.085 -31.908  13.936  0.00  0.00    +0.246 C 
ATOM     29  N   LIG    1       21.221 -31.166  14.703  0.00  0.00    -0.309 N 
ATOM     30  H   LIG    1       21.327 -30.157  14.745  0.00  0.00    +0.149 HD
ATOM     31  O   LIG    1       21.952 -33.142  13.797  0.00  0.00    -0.270 OA
BRANCH  29  32
ATOM     32  C   LIG    1       20.125 -31.765  15.499  0.00  0.00    +0.138 C 
BRANCH  32  33
ATOM     33  C   LIG    1       18.724 -31.433  14.949  0.00  0.00    +0.157 C 
BRANCH  33  34
ATOM     34  O   LIG    1       18.594 -31.980  13.630  0.00  0.00    -0.388 OA
ATOM     35  H   LIG    1       17.893 -31.455  13.204  0.00  0.00    +0.210 HD
ENDBRANCH  33  34
BRANCH  33  36
ATOM     36  C   LIG    1       18.466 -29.921  14.882  0.00  0.00    +0.188 C 
BRANCH  36  37
ATOM     37  O   LIG    1       18.884 -29.374  13.638  0.00  0.00    -0.392 OA
ATOM     38  H   LIG    1       19.086 -28.434  13.792  0.00  0.00    +0.209 HD
ENDBRANCH  36  37
ENDBRANCH  33  36
ENDBRANCH  32  33
ENDBRANCH  29  32
ENDBRANCH   7  28
TORSDOF 15
ENDMDL
MODEL 7
REMARK VINA RESULT:      -3.9      2.294      6.472
REMARK  Name = *****
REMARK                            x       y       z     vdW  Elec       q    Type
REMARK                         _______ _______ _______ _____ _____    ______ ____
ROOT
ATOM      1  C   LIG    1       24.118 -31.037  10.959  0.00  0.00    +0.061 A 
ATOM      2  C   LIG    1       25.255 -30.339  11.397  0.00  0.00    +0.049 A 
ATOM      3  I   LIG    1       27.028 -30.422  10.194  0.00  0.00    -0.041 I 
ATOM      4  C   LIG    1       25.239 -29.728  12.658  0.00  0.00    +0.066 A 
ATOM      5  C   LIG    1       24.265 -30.156  13.570  0.00  0.00    +0.040 A 
ATOM      6  I   LIG    1       25.010 -30.738  15.500  0.00  0.00    -0.042 I 
ATOM      7  C   LIG    1       23.041 -30.713  13.134  0.00  0.00    +0.065 A 
ATOM      8  C   LIG    1       22.950 -31.024  11.768  0.00  0.00    +0.049 A 
ATOM      9  I   LIG    1       21.079 -30.903  10.744  0.00  0.00    -0.041 I 
ENDROOT
BRANCH   1  11
ATOM     10  C   LIG    1       23.925 -30.879   8.519  0.00  0.00    +0.243 C 
ATOM     11  N   LIG    1       24.141 -31.634   9.668  0.00  0.00    -0.282 N 
ATOM     12  H   LIG    1       23.801 -32.590   9.617  0.00  0.00    +0.155 HD
ATOM     13  O   LIG    1       23.682 -29.673   8.526  0.00  0.00    -0.273 OA
BRANCH  10  14
ATOM     14  C   LIG    1       23.971 -31.705   7.228  0.00  0.00    +0.255 C 
BRANCH  14  16
ATOM     15  C   LIG    1       25.409 -31.118   5.457  0.00  0.00    +0.194 C 
ATOM     16  O   LIG    1       24.169 -30.860   6.103  0.00  0.00    -0.374 OA
ENDBRANCH  14  16
ENDBRANCH  10  14
ENDBRANCH   1  11
BRANCH   4  17
ATOM     17  C   LIG    1       25.948 -28.408  12.813  0.00  0.00    +0.248 C 
ATOM     18  N   LIG    1       25.241 -27.201  12.989  0.00  0.00    -0.298 N 
ATOM     19  C   LIG    1       23.820 -27.039  13.279  0.00  0.00    +0.132 C 
ATOM     20  O   LIG    1       27.161 -28.371  12.623  0.00  0.00    -0.270 OA
BRANCH  18  21
ATOM     21  C   LIG    1       25.996 -25.939  12.832  0.00  0.00    +0.141 C 
BRANCH  21  22
ATOM     22  C   LIG    1       26.026 -25.109  14.141  0.00  0.00    +0.157 C 
BRANCH  22  23
ATOM     23  O   LIG    1       25.453 -23.808  13.965  0.00  0.00    -0.388 OA
ATOM     24  H   LIG    1       26.193 -23.176  13.853  0.00  0.00    +0.210 HD
ENDBRANCH  22  23
BRANCH  22  25
ATOM     25  C   LIG    1       27.458 -24.953  14.675  0.00  0.00    +0.188 C 
BRANCH  25  26
ATOM     26  O   LIG    1       28.296 -26.025  14.257  0.00  0.00    -0.392 OA
ATOM     27  H   LIG    1       27.832 -26.855  14.457  0.00  0.00    +0.209 HD
ENDBRANCH  25  26
ENDBRANCH  22  25
ENDBRANCH  21  22
ENDBRANCH  18  21
ENDBRANCH   4  17
BRANCH   7  28
ATOM     28  C   LIG    1       21.895 -30.687  14.102  0.00  0.00    +0.246 C 
ATOM     29  N   LIG    1       21.289 -29.496  14.418  0.00  0.00    -0.309 N 
ATOM     30  H   LIG    1       21.612 -28.637  13.982  0.00  0.00    +0.149 HD
ATOM     31  O   LIG    1       21.489 -31.777  14.557  0.00  0.00    -0.270 OA
BRANCH  29  32
ATOM     32  C   LIG    1       20.174 -29.386  15.386  0.00  0.00    +0.138 C 
BRANCH  32  33
ATOM     33  C   LIG    1       18.909 -28.744  14.783  0.00  0.00    +0.157 C 
BRANCH  33  34
ATOM     34  O   LIG    1       18.514 -29.483  13.619  0.00  0.00    -0.388 OA
ATOM     35  H   LIG    1       17.753 -30.021  13.905  0.00  0.00    +0.210 HD
ENDBRANCH  33  34
BRANCH  33  36
ATOM     36  C   LIG    1       19.132 -27.278  14.384  0.00  0.00    +0.188 C 
BRANCH  36  37
ATOM     37  O   LIG    1       19.813 -27.174  13.140  0.00  0.00    -0.392 OA
ATOM     38  H   LIG    1       20.475 -26.465  13.235  0.00  0.00    +0.209 HD
ENDBRANCH  36  37
ENDBRANCH  33  36
ENDBRANCH  32  33
ENDBRANCH  29  32
ENDBRANCH   7  28
TORSDOF 15
ENDMDL
MODEL 8
REMARK VINA RESULT:      -3.2      4.223      6.779
REMARK  Name = *****
REMARK                            x       y       z     vdW  Elec       q    Type
REMARK                         _______ _______ _______ _____ _____    ______ ____
ROOT
ATOM      1  C   LIG    1       25.649 -28.924   7.846  0.00  0.00    +0.061 A 
ATOM      2  C   LIG    1       25.881 -29.472   9.119  0.00  0.00    +0.049 A 
ATOM      3  I   LIG    1       26.607 -28.179  10.668  0.00  0.00    -0.041 I 
ATOM      4  C   LIG    1       25.760 -30.856   9.300  0.00  0.00    +0.066 A 
ATOM      5  C   LIG    1       25.798 -31.662   8.154  0.00  0.00    +0.040 A 
ATOM      6  I   LIG    1       27.223 -33.270   8.213  0.00  0.00    -0.042 I 
ATOM      7  C   LIG    1       25.410 -31.165   6.889  0.00  0.00    +0.065 A 
ATOM      8  C   LIG    1       25.207 -29.778   6.801  0.00  0.00    +0.049 A 
ATOM      9  I   LIG    1       23.759 -28.971   5.453  0.00  0.00    -0.041 I 
ENDROOT
BRANCH   1  11
ATOM     10  C   LIG    1       26.251 -26.959   6.508  0.00  0.00    +0.243 C 
ATOM     11  N   LIG    1       25.753 -27.515   7.683  0.00  0.00    -0.282 N 
ATOM     12  H   LIG    1       25.965 -26.986   8.524  0.00  0.00    +0.155 HD
ATOM     13  O   LIG    1       26.650 -27.622   5.551  0.00  0.00    -0.273 OA
BRANCH  10  14
ATOM     14  C   LIG    1       26.302 -25.427   6.531  0.00  0.00    +0.255 C 
BRANCH  14  16
ATOM     15  C   LIG    1       24.049 -25.019   5.980  0.00  0.00    +0.194 C 
ATOM     16  O   LIG    1       25.404 -24.884   5.572  0.00  0.00    -0.374 OA
ENDBRANCH  14  16
ENDBRANCH  10  14
ENDBRANCH   1  11
BRANCH   4  17
ATOM     17  C   LIG    1       25.188 -31.352  10.602  0.00  0.00    +0.248 C 
ATOM     18  N   LIG    1       23.833 -31.160  10.939  0.00  0.00    -0.298 N 
ATOM     19  C   LIG    1       22.756 -30.705  10.065  0.00  0.00    +0.132 C 
ATOM     20  O   LIG    1       25.962 -31.791  11.449  0.00  0.00    -0.270 OA
BRANCH  18  21
ATOM     21  C   LIG    1       23.438 -31.407  12.342  0.00  0.00    +0.141 C 
BRANCH  21  22
ATOM     22  C   LIG    1       23.002 -32.877  12.577  0.00  0.00    +0.157 C 
BRANCH  22  23
ATOM     23  O   LIG    1       23.569 -33.766  11.606  0.00  0.00    -0.388 OA
ATOM     24  H   LIG    1       24.174 -34.371  12.084  0.00  0.00    +0.210 HD
ENDBRANCH  22  23
BRANCH  22  25
ATOM     25  C   LIG    1       21.473 -33.022  12.549  0.00  0.00    +0.188 C 
BRANCH  25  26
ATOM     26  O   LIG    1       20.821 -31.795  12.858  0.00  0.00    -0.392 OA
ATOM     27  H   LIG    1       21.120 -31.519  13.741  0.00  0.00    +0.209 HD
ENDBRANCH  25  26
ENDBRANCH  22  25
ENDBRANCH  21  22
ENDBRANCH  18  21
ENDBRANCH   4  17
BRANCH   7  28
ATOM     28  C   LIG    1       25.016 -32.173   5.850  0.00  0.00    +0.246 C 
ATOM     29  N   LIG    1       25.719 -32.257   4.673  0.00  0.00    -0.309 N 
ATOM     30  H   LIG    1       26.514 -31.644   4.518  0.00  0.00    +0.149 HD
ATOM     31  O   LIG    1       24.077 -32.951   6.116  0.00  0.00    -0.270 OA
BRANCH  29  32
ATOM     32  C   LIG    1       25.372 -33.204   3.589  0.00  0.00    +0.138 C 
BRANCH  32  33
ATOM     33  C   LIG    1       26.606 -33.747   2.841  0.00  0.00    +0.157 C 
BRANCH  33  34
ATOM     34  O   LIG    1       27.712 -33.825   3.750  0.00  0.00    -0.388 OA
ATOM     35  H   LIG    1       28.482 -34.045   3.196  0.00  0.00    +0.210 HD
ENDBRANCH  33  34
BRANCH  33  36
ATOM     36  C   LIG    1       27.006 -32.861   1.653  0.00  0.00    +0.188 C 
BRANCH  36  37
ATOM     37  O   LIG    1       26.206 -33.131   0.508  0.00  0.00    -0.392 OA
ATOM     38  H   LIG    1       25.428 -33.629   0.815  0.00  0.00    +0.209 HD
ENDBRANCH  36  37
ENDBRANCH  33  36
ENDBRANCH  32  33
ENDBRANCH  29  32
ENDBRANCH   7  28
TORSDOF 15
ENDMDL
MODEL 9
REMARK VINA RESULT:      -3.0      3.251      7.818
REMARK  Name = *****
REMARK                            x       y       z     vdW  Elec       q    Type
REMARK                         _______ _______ _______ _____ _____    ______ ____
ROOT
ATOM      1  C   LIG    1       24.387 -31.692   8.628  0.00  0.00    +0.061 A 
ATOM      2  C   LIG    1       25.352 -30.820   8.097  0.00  0.00    +0.049 A 
ATOM      3  I   LIG    1       26.234 -31.308   6.204  0.00  0.00    -0.041 I 
ATOM      4  C   LIG    1       25.801 -29.743   8.872  0.00  0.00    +0.066 A 
ATOM      5  C   LIG    1       25.569 -29.801  10.253  0.00  0.00    +0.040 A 
ATOM      6  I   LIG    1       27.303 -29.493  11.485  0.00  0.00    -0.042 I 
ATOM      7  C   LIG    1       24.497 -30.548  10.790  0.00  0.00    +0.065 A 
ATOM      8  C   LIG    1       23.825 -31.401   9.900  0.00  0.00    +0.049 A 
ATOM      9  I   LIG    1       21.742 -31.808  10.141  0.00  0.00    -0.041 I 
ENDROOT
BRANCH   1  11
ATOM     10  C   LIG    1       23.258 -32.538   6.621  0.00  0.00    +0.243 C 
ATOM     11  N   LIG    1       23.925 -32.768   7.821  0.00  0.00    -0.282 N 
ATOM     12  H   LIG    1       23.619 -33.598   8.323  0.00  0.00    +0.155 HD
ATOM     13  O   LIG    1       23.003 -31.418   6.183  0.00  0.00    -0.273 OA
BRANCH  10  14
ATOM     14  C   LIG    1       22.824 -33.824   5.907  0.00  0.00    +0.255 C 
BRANCH  14  16
ATOM     15  C   LIG    1       24.069 -33.825   3.907  0.00  0.00    +0.194 C 
ATOM     16  O   LIG    1       22.792 -33.626   4.500  0.00  0.00    -0.374 OA
ENDBRANCH  14  16
ENDBRANCH  10  14
ENDBRANCH   1  11
BRANCH   4  17
ATOM     17  C   LIG    1       26.103 -28.445   8.171  0.00  0.00    +0.248 C 
ATOM     18  N   LIG    1       25.281 -27.949   7.139  0.00  0.00    -0.298 N 
ATOM     19  C   LIG    1       23.957 -28.425   6.751  0.00  0.00    +0.132 C 
ATOM     20  O   LIG    1       27.177 -27.893   8.401  0.00  0.00    -0.270 OA
BRANCH  18  21
ATOM     21  C   LIG    1       25.813 -26.840   6.316  0.00  0.00    +0.141 C 
BRANCH  21  22
ATOM     22  C   LIG    1       24.930 -25.568   6.409  0.00  0.00    +0.157 C 
BRANCH  22  23
ATOM     23  O   LIG    1       24.275 -25.277   5.169  0.00  0.00    -0.388 OA
ATOM     24  H   LIG    1       24.974 -25.146   4.495  0.00  0.00    +0.210 HD
ENDBRANCH  22  23
BRANCH  22  25
ATOM     25  C   LIG    1       25.753 -24.344   6.836  0.00  0.00    +0.188 C 
BRANCH  25  26
ATOM     26  O   LIG    1       25.108 -23.125   6.485  0.00  0.00    -0.392 OA
ATOM     27  H   LIG    1       24.735 -23.236   5.594  0.00  0.00    +0.209 HD
ENDBRANCH  25  26
ENDBRANCH  22  25
ENDBRANCH  21  22
ENDBRANCH  18  21
ENDBRANCH   4  17
BRANCH   7  28
ATOM     28  C   LIG    1       24.028 -30.180  12.167  0.00  0.00    +0.246 C 
ATOM     29  N   LIG    1       23.185 -29.110  12.343  0.00  0.00    -0.309 N 
ATOM     30  H   LIG    1       22.870 -28.580  11.535  0.00  0.00    +0.149 HD
ATOM     31  O   LIG    1       24.386 -30.903  13.120  0.00  0.00    -0.270 OA
BRANCH  29  32
ATOM     32  C   LIG    1       22.705 -28.667  13.672  0.00  0.00    +0.138 C 
BRANCH  32  33
ATOM     33  C   LIG    1       21.443 -29.417  14.141  0.00  0.00    +0.157 C 
BRANCH  33  34
ATOM     34  O   LIG    1       21.655 -30.829  14.003  0.00  0.00    -0.388 OA
ATOM     35  H   LIG    1       21.448 -31.204  14.878  0.00  0.00    +0.210 HD
ENDBRANCH  33  34
BRANCH  33  36
ATOM     36  C   LIG    1       20.197 -29.025  13.335  0.00  0.00    +0.188 C 
BRANCH  36  37
ATOM     37  O   LIG    1       20.494 -28.025  12.369  0.00  0.00    -0.392 OA
ATOM     38  H   LIG    1       20.093 -28.312  11.528  0.00  0.00    +0.209 HD
ENDBRANCH  36  37
ENDBRANCH  33  36
ENDBRANCH  32  33
ENDBRANCH  29  32
ENDBRANCH   7  28
TORSDOF 15
ENDMDL
