MODEL 1
REMARK VINA RESULT:     -10.5      0.000      0.000
REMARK  Name = *****
REMARK                            x       y       z     vdW  Elec       q    Type
REMARK                         _______ _______ _______ _____ _____    ______ ____
ROOT
ATOM      1  C   LIG    1       24.449 -28.282   6.753  0.00  0.00    +0.339 C 
ATOM      2  C   LIG    1       24.322 -29.325   5.624  0.00  0.00    +0.214 C 
ATOM      3  C   LIG    1       24.634 -30.737   6.120  0.00  0.00    +0.180 C 
ATOM      4  C   LIG    1       25.775 -30.725   7.133  0.00  0.00    +0.177 C 
ATOM      5  C   LIG    1       25.405 -29.866   8.350  0.00  0.00    +0.179 C 
ATOM      6  O   LIG    1       24.423 -28.866   8.061  0.00  0.00    -0.331 OA
ENDROOT
BRANCH   2   7
ATOM      7  O   LIG    1       22.967 -29.333   5.125  0.00  0.00    -0.383 OA
ATOM      8  H   LIG    1       22.441 -29.884   5.731  0.00  0.00    +0.210 HD
ENDBRANCH   2   7
BRANCH   3   9
ATOM      9  O   LIG    1       25.004 -31.563   5.003  0.00  0.00    -0.386 OA
ATOM     10  H   LIG    1       25.037 -30.973   4.226  0.00  0.00    +0.210 HD
ENDBRANCH   3   9
BRANCH   4  11
ATOM     11  O   LIG    1       26.065 -32.075   7.528  0.00  0.00    -0.387 OA
ATOM     12  H   LIG    1       25.238 -32.487   7.842  0.00  0.00    +0.210 HD
ENDBRANCH   4  11
BRANCH   1  13
ATOM     13  O   LIG    1       25.596 -27.438   6.527  0.00  0.00    -0.461 OA
BRANCH  13  20
ATOM     14  C   LIG    1       26.749 -21.543   6.848  0.00  0.00    +0.139 C 
ATOM     15  O   LIG    1       27.012 -22.894   6.762  0.00  0.00    -0.454 OA
ATOM     16  C   LIG    1       25.965 -23.768   6.683  0.00  0.00    +0.146 A 
ATOM     17  C   LIG    1       24.635 -23.377   6.677  0.00  0.00    +0.105 A 
ATOM     18  C   LIG    1       23.633 -24.349   6.606  0.00  0.00    +0.135 A 
ATOM     19  C   LIG    1       23.965 -25.707   6.551  0.00  0.00    +0.092 A 
ATOM     20  C   LIG    1       25.310 -26.094   6.568  0.00  0.00    +0.131 A 
ATOM     21  C   LIG    1       24.357 -21.943   6.745  0.00  0.00    +0.197 C 
ATOM     22  O   LIG    1       23.198 -21.525   6.726  0.00  0.00    -0.287 OA
ATOM     23  C   LIG    1       26.302 -25.113   6.610  0.00  0.00    +0.093 A 
ATOM     24  C   LIG    1       25.506 -21.026   6.843  0.00  0.00    +0.098 C 
BRANCH  14  28
ATOM     25  C   LIG    1       30.260 -19.058   7.158  0.00  0.00    +0.161 A 
ATOM     26  C   LIG    1       29.351 -18.885   6.112  0.00  0.00    +0.159 A 
ATOM     27  C   LIG    1       28.219 -19.704   6.018  0.00  0.00    +0.060 A 
ATOM     28  C   LIG    1       27.968 -20.714   6.966  0.00  0.00    +0.021 A 
ATOM     29  C   LIG    1       28.880 -20.873   8.015  0.00  0.00    +0.015 A 
ATOM     30  C   LIG    1       30.018 -20.065   8.096  0.00  0.00    +0.050 A 
BRANCH  25  32
ATOM     31  C   LIG    1       31.753 -18.073   8.716  0.00  0.00    +0.277 C 
ATOM     32  O   LIG    1       31.427 -18.376   7.366  0.00  0.00    -0.491 OA
ENDBRANCH  25  32
BRANCH  26  33
ATOM     33  O   LIG    1       29.554 -17.938   5.147  0.00  0.00    -0.503 OA
ATOM     34  H   LIG    1       30.490 -17.938   4.886  0.00  0.00    +0.292 HD
ENDBRANCH  26  33
ENDBRANCH  14  28
BRANCH  18  35
ATOM     35  O   LIG    1       22.300 -24.027   6.594  0.00  0.00    -0.506 OA
ATOM     36  H   LIG    1       21.783 -24.847   6.762  0.00  0.00    +0.292 HD
ENDBRANCH  18  35
ENDBRANCH  13  20
ENDBRANCH   1  13
BRANCH   5  37
ATOM     37  C   LIG    1       26.651 -29.282   9.041  0.00  0.00    +0.197 C 
BRANCH  37  38
ATOM     38  O   LIG    1       26.233 -28.457  10.142  0.00  0.00    -0.346 OA
BRANCH  38  39
ATOM     39  C   LIG    1       25.710 -29.224  11.234  0.00  0.00    +0.282 C 
ATOM     40  C   LIG    1       26.851 -30.052  11.868  0.00  0.00    +0.201 C 
ATOM     41  C   LIG    1       27.852 -29.119  12.550  0.00  0.00    +0.179 C 
ATOM     42  C   LIG    1       27.148 -28.168  13.525  0.00  0.00    +0.174 C 
ATOM     43  C   LIG    1       25.979 -27.455  12.829  0.00  0.00    +0.149 C 
ATOM     44  C   LIG    1       25.166 -26.627  13.818  0.00  0.00    +0.040 C 
ATOM     45  O   LIG    1       25.084 -28.379  12.208  0.00  0.00    -0.343 OA
BRANCH  40  46
ATOM     46  O   LIG    1       26.346 -30.984  12.839  0.00  0.00    -0.384 OA
ATOM     47  H   LIG    1       27.127 -31.503  13.121  0.00  0.00    +0.210 HD
ENDBRANCH  40  46
BRANCH  41  48
ATOM     48  O   LIG    1       28.822 -29.902  13.269  0.00  0.00    -0.386 OA
ATOM     49  H   LIG    1       28.397 -30.771  13.421  0.00  0.00    +0.210 HD
ENDBRANCH  41  48
BRANCH  42  50
ATOM     50  O   LIG    1       28.118 -27.242  14.036  0.00  0.00    -0.387 OA
ATOM     51  H   LIG    1       27.727 -26.780  14.800  0.00  0.00    +0.210 HD
ENDBRANCH  42  50
ENDBRANCH  38  39
ENDBRANCH  37  38
ENDBRANCH   5  37
TORSDOF 15
ENDMDL
MODEL 2
REMARK VINA RESULT:     -10.1      1.039      2.050
REMARK  Name = *****
REMARK                            x       y       z     vdW  Elec       q    Type
REMARK                         _______ _______ _______ _____ _____    ______ ____
ROOT
ATOM      1  C   LIG    1       24.445 -28.267   6.824  0.00  0.00    +0.339 C 
ATOM      2  C   LIG    1       24.338 -29.460   5.852  0.00  0.00    +0.214 C 
ATOM      3  C   LIG    1       24.627 -30.788   6.550  0.00  0.00    +0.180 C 
ATOM      4  C   LIG    1       25.744 -30.636   7.580  0.00  0.00    +0.177 C 
ATOM      5  C   LIG    1       25.350 -29.611   8.653  0.00  0.00    +0.179 C 
ATOM      6  O   LIG    1       24.383 -28.659   8.201  0.00  0.00    -0.331 OA
ENDROOT
BRANCH   2   7
ATOM      7  O   LIG    1       22.995 -29.534   5.325  0.00  0.00    -0.383 OA
ATOM      8  H   LIG    1       22.386 -29.480   6.083  0.00  0.00    +0.210 HD
ENDBRANCH   2   7
BRANCH   3   9
ATOM      9  O   LIG    1       25.019 -31.765   5.572  0.00  0.00    -0.386 OA
ATOM     10  H   LIG    1       25.954 -31.580   5.360  0.00  0.00    +0.210 HD
ENDBRANCH   3   9
BRANCH   4  11
ATOM     11  O   LIG    1       26.015 -31.918   8.169  0.00  0.00    -0.387 OA
ATOM     12  H   LIG    1       25.396 -32.050   8.912  0.00  0.00    +0.210 HD
ENDBRANCH   4  11
BRANCH   1  13
ATOM     13  O   LIG    1       25.602 -27.468   6.510  0.00  0.00    -0.461 OA
BRANCH  13  20
ATOM     14  C   LIG    1       27.014 -21.645   7.046  0.00  0.00    +0.139 C 
ATOM     15  O   LIG    1       27.217 -23.004   6.922  0.00  0.00    -0.454 OA
ATOM     16  C   LIG    1       26.134 -23.826   6.791  0.00  0.00    +0.146 A 
ATOM     17  C   LIG    1       24.824 -23.373   6.767  0.00  0.00    +0.105 A 
ATOM     18  C   LIG    1       23.780 -24.295   6.642  0.00  0.00    +0.135 A 
ATOM     19  C   LIG    1       24.052 -25.665   6.551  0.00  0.00    +0.092 A 
ATOM     20  C   LIG    1       25.377 -26.114   6.587  0.00  0.00    +0.131 A 
ATOM     21  C   LIG    1       24.610 -21.931   6.874  0.00  0.00    +0.197 C 
ATOM     22  O   LIG    1       23.471 -21.460   6.841  0.00  0.00    -0.287 OA
ATOM     23  C   LIG    1       26.411 -25.181   6.683  0.00  0.00    +0.093 A 
ATOM     24  C   LIG    1       25.796 -21.071   7.028  0.00  0.00    +0.098 C 
BRANCH  14  28
ATOM     25  C   LIG    1       30.709 -19.481   7.560  0.00  0.00    +0.161 A 
ATOM     26  C   LIG    1       30.486 -20.686   8.230  0.00  0.00    +0.159 A 
ATOM     27  C   LIG    1       29.279 -21.375   8.060  0.00  0.00    +0.060 A 
ATOM     28  C   LIG    1       28.266 -20.877   7.219  0.00  0.00    +0.021 A 
ATOM     29  C   LIG    1       28.503 -19.674   6.546  0.00  0.00    +0.015 A 
ATOM     30  C   LIG    1       29.702 -18.980   6.730  0.00  0.00    +0.050 A 
BRANCH  25  32
ATOM     31  C   LIG    1       31.810 -17.727   8.715  0.00  0.00    +0.277 C 
ATOM     32  O   LIG    1       31.806 -18.670   7.651  0.00  0.00    -0.491 OA
ENDBRANCH  25  32
BRANCH  26  33
ATOM     33  O   LIG    1       31.422 -21.207   9.080  0.00  0.00    -0.503 OA
ATOM     34  H   LIG    1       31.157 -21.031   9.998  0.00  0.00    +0.292 HD
ENDBRANCH  26  33
ENDBRANCH  14  28
BRANCH  18  35
ATOM     35  O   LIG    1       22.464 -23.912   6.609  0.00  0.00    -0.506 OA
ATOM     36  H   LIG    1       21.915 -24.708   6.431  0.00  0.00    +0.292 HD
ENDBRANCH  18  35
ENDBRANCH  13  20
ENDBRANCH   1  13
BRANCH   5  37
ATOM     37  C   LIG    1       26.584 -28.940   9.285  0.00  0.00    +0.197 C 
BRANCH  37  38
ATOM     38  O   LIG    1       27.003 -29.709  10.425  0.00  0.00    -0.346 OA
BRANCH  38  39
ATOM     39  C   LIG    1       27.707 -28.919  11.391  0.00  0.00    +0.282 C 
ATOM     40  C   LIG    1       26.851 -27.689  11.766  0.00  0.00    +0.201 C 
ATOM     41  C   LIG    1       25.605 -28.138  12.531  0.00  0.00    +0.179 C 
ATOM     42  C   LIG    1       25.977 -29.032  13.719  0.00  0.00    +0.174 C 
ATOM     43  C   LIG    1       26.896 -30.175  13.265  0.00  0.00    +0.149 C 
ATOM     44  C   LIG    1       27.407 -30.983  14.452  0.00  0.00    +0.040 C 
ATOM     45  O   LIG    1       28.036 -29.692  12.553  0.00  0.00    -0.343 OA
BRANCH  40  46
ATOM     46  O   LIG    1       27.590 -26.763  12.582  0.00  0.00    -0.384 OA
ATOM     47  H   LIG    1       27.485 -27.095  13.497  0.00  0.00    +0.210 HD
ENDBRANCH  40  46
BRANCH  41  48
ATOM     48  O   LIG    1       24.896 -26.981  13.012  0.00  0.00    -0.386 OA
ATOM     49  H   LIG    1       25.155 -26.248  12.416  0.00  0.00    +0.210 HD
ENDBRANCH  41  48
BRANCH  42  50
ATOM     50  O   LIG    1       24.766 -29.518  14.318  0.00  0.00    -0.387 OA
ATOM     51  H   LIG    1       24.471 -30.301  13.818  0.00  0.00    +0.210 HD
ENDBRANCH  42  50
ENDBRANCH  38  39
ENDBRANCH  37  38
ENDBRANCH   5  37
TORSDOF 15
ENDMDL
