MODEL 1
REMARK VINA RESULT:      -7.2      0.000      0.000
REMARK  Name = *****
REMARK                            x       y       z     vdW  Elec       q    Type
REMARK                         _______ _______ _______ _____ _____    ______ ____
ROOT
ATOM      1  C   LIG    1       30.203 -19.706   8.469  0.00  0.00    +0.278 C 
ENDROOT
BRANCH   1   3
ATOM      2  O   LIG    1       31.940 -16.835   8.827  0.00  0.00    -0.257 OA
ATOM      3  P   LIG    1       31.145 -18.149   8.663  0.00  0.00    +0.353 P 
BRANCH   3   4
ATOM      4  O   LIG    1       32.027 -18.848   9.866  0.00  0.00    -0.323 OA
ATOM      5  H   LIG    1       32.885 -18.378   9.909  0.00  0.00    +0.220 HD
ENDBRANCH   3   4
BRANCH   3   6
ATOM      6  O   LIG    1       32.118 -18.612   7.428  0.00  0.00    -0.323 OA
ATOM      7  H   LIG    1       31.672 -18.333   6.600  0.00  0.00    +0.220 HD
ENDBRANCH   3   6
ENDBRANCH   1   3
BRANCH   1   8
ATOM      8  P   LIG    1       30.825 -21.328   8.875  0.00  0.00    +0.353 P 
ATOM      9  O   LIG    1       30.767 -21.787  10.287  0.00  0.00    -0.257 OA
BRANCH   8  10
ATOM     10  O   LIG    1       32.321 -21.447   8.299  0.00  0.00    -0.323 OA
ATOM     11  H   LIG    1       32.322 -21.411   7.322  0.00  0.00    +0.220 HD
ENDBRANCH   8  10
BRANCH   8  12
ATOM     12  O   LIG    1       30.103 -22.432   7.942  0.00  0.00    -0.323 OA
ATOM     13  H   LIG    1       29.737 -23.176   8.454  0.00  0.00    +0.220 HD
ENDBRANCH   8  12
ENDBRANCH   1   8
BRANCH   1  14
ATOM     14  S   LIG    1       29.445 -19.740   6.758  0.00  0.00    -0.098 S 
BRANCH  14  15
ATOM     15  C   LIG    1       27.752 -20.274   6.953  0.00  0.00    +0.009 A 
ATOM     16  C   LIG    1       26.943 -20.300   5.810  0.00  0.00    +0.016 A 
ATOM     17  C   LIG    1       25.570 -20.556   5.905  0.00  0.00    +0.021 A 
ATOM     18  C   LIG    1       24.982 -20.742   7.153  0.00  0.00    +0.041 A 
ATOM     19 CL   LIG    1       23.295 -21.059   7.264  0.00  0.00    -0.084 Cl
ATOM     20  C   LIG    1       25.758 -20.659   8.307  0.00  0.00    +0.021 A 
ATOM     21  C   LIG    1       27.142 -20.430   8.206  0.00  0.00    +0.016 A 
ENDBRANCH  14  15
ENDBRANCH   1  14
TORSDOF 8
ENDMDL
MODEL 2
REMARK VINA RESULT:      -7.2      1.420      2.093
REMARK  Name = *****
REMARK                            x       y       z     vdW  Elec       q    Type
REMARK                         _______ _______ _______ _____ _____    ______ ____
ROOT
ATOM      1  C   LIG    1       29.763 -20.471   8.135  0.00  0.00    +0.278 C 
ENDROOT
BRANCH   1   3
ATOM      2  O   LIG    1       30.112 -18.162   5.699  0.00  0.00    -0.257 OA
ATOM      3  P   LIG    1       29.953 -19.219   6.814  0.00  0.00    +0.353 P 
BRANCH   3   4
ATOM      4  O   LIG    1       30.198 -18.064   7.962  0.00  0.00    -0.323 OA
ATOM      5  H   LIG    1       31.125 -18.149   8.268  0.00  0.00    +0.220 HD
ENDBRANCH   3   4
BRANCH   3   6
ATOM      6  O   LIG    1       31.523 -19.658   6.655  0.00  0.00    -0.323 OA
ATOM      7  H   LIG    1       31.618 -20.527   7.101  0.00  0.00    +0.220 HD
ENDBRANCH   3   6
ENDBRANCH   1   3
BRANCH   1   8
ATOM      8  P   LIG    1       31.102 -21.118   9.122  0.00  0.00    +0.353 P 
ATOM      9  O   LIG    1       30.782 -21.865  10.365  0.00  0.00    -0.257 OA
BRANCH   8  10
ATOM     10  O   LIG    1       32.122 -19.915   9.428  0.00  0.00    -0.323 OA
ATOM     11  H   LIG    1       32.414 -19.934  10.362  0.00  0.00    +0.220 HD
ENDBRANCH   8  10
BRANCH   8  12
ATOM     12  O   LIG    1       32.058 -22.036   8.198  0.00  0.00    -0.323 OA
ATOM     13  H   LIG    1       31.969 -22.986   8.392  0.00  0.00    +0.220 HD
ENDBRANCH   8  12
ENDBRANCH   1   8
BRANCH   1  14
ATOM     14  S   LIG    1       28.733 -21.888   7.476  0.00  0.00    -0.098 S 
BRANCH  14  15
ATOM     15  C   LIG    1       27.126 -21.218   7.080  0.00  0.00    +0.009 A 
ATOM     16  C   LIG    1       26.090 -21.429   7.998  0.00  0.00    +0.016 A 
ATOM     17  C   LIG    1       24.771 -21.073   7.691  0.00  0.00    +0.021 A 
ATOM     18  C   LIG    1       24.468 -20.544   6.441  0.00  0.00    +0.041 A 
ATOM     19 CL   LIG    1       22.846 -20.106   6.069  0.00  0.00    -0.084 Cl
ATOM     20  C   LIG    1       25.474 -20.383   5.490  0.00  0.00    +0.021 A 
ATOM     21  C   LIG    1       26.802 -20.716   5.812  0.00  0.00    +0.016 A 
ENDBRANCH  14  15
ENDBRANCH   1  14
TORSDOF 8
ENDMDL
MODEL 3
REMARK VINA RESULT:      -6.8      6.155      6.946
REMARK  Name = *****
REMARK                            x       y       z     vdW  Elec       q    Type
REMARK                         _______ _______ _______ _____ _____    ______ ____
ROOT
ATOM      1  C   LIG    1       25.047 -22.409   6.351  0.00  0.00    +0.278 C 
ENDROOT
BRANCH   1   3
ATOM      2  O   LIG    1       22.734 -19.967   6.083  0.00  0.00    -0.257 OA
ATOM      3  P   LIG    1       23.792 -21.085   6.205  0.00  0.00    +0.353 P 
BRANCH   3   4
ATOM      4  O   LIG    1       22.896 -22.059   5.226  0.00  0.00    -0.323 OA
ATOM      5  H   LIG    1       21.960 -21.784   5.318  0.00  0.00    +0.220 HD
ENDBRANCH   3   4
BRANCH   3   6
ATOM      6  O   LIG    1       23.133 -21.588   7.619  0.00  0.00    -0.323 OA
ATOM      7  H   LIG    1       23.662 -21.179   8.337  0.00  0.00    +0.220 HD
ENDBRANCH   3   6
ENDBRANCH   1   3
BRANCH   1   8
ATOM      8  P   LIG    1       24.717 -24.150   6.143  0.00  0.00    +0.353 P 
ATOM      9  O   LIG    1       25.591 -25.135   6.830  0.00  0.00    -0.257 OA
BRANCH   8  10
ATOM     10  O   LIG    1       24.643 -24.458   4.567  0.00  0.00    -0.323 OA
ATOM     11  H   LIG    1       24.175 -23.742   4.093  0.00  0.00    +0.220 HD
ENDBRANCH   8  10
BRANCH   8  12
ATOM     12  O   LIG    1       23.180 -24.458   6.536  0.00  0.00    -0.323 OA
ATOM     13  H   LIG    1       23.044 -25.378   6.828  0.00  0.00    +0.220 HD
ENDBRANCH   8  12
ENDBRANCH   1   8
BRANCH   1  14
ATOM     14  S   LIG    1       26.021 -22.143   7.927  0.00  0.00    -0.098 S 
BRANCH  14  15
ATOM     15  C   LIG    1       27.557 -21.362   7.460  0.00  0.00    +0.009 A 
ATOM     16  C   LIG    1       28.686 -21.626   8.245  0.00  0.00    +0.016 A 
ATOM     17  C   LIG    1       29.886 -20.934   8.039  0.00  0.00    +0.021 A 
ATOM     18  C   LIG    1       29.954 -19.935   7.074  0.00  0.00    +0.041 A 
ATOM     19 CL   LIG    1       31.431 -19.089   6.823  0.00  0.00    -0.084 Cl
ATOM     20  C   LIG    1       28.825 -19.614   6.324  0.00  0.00    +0.021 A 
ATOM     21  C   LIG    1       27.630 -20.329   6.514  0.00  0.00    +0.016 A 
ENDBRANCH  14  15
ENDBRANCH   1  14
TORSDOF 8
ENDMDL
MODEL 4
REMARK VINA RESULT:      -6.7      6.061      7.098
REMARK  Name = *****
REMARK                            x       y       z     vdW  Elec       q    Type
REMARK                         _______ _______ _______ _____ _____    ______ ____
ROOT
ATOM      1  C   LIG    1       24.779 -22.402   5.931  0.00  0.00    +0.278 C 
ENDROOT
BRANCH   1   3
ATOM      2  O   LIG    1       22.306 -20.285   5.048  0.00  0.00    -0.257 OA
ATOM      3  P   LIG    1       23.438 -21.253   5.452  0.00  0.00    +0.353 P 
BRANCH   3   4
ATOM      4  O   LIG    1       23.653 -21.680   3.875  0.00  0.00    -0.323 OA
ATOM      5  H   LIG    1       23.591 -22.657   3.827  0.00  0.00    +0.220 HD
ENDBRANCH   3   4
BRANCH   3   6
ATOM      6  O   LIG    1       22.344 -22.420   5.811  0.00  0.00    -0.323 OA
ATOM      7  H   LIG    1       22.828 -23.273   5.797  0.00  0.00    +0.220 HD
ENDBRANCH   3   6
ENDBRANCH   1   3
BRANCH   1   8
ATOM      8  P   LIG    1       24.638 -24.181   5.946  0.00  0.00    +0.353 P 
ATOM      9  O   LIG    1       23.469 -24.803   6.619  0.00  0.00    -0.257 OA
BRANCH   8  10
ATOM     10  O   LIG    1       26.013 -24.785   6.520  0.00  0.00    -0.323 OA
ATOM     11  H   LIG    1       26.598 -24.072   6.845  0.00  0.00    +0.220 HD
ENDBRANCH   8  10
BRANCH   8  12
ATOM     12  O   LIG    1       24.724 -24.742   4.433  0.00  0.00    -0.323 OA
ATOM     13  H   LIG    1       23.885 -25.134   4.130  0.00  0.00    +0.220 HD
ENDBRANCH   8  12
ENDBRANCH   1   8
BRANCH   1  14
ATOM     14  S   LIG    1       25.517 -21.822   7.550  0.00  0.00    -0.098 S 
BRANCH  14  15
ATOM     15  C   LIG    1       27.148 -21.197   7.180  0.00  0.00    +0.009 A 
ATOM     16  C   LIG    1       28.194 -21.558   8.039  0.00  0.00    +0.016 A 
ATOM     17  C   LIG    1       29.465 -20.986   7.908  0.00  0.00    +0.021 A 
ATOM     18  C   LIG    1       29.692 -20.010   6.943  0.00  0.00    +0.041 A 
ATOM     19 CL   LIG    1       31.256 -19.313   6.784  0.00  0.00    -0.084 Cl
ATOM     20  C   LIG    1       28.650 -19.592   6.118  0.00  0.00    +0.021 A 
ATOM     21  C   LIG    1       27.381 -20.188   6.234  0.00  0.00    +0.016 A 
ENDBRANCH  14  15
ENDBRANCH   1  14
TORSDOF 8
ENDMDL
MODEL 5
REMARK VINA RESULT:      -6.7      1.819      3.280
REMARK  Name = *****
REMARK                            x       y       z     vdW  Elec       q    Type
REMARK                         _______ _______ _______ _____ _____    ______ ____
ROOT
ATOM      1  C   LIG    1       29.592 -20.402   7.794  0.00  0.00    +0.278 C 
ENDROOT
BRANCH   1   3
ATOM      2  O   LIG    1       30.905 -22.312  10.246  0.00  0.00    -0.257 OA
ATOM      3  P   LIG    1       30.304 -21.438   9.124  0.00  0.00    +0.353 P 
BRANCH   3   4
ATOM      4  O   LIG    1       31.585 -21.787   8.149  0.00  0.00    -0.323 OA
ATOM      5  H   LIG    1       31.236 -22.270   7.371  0.00  0.00    +0.220 HD
ENDBRANCH   3   4
BRANCH   3   6
ATOM      6  O   LIG    1       30.947 -20.089   9.797  0.00  0.00    -0.323 OA
ATOM      7  H   LIG    1       31.878 -20.040   9.492  0.00  0.00    +0.220 HD
ENDBRANCH   3   6
ENDBRANCH   1   3
BRANCH   1   8
ATOM      8  P   LIG    1       30.444 -19.059   6.985  0.00  0.00    +0.353 P 
ATOM      9  O   LIG    1       29.928 -18.561   5.683  0.00  0.00    -0.257 OA
BRANCH   8  10
ATOM     10  O   LIG    1       31.998 -19.453   6.867  0.00  0.00    -0.323 OA
ATOM     11  H   LIG    1       32.108 -20.295   6.382  0.00  0.00    +0.220 HD
ENDBRANCH   8  10
BRANCH   8  12
ATOM     12  O   LIG    1       30.572 -17.811   8.003  0.00  0.00    -0.323 OA
ATOM     13  H   LIG    1       31.408 -17.818   8.503  0.00  0.00    +0.220 HD
ENDBRANCH   8  12
ENDBRANCH   1   8
BRANCH   1  14
ATOM     14  S   LIG    1       27.890 -19.832   8.323  0.00  0.00    -0.098 S 
BRANCH  14  15
ATOM     15  C   LIG    1       26.725 -21.032   7.697  0.00  0.00    +0.009 A 
ATOM     16  C   LIG    1       25.361 -20.735   7.811  0.00  0.00    +0.016 A 
ATOM     17  C   LIG    1       24.386 -21.687   7.488  0.00  0.00    +0.021 A 
ATOM     18  C   LIG    1       24.768 -22.965   7.091  0.00  0.00    +0.041 A 
ATOM     19 CL   LIG    1       23.567 -24.130   6.694  0.00  0.00    -0.084 Cl
ATOM     20  C   LIG    1       26.119 -23.300   7.031  0.00  0.00    +0.021 A 
ATOM     21  C   LIG    1       27.096 -22.333   7.329  0.00  0.00    +0.016 A 
ENDBRANCH  14  15
ENDBRANCH   1  14
TORSDOF 8
ENDMDL
MODEL 6
REMARK VINA RESULT:      -6.6      1.137      3.091
REMARK  Name = *****
REMARK                            x       y       z     vdW  Elec       q    Type
REMARK                         _______ _______ _______ _____ _____    ______ ____
ROOT
ATOM      1  C   LIG    1       31.356 -19.213   8.174  0.00  0.00    +0.278 C 
ENDROOT
BRANCH   1   3
ATOM      2  O   LIG    1       30.504 -22.225   9.434  0.00  0.00    -0.257 OA
ATOM      3  P   LIG    1       30.894 -20.847   8.858  0.00  0.00    +0.353 P 
BRANCH   3   4
ATOM      4  O   LIG    1       32.480 -21.141   9.191  0.00  0.00    -0.323 OA
ATOM      5  H   LIG    1       32.701 -20.654  10.012  0.00  0.00    +0.220 HD
ENDBRANCH   3   4
BRANCH   3   6
ATOM      6  O   LIG    1       30.537 -20.123  10.284  0.00  0.00    -0.323 OA
ATOM      7  H   LIG    1       31.204 -20.435  10.932  0.00  0.00    +0.220 HD
ENDBRANCH   3   6
ENDBRANCH   1   3
BRANCH   1   8
ATOM      8  P   LIG    1       31.392 -17.693   9.110  0.00  0.00    +0.353 P 
ATOM      9  O   LIG    1       30.111 -17.000   9.404  0.00  0.00    -0.257 OA
BRANCH   8  10
ATOM     10  O   LIG    1       32.428 -16.693   8.395  0.00  0.00    -0.323 OA
ATOM     11  H   LIG    1       32.382 -16.780   7.422  0.00  0.00    +0.220 HD
ENDBRANCH   8  10
BRANCH   8  12
ATOM     12  O   LIG    1       32.182 -17.933  10.498  0.00  0.00    -0.323 OA
ATOM     13  H   LIG    1       33.137 -17.756  10.421  0.00  0.00    +0.220 HD
ENDBRANCH   8  12
ENDBRANCH   1   8
BRANCH   1  14
ATOM     14  S   LIG    1       30.416 -18.941   6.579  0.00  0.00    -0.098 S 
BRANCH  14  15
ATOM     15  C   LIG    1       28.812 -19.698   6.789  0.00  0.00    +0.009 A 
ATOM     16  C   LIG    1       28.022 -19.875   5.647  0.00  0.00    +0.016 A 
ATOM     17  C   LIG    1       26.697 -20.315   5.747  0.00  0.00    +0.021 A 
ATOM     18  C   LIG    1       26.132 -20.539   6.999  0.00  0.00    +0.041 A 
ATOM     19 CL   LIG    1       24.504 -21.082   7.118  0.00  0.00    -0.084 Cl
ATOM     20  C   LIG    1       26.881 -20.310   8.151  0.00  0.00    +0.021 A 
ATOM     21  C   LIG    1       28.221 -19.894   8.046  0.00  0.00    +0.016 A 
ENDBRANCH  14  15
ENDBRANCH   1  14
TORSDOF 8
ENDMDL
MODEL 7
REMARK VINA RESULT:      -6.5      6.130      7.430
REMARK  Name = *****
REMARK                            x       y       z     vdW  Elec       q    Type
REMARK                         _______ _______ _______ _____ _____    ______ ____
ROOT
ATOM      1  C   LIG    1       23.587 -22.072   6.472  0.00  0.00    +0.278 C 
ENDROOT
BRANCH   1   3
ATOM      2  O   LIG    1       25.568 -24.783   6.144  0.00  0.00    -0.257 OA
ATOM      3  P   LIG    1       24.662 -23.542   6.294  0.00  0.00    +0.353 P 
BRANCH   3   4
ATOM      4  O   LIG    1       23.325 -24.505   6.318  0.00  0.00    -0.323 OA
ATOM      5  H   LIG    1       23.551 -25.330   5.841  0.00  0.00    +0.220 HD
ENDBRANCH   3   4
BRANCH   3   6
ATOM      6  O   LIG    1       24.685 -23.300   4.674  0.00  0.00    -0.323 OA
ATOM      7  H   LIG    1       25.625 -23.343   4.396  0.00  0.00    +0.220 HD
ENDBRANCH   3   6
ENDBRANCH   1   3
BRANCH   1   8
ATOM      8  P   LIG    1       22.943 -21.112   5.112  0.00  0.00    +0.353 P 
ATOM      9  O   LIG    1       23.740 -21.014   3.861  0.00  0.00    -0.257 OA
BRANCH   8  10
ATOM     10  O   LIG    1       22.572 -19.649   5.666  0.00  0.00    -0.323 OA
ATOM     11  H   LIG    1       22.947 -19.509   6.558  0.00  0.00    +0.220 HD
ENDBRANCH   8  10
BRANCH   8  12
ATOM     12  O   LIG    1       21.459 -21.631   4.741  0.00  0.00    -0.323 OA
ATOM     13  H   LIG    1       21.437 -22.579   4.518  0.00  0.00    +0.220 HD
ENDBRANCH   8  12
ENDBRANCH   1   8
BRANCH   1  14
ATOM     14  S   LIG    1       24.346 -20.923   7.740  0.00  0.00    -0.098 S 
BRANCH  14  15
ATOM     15  C   LIG    1       26.033 -20.636   7.233  0.00  0.00    +0.009 A 
ATOM     16  C   LIG    1       27.001 -20.506   8.237  0.00  0.00    +0.016 A 
ATOM     17  C   LIG    1       28.313 -20.126   7.929  0.00  0.00    +0.021 A 
ATOM     18  C   LIG    1       28.659 -19.826   6.615  0.00  0.00    +0.041 A 
ATOM     19 CL   LIG    1       30.273 -19.362   6.242  0.00  0.00    -0.084 Cl
ATOM     20  C   LIG    1       27.697 -19.889   5.610  0.00  0.00    +0.021 A 
ATOM     21  C   LIG    1       26.387 -20.298   5.918  0.00  0.00    +0.016 A 
ENDBRANCH  14  15
ENDBRANCH   1  14
TORSDOF 8
ENDMDL
MODEL 8
REMARK VINA RESULT:      -6.4      7.783      9.269
REMARK  Name = *****
REMARK                            x       y       z     vdW  Elec       q    Type
REMARK                         _______ _______ _______ _____ _____    ______ ____
ROOT
ATOM      1  C   LIG    1       25.116 -28.555   7.159  0.00  0.00    +0.278 C 
ENDROOT
BRANCH   1   3
ATOM      2  O   LIG    1       27.150 -28.992   9.816  0.00  0.00    -0.257 OA
ATOM      3  P   LIG    1       26.219 -28.792   8.600  0.00  0.00    +0.353 P 
BRANCH   3   4
ATOM      4  O   LIG    1       24.911 -29.183   9.521  0.00  0.00    -0.323 OA
ATOM      5  H   LIG    1       24.311 -28.408   9.520  0.00  0.00    +0.220 HD
ENDBRANCH   3   4
BRANCH   3   6
ATOM      6  O   LIG    1       26.537 -30.312   8.077  0.00  0.00    -0.323 OA
ATOM      7  H   LIG    1       26.415 -30.306   7.103  0.00  0.00    +0.220 HD
ENDBRANCH   3   6
ENDBRANCH   1   3
BRANCH   1   8
ATOM      8  P   LIG    1       24.434 -29.877   6.173  0.00  0.00    +0.353 P 
ATOM      9  O   LIG    1       25.336 -30.639   5.271  0.00  0.00    -0.257 OA
BRANCH   8  10
ATOM     10  O   LIG    1       23.177 -29.293   5.359  0.00  0.00    -0.323 OA
ATOM     11  H   LIG    1       22.811 -28.502   5.803  0.00  0.00    +0.220 HD
ENDBRANCH   8  10
BRANCH   8  12
ATOM     12  O   LIG    1       23.657 -30.920   7.131  0.00  0.00    -0.323 OA
ATOM     13  H   LIG    1       23.387 -30.522   7.978  0.00  0.00    +0.220 HD
ENDBRANCH   8  12
ENDBRANCH   1   8
BRANCH   1  14
ATOM     14  S   LIG    1       25.867 -27.262   6.034  0.00  0.00    -0.098 S 
BRANCH  14  15
ATOM     15  C   LIG    1       25.203 -25.685   6.546  0.00  0.00    +0.009 A 
ATOM     16  C   LIG    1       23.839 -25.452   6.328  0.00  0.00    +0.016 A 
ATOM     17  C   LIG    1       23.277 -24.190   6.557  0.00  0.00    +0.021 A 
ATOM     18  C   LIG    1       24.085 -23.133   6.962  0.00  0.00    +0.041 A 
ATOM     19 CL   LIG    1       23.390 -21.585   7.243  0.00  0.00    -0.084 Cl
ATOM     20  C   LIG    1       25.455 -23.327   7.124  0.00  0.00    +0.021 A 
ATOM     21  C   LIG    1       26.012 -24.603   6.921  0.00  0.00    +0.016 A 
ENDBRANCH  14  15
ENDBRANCH   1  14
TORSDOF 8
ENDMDL
MODEL 9
REMARK VINA RESULT:      -6.3      1.966      2.863
REMARK  Name = *****
REMARK                            x       y       z     vdW  Elec       q    Type
REMARK                         _______ _______ _______ _____ _____    ______ ____
ROOT
ATOM      1  C   LIG    1       29.599 -19.551   7.960  0.00  0.00    +0.278 C 
ENDROOT
BRANCH   1   3
ATOM      2  O   LIG    1       29.022 -18.262   4.896  0.00  0.00    -0.257 OA
ATOM      3  P   LIG    1       29.286 -18.852   6.298  0.00  0.00    +0.353 P 
BRANCH   3   4
ATOM      4  O   LIG    1       30.908 -18.839   6.012  0.00  0.00    -0.323 OA
ATOM      5  H   LIG    1       31.035 -18.951   5.047  0.00  0.00    +0.220 HD
ENDBRANCH   3   4
BRANCH   3   6
ATOM      6  O   LIG    1       29.012 -20.367   5.738  0.00  0.00    -0.323 OA
ATOM      7  H   LIG    1       28.650 -20.271   4.832  0.00  0.00    +0.220 HD
ENDBRANCH   3   6
ENDBRANCH   1   3
BRANCH   1   8
ATOM      8  P   LIG    1       31.073 -19.261   8.924  0.00  0.00    +0.353 P 
ATOM      9  O   LIG    1       32.077 -20.349   9.045  0.00  0.00    -0.257 OA
BRANCH   8  10
ATOM     10  O   LIG    1       30.624 -18.737  10.376  0.00  0.00    -0.323 OA
ATOM     11  H   LIG    1       29.663 -18.554  10.399  0.00  0.00    +0.220 HD
ENDBRANCH   8  10
BRANCH   8  12
ATOM     12  O   LIG    1       31.814 -17.929   8.389  0.00  0.00    -0.323 OA
ATOM     13  H   LIG    1       32.524 -17.629   8.984  0.00  0.00    +0.220 HD
ENDBRANCH   8  12
ENDBRANCH   1   8
BRANCH   1  14
ATOM     14  S   LIG    1       29.232 -21.386   7.919  0.00  0.00    -0.098 S 
BRANCH  14  15
ATOM     15  C   LIG    1       27.455 -21.558   7.943  0.00  0.00    +0.009 A 
ATOM     16  C   LIG    1       26.900 -22.660   7.282  0.00  0.00    +0.016 A 
ATOM     17  C   LIG    1       25.514 -22.783   7.122  0.00  0.00    +0.021 A 
ATOM     18  C   LIG    1       24.670 -21.777   7.583  0.00  0.00    +0.041 A 
ATOM     19 CL   LIG    1       22.969 -21.933   7.387  0.00  0.00    -0.084 Cl
ATOM     20  C   LIG    1       25.206 -20.642   8.188  0.00  0.00    +0.021 A 
ATOM     21  C   LIG    1       26.596 -20.535   8.372  0.00  0.00    +0.016 A 
ENDBRANCH  14  15
ENDBRANCH   1  14
TORSDOF 8
ENDMDL
