MODEL 1
REMARK VINA RESULT:      -8.2      0.000      0.000
REMARK  Name = *****
REMARK                            x       y       z     vdW  Elec       q    Type
REMARK                         _______ _______ _______ _____ _____    ______ ____
ROOT
ATOM      1  O   LIG    1       25.906 -23.607   8.029  0.00  0.00    -0.252 OA
ATOM      2  C   LIG    1       25.215 -22.897   7.316  0.00  0.00    +0.306 C 
ATOM      3  N   LIG    1       25.251 -21.495   7.240  0.00  0.00    -0.271 N 
ATOM      4  C   LIG    1       24.004 -21.027   6.641  0.00  0.00    +0.155 C 
ATOM      5  C   LIG    1       23.620 -22.201   5.742  0.00  0.00    +0.152 C 
ATOM      6  C   LIG    1       24.308 -21.979   4.387  0.00  0.00    +0.302 C 
ATOM      7  S   LIG    1       24.688 -20.198   4.141  0.00  0.00    -0.004 S 
ATOM      8  C   LIG    1       23.133 -19.722   3.318  0.00  0.00    +0.278 C 
ATOM      9  C   LIG    1       22.037 -19.681   4.360  0.00  0.00    +0.059 C 
ATOM     10  C   LIG    1       22.678 -19.095   5.606  0.00  0.00    +0.064 C 
ATOM     11  C   LIG    1       24.051 -19.750   5.809  0.00  0.00    +0.230 C 
ATOM     12  N   LIG    1       24.186 -23.323   6.473  0.00  0.00    -0.272 N 
ENDROOT
BRANCH   3  13
ATOM     13  C   LIG    1       26.048 -20.706   8.161  0.00  0.00    +0.145 C 
BRANCH  13  14
ATOM     14  C   LIG    1       27.368 -20.259   7.578  0.00  0.00    -0.030 A 
ATOM     15  C   LIG    1       27.568 -20.236   6.189  0.00  0.00    +0.005 A 
ATOM     16  C   LIG    1       28.778 -19.793   5.653  0.00  0.00    +0.000 A 
ATOM     17  C   LIG    1       29.805 -19.378   6.499  0.00  0.00    +0.000 A 
ATOM     18  C   LIG    1       29.621 -19.400   7.880  0.00  0.00    +0.000 A 
ATOM     19  C   LIG    1       28.406 -19.832   8.417  0.00  0.00    +0.005 A 
ENDBRANCH  13  14
ENDBRANCH   3  13
BRANCH  12  20
ATOM     20  C   LIG    1       23.565 -24.627   6.562  0.00  0.00    +0.145 C 
BRANCH  20  21
ATOM     21  C   LIG    1       24.413 -25.741   6.007  0.00  0.00    -0.030 A 
ATOM     22  C   LIG    1       25.177 -25.554   4.848  0.00  0.00    +0.005 A 
ATOM     23  C   LIG    1       25.938 -26.599   4.323  0.00  0.00    +0.000 A 
ATOM     24  C   LIG    1       25.929 -27.848   4.940  0.00  0.00    +0.000 A 
ATOM     25  C   LIG    1       25.175 -28.047   6.096  0.00  0.00    +0.000 A 
ATOM     26  C   LIG    1       24.434 -26.995   6.637  0.00  0.00    +0.005 A 
ENDBRANCH  20  21
ENDBRANCH  12  20
TORSDOF 4
ENDMDL
MODEL 2
REMARK VINA RESULT:      -7.9      1.084      5.921
REMARK  Name = *****
REMARK                            x       y       z     vdW  Elec       q    Type
REMARK                         _______ _______ _______ _____ _____    ______ ____
ROOT
ATOM      1  O   LIG    1       26.120 -24.310   7.070  0.00  0.00    -0.252 OA
ATOM      2  C   LIG    1       25.641 -23.299   6.580  0.00  0.00    +0.306 C 
ATOM      3  N   LIG    1       24.969 -23.199   5.352  0.00  0.00    -0.271 N 
ATOM      4  C   LIG    1       24.963 -21.799   4.935  0.00  0.00    +0.155 C 
ATOM      5  C   LIG    1       24.990 -21.066   6.274  0.00  0.00    +0.152 C 
ATOM      6  C   LIG    1       23.533 -20.896   6.728  0.00  0.00    +0.302 C 
ATOM      7  S   LIG    1       22.396 -20.967   5.286  0.00  0.00    -0.004 S 
ATOM      8  C   LIG    1       22.378 -19.187   4.893  0.00  0.00    +0.278 C 
ATOM      9  C   LIG    1       23.700 -18.830   4.250  0.00  0.00    +0.059 C 
ATOM     10  C   LIG    1       24.050 -20.004   3.352  0.00  0.00    +0.064 C 
ATOM     11  C   LIG    1       23.776 -21.307   4.115  0.00  0.00    +0.230 C 
ATOM     12  N   LIG    1       25.722 -22.007   7.106  0.00  0.00    -0.272 N 
ENDROOT
BRANCH   3  13
ATOM     13  C   LIG    1       24.910 -24.315   4.426  0.00  0.00    +0.145 C 
BRANCH  13  14
ATOM     14  C   LIG    1       25.020 -25.661   5.104  0.00  0.00    -0.030 A 
ATOM     15  C   LIG    1       24.042 -26.086   6.017  0.00  0.00    +0.005 A 
ATOM     16  C   LIG    1       24.130 -27.343   6.617  0.00  0.00    +0.000 A 
ATOM     17  C   LIG    1       25.201 -28.184   6.320  0.00  0.00    +0.000 A 
ATOM     18  C   LIG    1       26.181 -27.772   5.419  0.00  0.00    +0.000 A 
ATOM     19  C   LIG    1       26.087 -26.520   4.809  0.00  0.00    +0.005 A 
ENDBRANCH  13  14
ENDBRANCH   3  13
BRANCH  12  20
ATOM     20  C   LIG    1       26.662 -21.619   8.135  0.00  0.00    +0.145 C 
BRANCH  20  21
ATOM     21  C   LIG    1       27.894 -20.935   7.604  0.00  0.00    -0.030 A 
ATOM     22  C   LIG    1       29.149 -21.164   8.185  0.00  0.00    +0.005 A 
ATOM     23  C   LIG    1       30.282 -20.505   7.706  0.00  0.00    +0.000 A 
ATOM     24  C   LIG    1       30.171 -19.597   6.655  0.00  0.00    +0.000 A 
ATOM     25  C   LIG    1       28.929 -19.363   6.068  0.00  0.00    +0.000 A 
ATOM     26  C   LIG    1       27.799 -20.041   6.527  0.00  0.00    +0.005 A 
ENDBRANCH  20  21
ENDBRANCH  12  20
TORSDOF 4
ENDMDL
MODEL 3
REMARK VINA RESULT:      -7.8      1.836      4.502
REMARK  Name = *****
REMARK                            x       y       z     vdW  Elec       q    Type
REMARK                         _______ _______ _______ _____ _____    ______ ____
ROOT
ATOM      1  O   LIG    1       23.248 -25.114   6.061  0.00  0.00    -0.252 OA
ATOM      2  C   LIG    1       24.157 -24.321   6.247  0.00  0.00    +0.306 C 
ATOM      3  N   LIG    1       24.049 -22.925   6.338  0.00  0.00    -0.271 N 
ATOM      4  C   LIG    1       25.366 -22.337   6.108  0.00  0.00    +0.155 C 
ATOM      5  C   LIG    1       26.299 -23.435   6.612  0.00  0.00    +0.152 C 
ATOM      6  C   LIG    1       26.502 -23.203   8.116  0.00  0.00    +0.302 C 
ATOM      7  S   LIG    1       26.180 -21.447   8.547  0.00  0.00    -0.004 S 
ATOM      8  C   LIG    1       27.875 -20.818   8.321  0.00  0.00    +0.278 C 
ATOM      9  C   LIG    1       28.160 -20.743   6.837  0.00  0.00    +0.059 C 
ATOM     10  C   LIG    1       26.869 -20.265   6.196  0.00  0.00    +0.064 C 
ATOM     11  C   LIG    1       25.695 -21.030   6.821  0.00  0.00    +0.230 C 
ATOM     12  N   LIG    1       25.518 -24.630   6.337  0.00  0.00    -0.272 N 
ENDROOT
BRANCH   3  13
ATOM     13  C   LIG    1       22.801 -22.241   6.053  0.00  0.00    +0.145 C 
BRANCH  13  14
ATOM     14  C   LIG    1       22.975 -21.012   5.193  0.00  0.00    -0.030 A 
ATOM     15  C   LIG    1       22.362 -19.799   5.542  0.00  0.00    +0.005 A 
ATOM     16  C   LIG    1       22.551 -18.657   4.763  0.00  0.00    +0.000 A 
ATOM     17  C   LIG    1       23.346 -18.718   3.619  0.00  0.00    +0.000 A 
ATOM     18  C   LIG    1       23.956 -19.917   3.258  0.00  0.00    +0.000 A 
ATOM     19  C   LIG    1       23.778 -21.057   4.045  0.00  0.00    +0.005 A 
ENDBRANCH  13  14
ENDBRANCH   3  13
BRANCH  12  20
ATOM     20  C   LIG    1       26.085 -25.886   5.897  0.00  0.00    +0.145 C 
BRANCH  20  21
ATOM     21  C   LIG    1       25.771 -27.044   6.807  0.00  0.00    -0.030 A 
ATOM     22  C   LIG    1       26.477 -27.230   8.003  0.00  0.00    +0.005 A 
ATOM     23  C   LIG    1       26.201 -28.322   8.828  0.00  0.00    +0.000 A 
ATOM     24  C   LIG    1       25.230 -29.249   8.457  0.00  0.00    +0.000 A 
ATOM     25  C   LIG    1       24.519 -29.074   7.271  0.00  0.00    +0.000 A 
ATOM     26  C   LIG    1       24.775 -27.969   6.458  0.00  0.00    +0.005 A 
ENDBRANCH  20  21
ENDBRANCH  12  20
TORSDOF 4
ENDMDL
MODEL 4
REMARK VINA RESULT:      -7.4      1.910      5.207
REMARK  Name = *****
REMARK                            x       y       z     vdW  Elec       q    Type
REMARK                         _______ _______ _______ _____ _____    ______ ____
ROOT
ATOM      1  O   LIG    1       23.930 -20.746   7.864  0.00  0.00    -0.252 OA
ATOM      2  C   LIG    1       24.151 -21.797   7.284  0.00  0.00    +0.306 C 
ATOM      3  N   LIG    1       25.242 -22.656   7.490  0.00  0.00    -0.271 N 
ATOM      4  C   LIG    1       25.377 -23.527   6.325  0.00  0.00    +0.155 C 
ATOM      5  C   LIG    1       23.937 -23.626   5.830  0.00  0.00    +0.152 C 
ATOM      6  C   LIG    1       23.278 -24.794   6.578  0.00  0.00    +0.302 C 
ATOM      7  S   LIG    1       24.551 -25.977   7.175  0.00  0.00    -0.004 S 
ATOM      8  C   LIG    1       24.588 -27.063   5.713  0.00  0.00    +0.278 C 
ATOM      9  C   LIG    1       25.313 -26.338   4.600  0.00  0.00    +0.059 C 
ATOM     10  C   LIG    1       26.457 -25.597   5.271  0.00  0.00    +0.064 C 
ATOM     11  C   LIG    1       25.931 -24.931   6.549  0.00  0.00    +0.230 C 
ATOM     12  N   LIG    1       23.401 -22.337   6.236  0.00  0.00    -0.272 N 
ENDROOT
BRANCH   3  13
ATOM     13  C   LIG    1       26.350 -22.282   8.349  0.00  0.00    +0.145 C 
BRANCH  13  14
ATOM     14  C   LIG    1       27.391 -21.439   7.650  0.00  0.00    -0.030 A 
ATOM     15  C   LIG    1       27.046 -20.639   6.550  0.00  0.00    +0.005 A 
ATOM     16  C   LIG    1       28.003 -19.838   5.926  0.00  0.00    +0.000 A 
ATOM     17  C   LIG    1       29.318 -19.835   6.388  0.00  0.00    +0.000 A 
ATOM     18  C   LIG    1       29.675 -20.629   7.476  0.00  0.00    +0.000 A 
ATOM     19  C   LIG    1       28.716 -21.422   8.109  0.00  0.00    +0.005 A 
ENDBRANCH  13  14
ENDBRANCH   3  13
BRANCH  12  20
ATOM     20  C   LIG    1       22.444 -21.576   5.461  0.00  0.00    +0.145 C 
BRANCH  20  21
ATOM     21  C   LIG    1       23.033 -20.362   4.793  0.00  0.00    -0.030 A 
ATOM     22  C   LIG    1       24.264 -20.435   4.127  0.00  0.00    +0.005 A 
ATOM     23  C   LIG    1       24.817 -19.299   3.534  0.00  0.00    +0.000 A 
ATOM     24  C   LIG    1       24.156 -18.076   3.615  0.00  0.00    +0.000 A 
ATOM     25  C   LIG    1       22.930 -17.991   4.272  0.00  0.00    +0.000 A 
ATOM     26  C   LIG    1       22.362 -19.131   4.843  0.00  0.00    +0.005 A 
ENDBRANCH  20  21
ENDBRANCH  12  20
TORSDOF 4
ENDMDL
MODEL 5
REMARK VINA RESULT:      -7.0      1.583      4.214
REMARK  Name = *****
REMARK                            x       y       z     vdW  Elec       q    Type
REMARK                         _______ _______ _______ _____ _____    ______ ____
ROOT
ATOM      1  O   LIG    1       23.278 -24.884   6.850  0.00  0.00    -0.252 OA
ATOM      2  C   LIG    1       24.178 -24.058   6.856  0.00  0.00    +0.306 C 
ATOM      3  N   LIG    1       24.092 -22.720   6.442  0.00  0.00    -0.271 N 
ATOM      4  C   LIG    1       25.441 -22.224   6.181  0.00  0.00    +0.155 C 
ATOM      5  C   LIG    1       26.281 -23.058   7.144  0.00  0.00    +0.152 C 
ATOM      6  C   LIG    1       26.308 -22.312   8.486  0.00  0.00    +0.302 C 
ATOM      7  S   LIG    1       25.978 -20.522   8.236  0.00  0.00    -0.004 S 
ATOM      8  C   LIG    1       27.702 -19.978   8.010  0.00  0.00    +0.278 C 
ATOM      9  C   LIG    1       28.164 -20.420   6.639  0.00  0.00    +0.059 C 
ATOM     10  C   LIG    1       26.970 -20.221   5.721  0.00  0.00    +0.064 C 
ATOM     11  C   LIG    1       25.712 -20.743   6.427  0.00  0.00    +0.230 C 
ATOM     12  N   LIG    1       25.510 -24.289   7.211  0.00  0.00    -0.272 N 
ENDROOT
BRANCH   3  13
ATOM     13  C   LIG    1       22.903 -22.204   5.788  0.00  0.00    +0.145 C 
BRANCH  13  14
ATOM     14  C   LIG    1       23.157 -20.946   4.991  0.00  0.00    -0.030 A 
ATOM     15  C   LIG    1       23.970 -20.973   3.848  0.00  0.00    +0.005 A 
ATOM     16  C   LIG    1       24.177 -19.816   3.096  0.00  0.00    +0.000 A 
ATOM     17  C   LIG    1       23.582 -18.616   3.484  0.00  0.00    +0.000 A 
ATOM     18  C   LIG    1       22.776 -18.575   4.620  0.00  0.00    +0.000 A 
ATOM     19  C   LIG    1       22.559 -19.735   5.366  0.00  0.00    +0.005 A 
ENDBRANCH  13  14
ENDBRANCH   3  13
BRANCH  12  20
ATOM     20  C   LIG    1       26.096 -25.608   7.308  0.00  0.00    +0.145 C 
BRANCH  20  21
ATOM     21  C   LIG    1       25.511 -26.604   6.342  0.00  0.00    -0.030 A 
ATOM     22  C   LIG    1       24.777 -27.706   6.802  0.00  0.00    +0.005 A 
ATOM     23  C   LIG    1       24.263 -28.641   5.903  0.00  0.00    +0.000 A 
ATOM     24  C   LIG    1       24.491 -28.495   4.536  0.00  0.00    +0.000 A 
ATOM     25  C   LIG    1       25.216 -27.402   4.066  0.00  0.00    +0.000 A 
ATOM     26  C   LIG    1       25.709 -26.451   4.961  0.00  0.00    +0.005 A 
ENDBRANCH  20  21
ENDBRANCH  12  20
TORSDOF 4
ENDMDL
MODEL 6
REMARK VINA RESULT:      -6.3      4.812      9.366
REMARK  Name = *****
REMARK                            x       y       z     vdW  Elec       q    Type
REMARK                         _______ _______ _______ _____ _____    ______ ____
ROOT
ATOM      1  O   LIG    1       26.036 -27.692   8.372  0.00  0.00    -0.252 OA
ATOM      2  C   LIG    1       25.796 -28.709   7.740  0.00  0.00    +0.306 C 
ATOM      3  N   LIG    1       25.789 -30.022   8.236  0.00  0.00    -0.271 N 
ATOM      4  C   LIG    1       25.910 -30.946   7.111  0.00  0.00    +0.155 C 
ATOM      5  C   LIG    1       25.255 -30.160   5.978  0.00  0.00    +0.152 C 
ATOM      6  C   LIG    1       23.751 -30.470   6.021  0.00  0.00    +0.302 C 
ATOM      7  S   LIG    1       23.448 -32.078   6.858  0.00  0.00    -0.004 S 
ATOM      8  C   LIG    1       23.527 -33.146   5.384  0.00  0.00    +0.278 C 
ATOM      9  C   LIG    1       24.975 -33.266   4.961  0.00  0.00    +0.059 C 
ATOM     10  C   LIG    1       25.772 -33.355   6.251  0.00  0.00    +0.064 C 
ATOM     11  C   LIG    1       25.236 -32.308   7.236  0.00  0.00    +0.230 C 
ATOM     12  N   LIG    1       25.548 -28.791   6.368  0.00  0.00    -0.272 N 
ENDROOT
BRANCH   3  13
ATOM     13  C   LIG    1       26.239 -30.327   9.581  0.00  0.00    +0.145 C 
BRANCH  13  14
ATOM     14  C   LIG    1       25.303 -29.823  10.654  0.00  0.00    -0.030 A 
ATOM     15  C   LIG    1       25.763 -28.958  11.660  0.00  0.00    +0.005 A 
ATOM     16  C   LIG    1       24.889 -28.469  12.630  0.00  0.00    +0.000 A 
ATOM     17  C   LIG    1       23.547 -28.846  12.613  0.00  0.00    +0.000 A 
ATOM     18  C   LIG    1       23.078 -29.707  11.623  0.00  0.00    +0.000 A 
ATOM     19  C   LIG    1       23.950 -30.187  10.644  0.00  0.00    +0.005 A 
ENDBRANCH  13  14
ENDBRANCH   3  13
BRANCH  12  20
ATOM     20  C   LIG    1       25.860 -27.731   5.433  0.00  0.00    +0.145 C 
BRANCH  20  21
ATOM     21  C   LIG    1       25.387 -26.372   5.876  0.00  0.00    -0.030 A 
ATOM     22  C   LIG    1       26.302 -25.383   6.261  0.00  0.00    +0.005 A 
ATOM     23  C   LIG    1       25.855 -24.135   6.698  0.00  0.00    +0.000 A 
ATOM     24  C   LIG    1       24.490 -23.868   6.772  0.00  0.00    +0.000 A 
ATOM     25  C   LIG    1       23.570 -24.843   6.389  0.00  0.00    +0.000 A 
ATOM     26  C   LIG    1       24.015 -26.082   5.927  0.00  0.00    +0.005 A 
ENDBRANCH  20  21
ENDBRANCH  12  20
TORSDOF 4
ENDMDL
MODEL 7
REMARK VINA RESULT:      -6.2      6.787     10.206
REMARK  Name = *****
REMARK                            x       y       z     vdW  Elec       q    Type
REMARK                         _______ _______ _______ _____ _____    ______ ____
ROOT
ATOM      1  O   LIG    1       22.662 -30.326  10.154  0.00  0.00    -0.252 OA
ATOM      2  C   LIG    1       23.556 -30.021  10.928  0.00  0.00    +0.306 C 
ATOM      3  N   LIG    1       24.925 -29.926  10.634  0.00  0.00    -0.271 N 
ATOM      4  C   LIG    1       25.677 -29.987  11.884  0.00  0.00    +0.155 C 
ATOM      5  C   LIG    1       24.690 -29.387  12.882  0.00  0.00    +0.152 C 
ATOM      6  C   LIG    1       24.904 -27.866  12.873  0.00  0.00    +0.302 C 
ATOM      7  S   LIG    1       26.595 -27.456  12.281  0.00  0.00    -0.004 S 
ATOM      8  C   LIG    1       27.435 -27.466  13.899  0.00  0.00    +0.278 C 
ATOM      9  C   LIG    1       27.585 -28.903  14.347  0.00  0.00    +0.059 C 
ATOM     10  C   LIG    1       27.917 -29.691  13.092  0.00  0.00    +0.064 C 
ATOM     11  C   LIG    1       26.996 -29.224  11.958  0.00  0.00    +0.230 C 
ATOM     12  N   LIG    1       23.416 -29.769  12.295  0.00  0.00    -0.272 N 
ENDROOT
BRANCH   3  13
ATOM     13  C   LIG    1       25.456 -30.354   9.352  0.00  0.00    +0.145 C 
BRANCH  13  14
ATOM     14  C   LIG    1       25.347 -29.298   8.277  0.00  0.00    -0.030 A 
ATOM     15  C   LIG    1       24.418 -29.430   7.233  0.00  0.00    +0.005 A 
ATOM     16  C   LIG    1       24.298 -28.438   6.260  0.00  0.00    +0.000 A 
ATOM     17  C   LIG    1       25.111 -27.307   6.313  0.00  0.00    +0.000 A 
ATOM     18  C   LIG    1       26.041 -27.166   7.341  0.00  0.00    +0.000 A 
ATOM     19  C   LIG    1       26.153 -28.152   8.323  0.00  0.00    +0.005 A 
ENDBRANCH  13  14
ENDBRANCH   3  13
BRANCH  12  20
ATOM     20  C   LIG    1       22.252 -30.152  13.065  0.00  0.00    +0.145 C 
BRANCH  20  21
ATOM     21  C   LIG    1       21.287 -29.021  13.307  0.00  0.00    -0.030 A 
ATOM     22  C   LIG    1       21.528 -27.745  12.781  0.00  0.00    +0.005 A 
ATOM     23  C   LIG    1       20.644 -26.695  13.033  0.00  0.00    +0.000 A 
ATOM     24  C   LIG    1       19.519 -26.904  13.829  0.00  0.00    +0.000 A 
ATOM     25  C   LIG    1       19.267 -28.170  14.356  0.00  0.00    +0.000 A 
ATOM     26  C   LIG    1       20.136 -29.228  14.083  0.00  0.00    +0.005 A 
ENDBRANCH  20  21
ENDBRANCH  12  20
TORSDOF 4
ENDMDL
MODEL 8
REMARK VINA RESULT:      -6.2      5.922      9.219
REMARK  Name = *****
REMARK                            x       y       z     vdW  Elec       q    Type
REMARK                         _______ _______ _______ _____ _____    ______ ____
ROOT
ATOM      1  O   LIG    1       26.552 -27.940   8.753  0.00  0.00    -0.252 OA
ATOM      2  C   LIG    1       25.903 -28.920   9.084  0.00  0.00    +0.306 C 
ATOM      3  N   LIG    1       25.831 -29.485  10.366  0.00  0.00    -0.271 N 
ATOM      4  C   LIG    1       25.341 -30.856  10.246  0.00  0.00    +0.155 C 
ATOM      5  C   LIG    1       24.472 -30.777   8.993  0.00  0.00    +0.152 C 
ATOM      6  C   LIG    1       23.066 -30.356   9.443  0.00  0.00    +0.302 C 
ATOM      7  S   LIG    1       22.797 -30.785  11.209  0.00  0.00    -0.004 S 
ATOM      8  C   LIG    1       22.111 -32.455  10.959  0.00  0.00    +0.278 C 
ATOM      9  C   LIG    1       23.242 -33.380  10.567  0.00  0.00    +0.059 C 
ATOM     10  C   LIG    1       24.432 -32.951  11.407  0.00  0.00    +0.064 C 
ATOM     11  C   LIG    1       24.516 -31.419  11.398  0.00  0.00    +0.230 C 
ATOM     12  N   LIG    1       25.147 -29.735   8.237  0.00  0.00    -0.272 N 
ENDROOT
BRANCH   3  13
ATOM     13  C   LIG    1       26.686 -29.027  11.446  0.00  0.00    +0.145 C 
BRANCH  13  14
ATOM     14  C   LIG    1       26.086 -27.892  12.243  0.00  0.00    -0.030 A 
ATOM     15  C   LIG    1       26.804 -26.703  12.450  0.00  0.00    +0.005 A 
ATOM     16  C   LIG    1       26.235 -25.645  13.159  0.00  0.00    +0.000 A 
ATOM     17  C   LIG    1       24.947 -25.766  13.678  0.00  0.00    +0.000 A 
ATOM     18  C   LIG    1       24.226 -26.942  13.484  0.00  0.00    +0.000 A 
ATOM     19  C   LIG    1       24.790 -27.997  12.764  0.00  0.00    +0.005 A 
ENDBRANCH  13  14
ENDBRANCH   3  13
BRANCH  12  20
ATOM     20  C   LIG    1       25.282 -29.737   6.797  0.00  0.00    +0.145 C 
BRANCH  20  21
ATOM     21  C   LIG    1       25.200 -28.367   6.178  0.00  0.00    -0.030 A 
ATOM     22  C   LIG    1       26.176 -27.927   5.273  0.00  0.00    +0.005 A 
ATOM     23  C   LIG    1       26.109 -26.646   4.725  0.00  0.00    +0.000 A 
ATOM     24  C   LIG    1       25.077 -25.783   5.089  0.00  0.00    +0.000 A 
ATOM     25  C   LIG    1       24.099 -26.209   5.986  0.00  0.00    +0.000 A 
ATOM     26  C   LIG    1       24.149 -27.500   6.515  0.00  0.00    +0.005 A 
ENDBRANCH  20  21
ENDBRANCH  12  20
TORSDOF 4
ENDMDL
MODEL 9
REMARK VINA RESULT:      -6.1      5.129      9.887
REMARK  Name = *****
REMARK                            x       y       z     vdW  Elec       q    Type
REMARK                         _______ _______ _______ _____ _____    ______ ____
ROOT
ATOM      1  O   LIG    1       24.911 -30.575   4.920  0.00  0.00    -0.252 OA
ATOM      2  C   LIG    1       24.864 -30.318   6.112  0.00  0.00    +0.306 C 
ATOM      3  N   LIG    1       25.032 -31.221   7.173  0.00  0.00    -0.271 N 
ATOM      4  C   LIG    1       24.466 -30.631   8.384  0.00  0.00    +0.155 C 
ATOM      5  C   LIG    1       24.650 -29.138   8.129  0.00  0.00    +0.152 C 
ATOM      6  C   LIG    1       26.046 -28.759   8.645  0.00  0.00    +0.302 C 
ATOM      7  S   LIG    1       26.612 -29.960   9.915  0.00  0.00    -0.004 S 
ATOM      8  C   LIG    1       25.946 -29.107  11.381  0.00  0.00    +0.278 C 
ATOM      9  C   LIG    1       24.445 -29.296  11.399  0.00  0.00    +0.059 C 
ATOM     10  C   LIG    1       24.206 -30.721  10.930  0.00  0.00    +0.064 C 
ATOM     11  C   LIG    1       25.105 -30.999   9.718  0.00  0.00    +0.230 C 
ATOM     12  N   LIG    1       24.561 -29.077   6.679  0.00  0.00    -0.272 N 
ENDROOT
BRANCH   3  13
ATOM     13  C   LIG    1       25.130 -32.651   6.943  0.00  0.00    +0.145 C 
BRANCH  13  14
ATOM     14  C   LIG    1       26.469 -33.077   6.388  0.00  0.00    -0.030 A 
ATOM     15  C   LIG    1       26.602 -33.448   5.040  0.00  0.00    +0.005 A 
ATOM     16  C   LIG    1       27.846 -33.810   4.523  0.00  0.00    +0.000 A 
ATOM     17  C   LIG    1       28.969 -33.817   5.349  0.00  0.00    +0.000 A 
ATOM     18  C   LIG    1       28.850 -33.455   6.689  0.00  0.00    +0.000 A 
ATOM     19  C   LIG    1       27.608 -33.080   7.204  0.00  0.00    +0.005 A 
ENDBRANCH  13  14
ENDBRANCH   3  13
BRANCH  12  20
ATOM     20  C   LIG    1       23.937 -27.994   5.950  0.00  0.00    +0.145 C 
BRANCH  20  21
ATOM     21  C   LIG    1       24.608 -26.661   6.151  0.00  0.00    -0.030 A 
ATOM     22  C   LIG    1       26.002 -26.540   6.076  0.00  0.00    +0.005 A 
ATOM     23  C   LIG    1       26.619 -25.307   6.291  0.00  0.00    +0.000 A 
ATOM     24  C   LIG    1       25.852 -24.186   6.602  0.00  0.00    +0.000 A 
ATOM     25  C   LIG    1       24.464 -24.293   6.677  0.00  0.00    +0.000 A 
ATOM     26  C   LIG    1       23.843 -25.520   6.436  0.00  0.00    +0.005 A 
ENDBRANCH  20  21
ENDBRANCH  12  20
TORSDOF 4
ENDMDL
