MODEL 1
REMARK VINA RESULT:      -9.5      0.000      0.000
REMARK  Name = *****
REMARK                            x       y       z     vdW  Elec       q    Type
REMARK                         _______ _______ _______ _____ _____    ______ ____
ROOT
ATOM      1  C   LIG    1       25.263 -28.523   6.378  0.00  0.00    +0.129 A 
ATOM      2  C   LIG    1       26.027 -27.712   7.222  0.00  0.00    +0.048 A 
ATOM      3  C   LIG    1       25.962 -26.312   7.118  0.00  0.00    +0.027 A 
ATOM      4  C   LIG    1       25.100 -25.712   6.192  0.00  0.00    +0.035 A 
ATOM      5  C   LIG    1       24.344 -26.528   5.355  0.00  0.00    +0.027 A 
ATOM      6  C   LIG    1       24.408 -27.920   5.457  0.00  0.00    +0.048 A 
ENDROOT
BRANCH   4   7
ATOM      7  N   LIG    1       24.971 -24.307   6.187  0.00  0.00    -0.269 N 
ATOM      8  H   LIG    1       25.765 -23.786   5.849  0.00  0.00    +0.156 HD
ATOM      9  C   LIG    1       23.847 -23.595   6.536  0.00  0.00    +0.308 C 
ATOM     10  N   LIG    1       23.944 -22.230   6.488  0.00  0.00    -0.269 N 
ATOM     11  H   LIG    1       23.030 -21.791   6.520  0.00  0.00    +0.156 HD
ATOM     12  O   LIG    1       22.745 -24.062   6.806  0.00  0.00    -0.252 OA
BRANCH  10  13
ATOM     13  C   LIG    1       25.045 -21.456   6.131  0.00  0.00    +0.035 A 
ATOM     14  C   LIG    1       26.180 -21.424   6.942  0.00  0.00    +0.037 A 
ATOM     15  C   LIG    1       27.275 -20.592   6.627  0.00  0.00    +0.075 A 
ATOM     16  C   LIG    1       27.183 -19.789   5.485  0.00  0.00    +0.053 A 
ATOM     17 CL   LIG    1       28.396 -18.651   5.028  0.00  0.00    -0.083 Cl
ATOM     18  C   LIG    1       26.057 -19.860   4.652  0.00  0.00    +0.022 A 
ATOM     19  C   LIG    1       24.980 -20.680   4.981  0.00  0.00    +0.025 A 
BRANCH  15  20
ATOM     20  C   LIG    1       28.472 -20.652   7.537  0.00  0.00    +0.419 C 
ATOM     21  F   LIG    1       28.374 -21.699   8.408  0.00  0.00    -0.166 F 
ATOM     22  F   LIG    1       28.579 -19.540   8.319  0.00  0.00    -0.166 F 
ATOM     23  F   LIG    1       29.682 -20.797   6.939  0.00  0.00    -0.166 F 
ENDBRANCH  15  20
ENDBRANCH  10  13
ENDBRANCH   4   7
BRANCH   1  24
ATOM     24  O   LIG    1       25.210 -29.900   6.461  0.00  0.00    -0.456 OA
BRANCH  24  29
ATOM     25  C   LIG    1       23.529 -30.819   9.602  0.00  0.00    +0.129 A 
ATOM     26  N   LIG    1       24.233 -31.908  10.005  0.00  0.00    -0.250 NA
ATOM     27  C   LIG    1       25.270 -32.266   9.222  0.00  0.00    +0.115 A 
ATOM     28  C   LIG    1       25.582 -31.638   8.024  0.00  0.00    +0.066 A 
ATOM     29  C   LIG    1       24.835 -30.524   7.633  0.00  0.00    +0.132 A 
ATOM     30  C   LIG    1       23.809 -30.073   8.467  0.00  0.00    +0.079 A 
BRANCH  25  34
ATOM     31  C   LIG    1       21.485 -29.291  12.385  0.00  0.00    +0.128 C 
ATOM     32  N   LIG    1       22.542 -29.692  11.500  0.00  0.00    -0.313 N 
ATOM     33  H   LIG    1       23.473 -29.306  11.587  0.00  0.00    +0.149 HD
ATOM     34  C   LIG    1       22.296 -30.491  10.393  0.00  0.00    +0.262 C 
ATOM     35  O   LIG    1       21.214 -30.938  10.098  0.00  0.00    -0.269 OA
ENDBRANCH  25  34
ENDBRANCH  24  29
ENDBRANCH   1  24
TORSDOF 6
ENDMDL
MODEL 2
REMARK VINA RESULT:      -9.0      4.775      9.961
REMARK  Name = *****
REMARK                            x       y       z     vdW  Elec       q    Type
REMARK                         _______ _______ _______ _____ _____    ______ ____
ROOT
ATOM      1  C   LIG    1       24.855 -23.014   6.713  0.00  0.00    +0.129 A 
ATOM      2  C   LIG    1       23.673 -23.746   6.560  0.00  0.00    +0.048 A 
ATOM      3  C   LIG    1       23.710 -25.145   6.435  0.00  0.00    +0.027 A 
ATOM      4  C   LIG    1       24.930 -25.828   6.500  0.00  0.00    +0.035 A 
ATOM      5  C   LIG    1       26.103 -25.091   6.652  0.00  0.00    +0.027 A 
ATOM      6  C   LIG    1       26.067 -23.699   6.776  0.00  0.00    +0.048 A 
ENDROOT
BRANCH   4   7
ATOM      7  N   LIG    1       24.928 -27.238   6.486  0.00  0.00    -0.269 N 
ATOM      8  H   LIG    1       24.480 -27.693   7.266  0.00  0.00    +0.156 HD
ATOM      9  C   LIG    1       25.418 -28.040   5.481  0.00  0.00    +0.308 C 
ATOM     10  N   LIG    1       25.342 -29.392   5.682  0.00  0.00    -0.269 N 
ATOM     11  H   LIG    1       25.494 -29.905   4.819  0.00  0.00    +0.156 HD
ATOM     12  O   LIG    1       25.841 -27.665   4.392  0.00  0.00    -0.252 OA
BRANCH  10  13
ATOM     13  C   LIG    1       24.832 -30.074   6.783  0.00  0.00    +0.035 A 
ATOM     14  C   LIG    1       25.115 -29.639   8.078  0.00  0.00    +0.037 A 
ATOM     15  C   LIG    1       24.660 -30.359   9.202  0.00  0.00    +0.075 A 
ATOM     16  C   LIG    1       23.927 -31.530   8.981  0.00  0.00    +0.053 A 
ATOM     17 CL   LIG    1       23.390 -32.566  10.250  0.00  0.00    -0.083 Cl
ATOM     18  C   LIG    1       23.608 -31.935   7.676  0.00  0.00    +0.022 A 
ATOM     19  C   LIG    1       24.073 -31.219   6.576  0.00  0.00    +0.025 A 
BRANCH  15  20
ATOM     20  C   LIG    1       24.981 -29.796  10.561  0.00  0.00    +0.419 C 
ATOM     21  F   LIG    1       25.758 -28.677  10.455  0.00  0.00    -0.166 F 
ATOM     22  F   LIG    1       25.703 -30.667  11.320  0.00  0.00    -0.166 F 
ATOM     23  F   LIG    1       23.925 -29.426  11.328  0.00  0.00    -0.166 F 
ENDBRANCH  15  20
ENDBRANCH  10  13
ENDBRANCH   4   7
BRANCH   1  24
ATOM     24  O   LIG    1       24.905 -21.650   6.917  0.00  0.00    -0.456 OA
BRANCH  24  29
ATOM     25  C   LIG    1       28.198 -20.033   7.207  0.00  0.00    +0.129 A 
ATOM     26  N   LIG    1       28.339 -19.436   5.995  0.00  0.00    -0.250 NA
ATOM     27  C   LIG    1       27.303 -19.569   5.143  0.00  0.00    +0.115 A 
ATOM     28  C   LIG    1       26.176 -20.333   5.417  0.00  0.00    +0.066 A 
ATOM     29  C   LIG    1       26.063 -20.940   6.670  0.00  0.00    +0.132 A 
ATOM     30  C   LIG    1       27.079 -20.749   7.607  0.00  0.00    +0.079 A 
BRANCH  25  34
ATOM     31  C   LIG    1       31.313 -21.332   8.900  0.00  0.00    +0.128 C 
ATOM     32  N   LIG    1       30.141 -21.172   8.086  0.00  0.00    -0.313 N 
ATOM     33  H   LIG    1       29.893 -21.857   7.383  0.00  0.00    +0.149 HD
ATOM     34  C   LIG    1       29.395 -20.002   8.110  0.00  0.00    +0.262 C 
ATOM     35  O   LIG    1       29.633 -19.054   8.819  0.00  0.00    -0.269 OA
ENDBRANCH  25  34
ENDBRANCH  24  29
ENDBRANCH   1  24
TORSDOF 6
ENDMDL
MODEL 3
REMARK VINA RESULT:      -9.0      1.854      2.166
REMARK  Name = *****
REMARK                            x       y       z     vdW  Elec       q    Type
REMARK                         _______ _______ _______ _____ _____    ______ ____
ROOT
ATOM      1  C   LIG    1       25.379 -28.356   5.490  0.00  0.00    +0.129 A 
ATOM      2  C   LIG    1       26.551 -27.597   5.562  0.00  0.00    +0.048 A 
ATOM      3  C   LIG    1       26.489 -26.198   5.677  0.00  0.00    +0.027 A 
ATOM      4  C   LIG    1       25.252 -25.549   5.758  0.00  0.00    +0.035 A 
ATOM      5  C   LIG    1       24.089 -26.313   5.684  0.00  0.00    +0.027 A 
ATOM      6  C   LIG    1       24.149 -27.705   5.570  0.00  0.00    +0.048 A 
ENDROOT
BRANCH   4   7
ATOM      7  N   LIG    1       25.221 -24.158   5.986  0.00  0.00    -0.269 N 
ATOM      8  H   LIG    1       25.995 -23.627   5.616  0.00  0.00    +0.156 HD
ATOM      9  C   LIG    1       24.210 -23.459   6.604  0.00  0.00    +0.308 C 
ATOM     10  N   LIG    1       24.395 -22.110   6.750  0.00  0.00    -0.269 N 
ATOM     11  H   LIG    1       23.527 -21.640   6.986  0.00  0.00    +0.156 HD
ATOM     12  O   LIG    1       23.127 -23.912   6.963  0.00  0.00    -0.252 OA
BRANCH  10  13
ATOM     13  C   LIG    1       25.486 -21.341   6.354  0.00  0.00    +0.035 A 
ATOM     14  C   LIG    1       26.645 -21.304   7.130  0.00  0.00    +0.037 A 
ATOM     15  C   LIG    1       27.730 -20.477   6.775  0.00  0.00    +0.075 A 
ATOM     16  C   LIG    1       27.607 -19.684   5.629  0.00  0.00    +0.053 A 
ATOM     17 CL   LIG    1       28.807 -18.552   5.126  0.00  0.00    -0.083 Cl
ATOM     18  C   LIG    1       26.456 -19.761   4.831  0.00  0.00    +0.022 A 
ATOM     19  C   LIG    1       25.388 -20.575   5.199  0.00  0.00    +0.025 A 
BRANCH  15  20
ATOM     20  C   LIG    1       28.955 -20.530   7.650  0.00  0.00    +0.419 C 
ATOM     21  F   LIG    1       29.050 -19.411   8.427  0.00  0.00    -0.166 F 
ATOM     22  F   LIG    1       30.106 -20.563   6.921  0.00  0.00    -0.166 F 
ATOM     23  F   LIG    1       29.037 -21.573   8.515  0.00  0.00    -0.166 F 
ENDBRANCH  15  20
ENDBRANCH  10  13
ENDBRANCH   4   7
BRANCH   1  24
ATOM     24  O   LIG    1       25.345 -29.736   5.451  0.00  0.00    -0.456 OA
BRANCH  24  29
ATOM     25  C   LIG    1       25.540 -31.160   8.838  0.00  0.00    +0.129 A 
ATOM     26  N   LIG    1       24.533 -32.071   8.833  0.00  0.00    -0.250 NA
ATOM     27  C   LIG    1       23.853 -32.195   7.676  0.00  0.00    +0.115 A 
ATOM     28  C   LIG    1       24.081 -31.402   6.560  0.00  0.00    +0.066 A 
ATOM     29  C   LIG    1       25.121 -30.469   6.599  0.00  0.00    +0.132 A 
ATOM     30  C   LIG    1       25.902 -30.377   7.752  0.00  0.00    +0.079 A 
BRANCH  25  34
ATOM     31  C   LIG    1       27.804 -29.444  11.326  0.00  0.00    +0.128 C 
ATOM     32  N   LIG    1       27.059 -29.818  10.157  0.00  0.00    -0.313 N 
ATOM     33  H   LIG    1       27.031 -29.222   9.340  0.00  0.00    +0.149 HD
ATOM     34  C   LIG    1       26.216 -30.920  10.157  0.00  0.00    +0.262 C 
ATOM     35  O   LIG    1       26.061 -31.663  11.096  0.00  0.00    -0.269 OA
ENDBRANCH  25  34
ENDBRANCH  24  29
ENDBRANCH   1  24
TORSDOF 6
ENDMDL
MODEL 4
REMARK VINA RESULT:      -8.9      6.151     11.129
REMARK  Name = *****
REMARK                            x       y       z     vdW  Elec       q    Type
REMARK                         _______ _______ _______ _____ _____    ______ ____
ROOT
ATOM      1  C   LIG    1       30.920 -19.363   8.329  0.00  0.00    +0.129 A 
ATOM      2  C   LIG    1       30.845 -20.718   8.666  0.00  0.00    +0.048 A 
ATOM      3  C   LIG    1       29.635 -21.420   8.535  0.00  0.00    +0.027 A 
ATOM      4  C   LIG    1       28.497 -20.780   8.030  0.00  0.00    +0.035 A 
ATOM      5  C   LIG    1       28.581 -19.430   7.697  0.00  0.00    +0.027 A 
ATOM      6  C   LIG    1       29.784 -18.730   7.826  0.00  0.00    +0.048 A 
ENDROOT
BRANCH   4   7
ATOM      7  N   LIG    1       27.329 -21.537   7.803  0.00  0.00    -0.269 N 
ATOM      8  H   LIG    1       27.413 -22.306   7.156  0.00  0.00    +0.156 HD
ATOM      9  C   LIG    1       26.116 -21.363   8.428  0.00  0.00    +0.308 C 
ATOM     10  N   LIG    1       25.099 -22.193   8.037  0.00  0.00    -0.269 N 
ATOM     11  H   LIG    1       24.327 -22.169   8.696  0.00  0.00    +0.156 HD
ATOM     12  O   LIG    1       25.879 -20.595   9.355  0.00  0.00    -0.252 OA
BRANCH  10  13
ATOM     13  C   LIG    1       25.127 -23.200   7.077  0.00  0.00    +0.035 A 
ATOM     14  C   LIG    1       25.580 -24.478   7.405  0.00  0.00    +0.037 A 
ATOM     15  C   LIG    1       25.678 -25.488   6.426  0.00  0.00    +0.075 A 
ATOM     16  C   LIG    1       25.320 -25.167   5.112  0.00  0.00    +0.053 A 
ATOM     17 CL   LIG    1       25.480 -26.265   3.792  0.00  0.00    -0.083 Cl
ATOM     18  C   LIG    1       24.823 -23.893   4.800  0.00  0.00    +0.022 A 
ATOM     19  C   LIG    1       24.742 -22.903   5.776  0.00  0.00    +0.025 A 
BRANCH  15  20
ATOM     20  C   LIG    1       26.140 -26.848   6.879  0.00  0.00    +0.419 C 
ATOM     21  F   LIG    1       27.329 -27.180   6.295  0.00  0.00    -0.166 F 
ATOM     22  F   LIG    1       25.271 -27.833   6.515  0.00  0.00    -0.166 F 
ATOM     23  F   LIG    1       26.339 -27.007   8.211  0.00  0.00    -0.166 F 
ENDBRANCH  15  20
ENDBRANCH  10  13
ENDBRANCH   4   7
BRANCH   1  24
ATOM     24  O   LIG    1       32.081 -18.617   8.355  0.00  0.00    -0.456 OA
BRANCH  24  29
ATOM     25  C   LIG    1       32.211 -16.696  11.490  0.00  0.00    +0.129 A 
ATOM     26  N   LIG    1       32.679 -15.490  11.076  0.00  0.00    -0.250 NA
ATOM     27  C   LIG    1       32.897 -15.360   9.753  0.00  0.00    +0.115 A 
ATOM     28  C   LIG    1       32.743 -16.397   8.843  0.00  0.00    +0.066 A 
ATOM     29  C   LIG    1       32.265 -17.628   9.300  0.00  0.00    +0.132 A 
ATOM     30  C   LIG    1       31.947 -17.769  10.652  0.00  0.00    +0.079 A 
BRANCH  25  34
ATOM     31  C   LIG    1       32.338 -15.758  15.146  0.00  0.00    +0.128 C 
ATOM     32  N   LIG    1       32.383 -15.754  13.710  0.00  0.00    -0.313 N 
ATOM     33  H   LIG    1       32.508 -14.894  13.192  0.00  0.00    +0.149 HD
ATOM     34  C   LIG    1       32.091 -16.893  12.973  0.00  0.00    +0.262 C 
ATOM     35  O   LIG    1       31.816 -17.966  13.452  0.00  0.00    -0.269 OA
ENDBRANCH  25  34
ENDBRANCH  24  29
ENDBRANCH   1  24
TORSDOF 6
ENDMDL
MODEL 5
REMARK VINA RESULT:      -8.7      4.998     10.173
REMARK  Name = *****
REMARK                            x       y       z     vdW  Elec       q    Type
REMARK                         _______ _______ _______ _____ _____    ______ ____
ROOT
ATOM      1  C   LIG    1       24.965 -23.663   6.022  0.00  0.00    +0.129 A 
ATOM      2  C   LIG    1       23.767 -24.385   6.045  0.00  0.00    +0.048 A 
ATOM      3  C   LIG    1       23.774 -25.770   6.284  0.00  0.00    +0.027 A 
ATOM      4  C   LIG    1       24.978 -26.437   6.539  0.00  0.00    +0.035 A 
ATOM      5  C   LIG    1       26.165 -25.710   6.513  0.00  0.00    +0.027 A 
ATOM      6  C   LIG    1       26.160 -24.333   6.276  0.00  0.00    +0.048 A 
ENDROOT
BRANCH   4   7
ATOM      7  N   LIG    1       24.943 -27.804   6.886  0.00  0.00    -0.269 N 
ATOM      8  H   LIG    1       24.937 -28.015   7.873  0.00  0.00    +0.156 HD
ATOM      9  C   LIG    1       24.852 -28.861   6.011  0.00  0.00    +0.308 C 
ATOM     10  N   LIG    1       24.863 -30.116   6.560  0.00  0.00    -0.269 N 
ATOM     11  H   LIG    1       24.554 -30.816   5.893  0.00  0.00    +0.156 HD
ATOM     12  O   LIG    1       24.681 -28.789   4.798  0.00  0.00    -0.252 OA
BRANCH  10  13
ATOM     13  C   LIG    1       24.958 -30.470   7.903  0.00  0.00    +0.035 A 
ATOM     14  C   LIG    1       23.866 -30.307   8.757  0.00  0.00    +0.037 A 
ATOM     15  C   LIG    1       23.970 -30.598  10.133  0.00  0.00    +0.075 A 
ATOM     16  C   LIG    1       25.204 -31.041  10.620  0.00  0.00    +0.053 A 
ATOM     17 CL   LIG    1       25.511 -31.341  12.290  0.00  0.00    -0.083 Cl
ATOM     18  C   LIG    1       26.283 -31.245   9.747  0.00  0.00    +0.022 A 
ATOM     19  C   LIG    1       26.168 -30.944   8.392  0.00  0.00    +0.025 A 
BRANCH  15  20
ATOM     20  C   LIG    1       22.730 -30.429  10.970  0.00  0.00    +0.419 C 
ATOM     21  F   LIG    1       21.617 -30.343  10.185  0.00  0.00    -0.166 F 
ATOM     22  F   LIG    1       22.753 -29.274  11.693  0.00  0.00    -0.166 F 
ATOM     23  F   LIG    1       22.463 -31.416  11.862  0.00  0.00    -0.166 F 
ENDBRANCH  15  20
ENDBRANCH  10  13
ENDBRANCH   4   7
BRANCH   1  24
ATOM     24  O   LIG    1       25.044 -22.293   5.870  0.00  0.00    -0.456 OA
BRANCH  24  29
ATOM     25  C   LIG    1       27.779 -20.288   7.298  0.00  0.00    +0.129 A 
ATOM     26  N   LIG    1       27.329 -20.029   8.553  0.00  0.00    -0.250 NA
ATOM     27  C   LIG    1       26.140 -20.571   8.880  0.00  0.00    +0.115 A 
ATOM     28  C   LIG    1       25.351 -21.289   7.992  0.00  0.00    +0.066 A 
ATOM     29  C   LIG    1       25.839 -21.534   6.705  0.00  0.00    +0.132 A 
ATOM     30  C   LIG    1       27.107 -21.061   6.363  0.00  0.00    +0.079 A 
BRANCH  25  34
ATOM     31  C   LIG    1       31.326 -19.029   7.599  0.00  0.00    +0.128 C 
ATOM     32  N   LIG    1       30.055 -19.660   7.819  0.00  0.00    -0.313 N 
ATOM     33  H   LIG    1       29.906 -20.280   8.604  0.00  0.00    +0.149 HD
ATOM     34  C   LIG    1       29.036 -19.582   6.880  0.00  0.00    +0.262 C 
ATOM     35  O   LIG    1       29.107 -18.970   5.842  0.00  0.00    -0.269 OA
ENDBRANCH  25  34
ENDBRANCH  24  29
ENDBRANCH   1  24
TORSDOF 6
ENDMDL
MODEL 6
REMARK VINA RESULT:      -8.6      1.995      2.219
REMARK  Name = *****
REMARK                            x       y       z     vdW  Elec       q    Type
REMARK                         _______ _______ _______ _____ _____    ______ ____
ROOT
ATOM      1  C   LIG    1       25.391 -27.969   6.496  0.00  0.00    +0.129 A 
ATOM      2  C   LIG    1       26.067 -26.936   7.152  0.00  0.00    +0.048 A 
ATOM      3  C   LIG    1       25.740 -25.594   6.897  0.00  0.00    +0.027 A 
ATOM      4  C   LIG    1       24.705 -25.275   6.010  0.00  0.00    +0.035 A 
ATOM      5  C   LIG    1       24.038 -26.310   5.360  0.00  0.00    +0.027 A 
ATOM      6  C   LIG    1       24.362 -27.646   5.612  0.00  0.00    +0.048 A 
ENDROOT
BRANCH   4   7
ATOM      7  N   LIG    1       24.324 -23.926   5.860  0.00  0.00    -0.269 N 
ATOM      8  H   LIG    1       24.923 -23.352   5.286  0.00  0.00    +0.156 HD
ATOM      9  C   LIG    1       23.184 -23.344   6.365  0.00  0.00    +0.308 C 
ATOM     10  N   LIG    1       23.019 -22.005   6.126  0.00  0.00    -0.269 N 
ATOM     11  H   LIG    1       22.066 -21.710   6.312  0.00  0.00    +0.156 HD
ATOM     12  O   LIG    1       22.265 -23.921   6.937  0.00  0.00    -0.252 OA
BRANCH  10  13
ATOM     13  C   LIG    1       23.863 -21.142   5.433  0.00  0.00    +0.035 A 
ATOM     14  C   LIG    1       25.169 -20.924   5.874  0.00  0.00    +0.037 A 
ATOM     15  C   LIG    1       26.012 -20.001   5.220  0.00  0.00    +0.075 A 
ATOM     16  C   LIG    1       25.496 -19.300   4.124  0.00  0.00    +0.053 A 
ATOM     17 CL   LIG    1       26.371 -18.072   3.289  0.00  0.00    -0.083 Cl
ATOM     18  C   LIG    1       24.198 -19.559   3.661  0.00  0.00    +0.022 A 
ATOM     19  C   LIG    1       23.374 -20.466   4.323  0.00  0.00    +0.025 A 
BRANCH  15  20
ATOM     20  C   LIG    1       27.417 -19.859   5.742  0.00  0.00    +0.419 C 
ATOM     21  F   LIG    1       27.427 -19.779   7.105  0.00  0.00    -0.166 F 
ATOM     22  F   LIG    1       28.011 -18.711   5.309  0.00  0.00    -0.166 F 
ATOM     23  F   LIG    1       28.281 -20.859   5.436  0.00  0.00    -0.166 F 
ENDBRANCH  15  20
ENDBRANCH  10  13
ENDBRANCH   4   7
BRANCH   1  24
ATOM     24  O   LIG    1       25.595 -29.313   6.740  0.00  0.00    -0.456 OA
BRANCH  24  29
ATOM     25  C   LIG    1       25.323 -30.348  10.260  0.00  0.00    +0.129 A 
ATOM     26  N   LIG    1       24.231 -31.154  10.245  0.00  0.00    -0.250 NA
ATOM     27  C   LIG    1       23.652 -31.348   9.044  0.00  0.00    +0.115 A 
ATOM     28  C   LIG    1       24.066 -30.713   7.880  0.00  0.00    +0.066 A 
ATOM     29  C   LIG    1       25.190 -29.884   7.929  0.00  0.00    +0.132 A 
ATOM     30  C   LIG    1       25.864 -29.733   9.141  0.00  0.00    +0.079 A 
BRANCH  25  34
ATOM     31  C   LIG    1       26.114 -28.228  13.283  0.00  0.00    +0.128 C 
ATOM     32  N   LIG    1       25.631 -28.724  12.025  0.00  0.00    -0.313 N 
ATOM     33  H   LIG    1       24.985 -28.186  11.462  0.00  0.00    +0.149 HD
ATOM     34  C   LIG    1       25.894 -30.022  11.609  0.00  0.00    +0.262 C 
ATOM     35  O   LIG    1       26.559 -30.817  12.227  0.00  0.00    -0.269 OA
ENDBRANCH  25  34
ENDBRANCH  24  29
ENDBRANCH   1  24
TORSDOF 6
ENDMDL
MODEL 7
REMARK VINA RESULT:      -8.6      2.306      2.785
REMARK  Name = *****
REMARK                            x       y       z     vdW  Elec       q    Type
REMARK                         _______ _______ _______ _____ _____    ______ ____
ROOT
ATOM      1  C   LIG    1       24.896 -27.856   5.519  0.00  0.00    +0.129 A 
ATOM      2  C   LIG    1       26.157 -27.341   5.201  0.00  0.00    +0.048 A 
ATOM      3  C   LIG    1       26.425 -25.970   5.344  0.00  0.00    +0.027 A 
ATOM      4  C   LIG    1       25.443 -25.105   5.843  0.00  0.00    +0.035 A 
ATOM      5  C   LIG    1       24.190 -25.626   6.155  0.00  0.00    +0.027 A 
ATOM      6  C   LIG    1       23.921 -26.990   6.014  0.00  0.00    +0.048 A 
ENDROOT
BRANCH   4   7
ATOM      7  N   LIG    1       25.775 -23.756   6.082  0.00  0.00    -0.269 N 
ATOM      8  H   LIG    1       26.711 -23.578   6.414  0.00  0.00    +0.156 HD
ATOM      9  C   LIG    1       24.969 -22.667   5.844  0.00  0.00    +0.308 C 
ATOM     10  N   LIG    1       25.478 -21.440   6.176  0.00  0.00    -0.269 N 
ATOM     11  H   LIG    1       24.940 -20.689   5.757  0.00  0.00    +0.156 HD
ATOM     12  O   LIG    1       23.875 -22.680   5.289  0.00  0.00    -0.252 OA
BRANCH  10  13
ATOM     13  C   LIG    1       26.719 -21.143   6.734  0.00  0.00    +0.035 A 
ATOM     14  C   LIG    1       27.507 -20.121   6.204  0.00  0.00    +0.037 A 
ATOM     15  C   LIG    1       28.793 -19.855   6.717  0.00  0.00    +0.075 A 
ATOM     16  C   LIG    1       29.262 -20.655   7.764  0.00  0.00    +0.053 A 
ATOM     17 CL   LIG    1       30.848 -20.515   8.426  0.00  0.00    -0.083 Cl
ATOM     18  C   LIG    1       28.446 -21.651   8.321  0.00  0.00    +0.022 A 
ATOM     19  C   LIG    1       27.181 -21.908   7.797  0.00  0.00    +0.025 A 
BRANCH  15  20
ATOM     20  C   LIG    1       29.556 -18.708   6.109  0.00  0.00    +0.419 C 
ATOM     21  F   LIG    1       30.767 -19.124   5.633  0.00  0.00    -0.166 F 
ATOM     22  F   LIG    1       29.840 -17.738   7.023  0.00  0.00    -0.166 F 
ATOM     23  F   LIG    1       28.963 -18.070   5.068  0.00  0.00    -0.166 F 
ENDBRANCH  15  20
ENDBRANCH  10  13
ENDBRANCH   4   7
BRANCH   1  24
ATOM     24  O   LIG    1       24.569 -29.196   5.480  0.00  0.00    -0.456 OA
BRANCH  24  29
ATOM     25  C   LIG    1       25.918 -30.948   8.421  0.00  0.00    +0.129 A 
ATOM     26  N   LIG    1       26.521 -32.031   7.866  0.00  0.00    -0.250 NA
ATOM     27  C   LIG    1       26.482 -32.108   6.522  0.00  0.00    +0.115 A 
ATOM     28  C   LIG    1       25.805 -31.200   5.719  0.00  0.00    +0.066 A 
ATOM     29  C   LIG    1       25.189 -30.099   6.319  0.00  0.00    +0.132 A 
ATOM     30  C   LIG    1       25.286 -29.943   7.703  0.00  0.00    +0.079 A 
BRANCH  25  34
ATOM     31  C   LIG    1       25.224 -29.510  11.843  0.00  0.00    +0.128 C 
ATOM     32  N   LIG    1       25.352 -29.726  10.429  0.00  0.00    -0.313 N 
ATOM     33  H   LIG    1       24.977 -29.064   9.762  0.00  0.00    +0.149 HD
ATOM     34  C   LIG    1       25.841 -30.920   9.919  0.00  0.00    +0.262 C 
ATOM     35  O   LIG    1       26.225 -31.845  10.593  0.00  0.00    -0.269 OA
ENDBRANCH  25  34
ENDBRANCH  24  29
ENDBRANCH   1  24
TORSDOF 6
ENDMDL
MODEL 8
REMARK VINA RESULT:      -8.5      4.960     10.187
REMARK  Name = *****
REMARK                            x       y       z     vdW  Elec       q    Type
REMARK                         _______ _______ _______ _____ _____    ______ ____
ROOT
ATOM      1  C   LIG    1       24.631 -22.711   7.026  0.00  0.00    +0.129 A 
ATOM      2  C   LIG    1       25.844 -23.376   7.229  0.00  0.00    +0.048 A 
ATOM      3  C   LIG    1       25.930 -24.770   7.066  0.00  0.00    +0.027 A 
ATOM      4  C   LIG    1       24.809 -25.504   6.663  0.00  0.00    +0.035 A 
ATOM      5  C   LIG    1       23.604 -24.834   6.465  0.00  0.00    +0.027 A 
ATOM      6  C   LIG    1       23.518 -23.448   6.626  0.00  0.00    +0.048 A 
ENDROOT
BRANCH   4   7
ATOM      7  N   LIG    1       24.952 -26.882   6.398  0.00  0.00    -0.269 N 
ATOM      8  H   LIG    1       24.413 -27.508   6.978  0.00  0.00    +0.156 HD
ATOM      9  C   LIG    1       25.701 -27.441   5.389  0.00  0.00    +0.308 C 
ATOM     10  N   LIG    1       25.726 -28.809   5.326  0.00  0.00    -0.269 N 
ATOM     11  H   LIG    1       26.087 -29.134   4.436  0.00  0.00    +0.156 HD
ATOM     12  O   LIG    1       26.280 -26.836   4.492  0.00  0.00    -0.252 OA
BRANCH  10  13
ATOM     13  C   LIG    1       25.089 -29.722   6.162  0.00  0.00    +0.035 A 
ATOM     14  C   LIG    1       25.092 -29.538   7.545  0.00  0.00    +0.037 A 
ATOM     15  C   LIG    1       24.509 -30.490   8.406  0.00  0.00    +0.075 A 
ATOM     16  C   LIG    1       23.939 -31.633   7.834  0.00  0.00    +0.053 A 
ATOM     17 CL   LIG    1       23.279 -32.928   8.762  0.00  0.00    -0.083 Cl
ATOM     18  C   LIG    1       23.900 -31.788   6.441  0.00  0.00    +0.022 A 
ATOM     19  C   LIG    1       24.489 -30.844   5.604  0.00  0.00    +0.025 A 
BRANCH  15  20
ATOM     20  C   LIG    1       24.525 -30.190   9.881  0.00  0.00    +0.419 C 
ATOM     21  F   LIG    1       25.304 -29.101  10.151  0.00  0.00    -0.166 F 
ATOM     22  F   LIG    1       25.066 -31.209  10.607  0.00  0.00    -0.166 F 
ATOM     23  F   LIG    1       23.326 -29.923  10.459  0.00  0.00    -0.166 F 
ENDBRANCH  15  20
ENDBRANCH  10  13
ENDBRANCH   4   7
BRANCH   1  24
ATOM     24  O   LIG    1       24.474 -21.341   7.091  0.00  0.00    -0.456 OA
BRANCH  24  29
ATOM     25  C   LIG    1       23.036 -19.216   4.454  0.00  0.00    +0.129 A 
ATOM     26  N   LIG    1       24.043 -19.154   3.545  0.00  0.00    -0.250 NA
ATOM     27  C   LIG    1       25.151 -19.862   3.838  0.00  0.00    +0.115 A 
ATOM     28  C   LIG    1       25.327 -20.558   5.027  0.00  0.00    +0.066 A 
ATOM     29  C   LIG    1       24.275 -20.598   5.945  0.00  0.00    +0.132 A 
ATOM     30  C   LIG    1       23.080 -19.948   5.631  0.00  0.00    +0.079 A 
BRANCH  25  34
ATOM     31  C   LIG    1       19.667 -18.223   3.067  0.00  0.00    +0.128 C 
ATOM     32  N   LIG    1       20.866 -18.926   3.427  0.00  0.00    -0.313 N 
ATOM     33  H   LIG    1       20.974 -19.913   3.231  0.00  0.00    +0.149 HD
ATOM     34  C   LIG    1       21.852 -18.330   4.201  0.00  0.00    +0.262 C 
ATOM     35  O   LIG    1       21.811 -17.192   4.602  0.00  0.00    -0.269 OA
ENDBRANCH  25  34
ENDBRANCH  24  29
ENDBRANCH   1  24
TORSDOF 6
ENDMDL
MODEL 9
REMARK VINA RESULT:      -8.5      2.156      2.591
REMARK  Name = *****
REMARK                            x       y       z     vdW  Elec       q    Type
REMARK                         _______ _______ _______ _____ _____    ______ ____
ROOT
ATOM      1  C   LIG    1       25.310 -28.626   6.046  0.00  0.00    +0.129 A 
ATOM      2  C   LIG    1       25.957 -27.847   7.011  0.00  0.00    +0.048 A 
ATOM      3  C   LIG    1       25.802 -26.451   7.023  0.00  0.00    +0.027 A 
ATOM      4  C   LIG    1       24.967 -25.825   6.090  0.00  0.00    +0.035 A 
ATOM      5  C   LIG    1       24.327 -26.608   5.132  0.00  0.00    +0.027 A 
ATOM      6  C   LIG    1       24.481 -27.997   5.119  0.00  0.00    +0.048 A 
ENDROOT
BRANCH   4   7
ATOM      7  N   LIG    1       24.741 -24.437   6.196  0.00  0.00    -0.269 N 
ATOM      8  H   LIG    1       25.476 -23.836   5.854  0.00  0.00    +0.156 HD
ATOM      9  C   LIG    1       23.594 -23.834   6.658  0.00  0.00    +0.308 C 
ATOM     10  N   LIG    1       23.594 -22.465   6.705  0.00  0.00    -0.269 N 
ATOM     11  H   LIG    1       22.655 -22.098   6.821  0.00  0.00    +0.156 HD
ATOM     12  O   LIG    1       22.545 -24.398   6.954  0.00  0.00    -0.252 OA
BRANCH  10  13
ATOM     13  C   LIG    1       24.615 -21.590   6.347  0.00  0.00    +0.035 A 
ATOM     14  C   LIG    1       24.494 -20.789   5.211  0.00  0.00    +0.037 A 
ATOM     15  C   LIG    1       25.548 -19.948   4.799  0.00  0.00    +0.075 A 
ATOM     16  C   LIG    1       26.726 -19.950   5.555  0.00  0.00    +0.053 A 
ATOM     17 CL   LIG    1       28.132 -19.052   5.121  0.00  0.00    -0.083 Cl
ATOM     18  C   LIG    1       26.822 -20.725   6.720  0.00  0.00    +0.022 A 
ATOM     19  C   LIG    1       25.776 -21.558   7.109  0.00  0.00    +0.025 A 
BRANCH  15  20
ATOM     20  C   LIG    1       25.314 -19.090   3.584  0.00  0.00    +0.419 C 
ATOM     21  F   LIG    1       23.987 -18.805   3.434  0.00  0.00    -0.166 F 
ATOM     22  F   LIG    1       25.680 -19.721   2.432  0.00  0.00    -0.166 F 
ATOM     23  F   LIG    1       25.942 -17.888   3.560  0.00  0.00    -0.166 F 
ENDBRANCH  15  20
ENDBRANCH  10  13
ENDBRANCH   4   7
BRANCH   1  24
ATOM     24  O   LIG    1       25.347 -30.005   6.006  0.00  0.00    -0.456 OA
BRANCH  24  29
ATOM     25  C   LIG    1       23.457 -31.319   8.877  0.00  0.00    +0.129 A 
ATOM     26  N   LIG    1       22.863 -32.424   8.356  0.00  0.00    -0.250 NA
ATOM     27  C   LIG    1       23.153 -32.704   7.070  0.00  0.00    +0.115 A 
ATOM     28  C   LIG    1       23.941 -31.891   6.266  0.00  0.00    +0.066 A 
ATOM     29  C   LIG    1       24.533 -30.758   6.828  0.00  0.00    +0.132 A 
ATOM     30  C   LIG    1       24.323 -30.488   8.182  0.00  0.00    +0.079 A 
BRANCH  25  34
ATOM     31  C   LIG    1       23.471 -29.321  12.080  0.00  0.00    +0.128 C 
ATOM     32  N   LIG    1       23.726 -29.829  10.762  0.00  0.00    -0.313 N 
ATOM     33  H   LIG    1       24.323 -29.332  10.114  0.00  0.00    +0.149 HD
ATOM     34  C   LIG    1       23.038 -30.926  10.263  0.00  0.00    +0.262 C 
ATOM     35  O   LIG    1       22.214 -31.556  10.881  0.00  0.00    -0.269 OA
ENDBRANCH  25  34
ENDBRANCH  24  29
ENDBRANCH   1  24
TORSDOF 6
ENDMDL
