MODEL 1
REMARK VINA RESULT:      10.9      0.000      0.000
REMARK  Name = *****
REMARK                            x       y       z     vdW  Elec       q    Type
REMARK                         _______ _______ _______ _____ _____    ______ ____
ROOT
ATOM      1  C   LIG    1       22.651 -16.192   3.962  0.00  0.00    +0.065 C 
ATOM      2  C   LIG    1       23.981 -16.313   3.244  0.00  0.00    +0.096 C 
ATOM      3  C   LIG    1       24.936 -15.165   3.634  0.00  0.00    +0.065 C 
ATOM      4  C   LIG    1       24.833 -14.644   4.882  0.00  0.00    +0.016 C 
ATOM      5  C   LIG    1       25.717 -13.587   5.480  0.00  0.00    +0.061 C 
ATOM      6  N   LIG    1       23.802 -15.079   5.703  0.00  0.00    -0.321 N 
ATOM      7  H   LIG    1       23.687 -14.554   6.566  0.00  0.00    +0.152 HD
ATOM      8  C   LIG    1       22.641 -15.647   5.193  0.00  0.00    +0.016 C 
ATOM      9  C   LIG    1       21.445 -15.548   6.086  0.00  0.00    +0.061 C 
ENDROOT
BRANCH   2  10
ATOM     10  C   LIG    1       24.519 -17.699   3.609  0.00  0.00    -0.029 A 
ATOM     11  C   LIG    1       23.914 -18.412   4.653  0.00  0.00    +0.088 A 
ATOM     12  C   LIG    1       24.209 -19.737   4.863  0.00  0.00    +0.273 A 
ATOM     13  C   LIG    1       25.128 -20.365   4.003  0.00  0.00    +0.084 A 
ATOM     14  C   LIG    1       25.943 -19.592   3.152  0.00  0.00    +0.007 A 
ATOM     15  C   LIG    1       25.617 -18.274   2.941  0.00  0.00    +0.005 A 
BRANCH  12  16
ATOM     16  N   LIG    1       23.667 -20.330   6.108  0.00  0.00    +0.080 N 
ATOM     17  O   LIG    1       22.742 -19.730   6.692  0.00  0.00    -0.576 OA
ATOM     18  O   LIG    1       24.166 -21.386   6.517  0.00  0.00    +0.041 OA
ENDBRANCH  12  16
ENDBRANCH   2  10
BRANCH   1  19
ATOM     19  C   LIG    1       21.426 -16.683   3.240  0.00  0.00    +0.338 C 
ATOM     20  O   LIG    1       20.811 -16.099   2.441  0.00  0.00    -0.245 OA
BRANCH  19  21
ATOM     21  O   LIG    1       21.167 -17.969   3.661  0.00  0.00    -0.459 OA
BRANCH  21  22
ATOM     22  C   LIG    1       19.948 -18.569   3.231  0.00  0.00    +0.260 C 
BRANCH  22  23
ATOM     23  C   LIG    1       19.909 -20.048   3.552  0.00  0.00    +0.200 C 
BRANCH  23  25
ATOM     24  C   LIG    1       20.905 -21.566   5.027  0.00  0.00    +0.194 C 
ATOM     25  O   LIG    1       21.126 -20.444   4.179  0.00  0.00    -0.380 OA
ENDBRANCH  23  25
ENDBRANCH  22  23
ENDBRANCH  21  22
ENDBRANCH  19  21
ENDBRANCH   1  19
BRANCH   3  26
ATOM     26  C   LIG    1       25.985 -14.775   2.656  0.00  0.00    +0.338 C 
ATOM     27  O   LIG    1       25.916 -13.831   1.864  0.00  0.00    -0.245 OA
BRANCH  26  28
ATOM     28  O   LIG    1       27.064 -15.565   2.823  0.00  0.00    -0.457 OA
BRANCH  28  29
ATOM     29  C   LIG    1       27.950 -15.247   3.915  0.00  0.00    +0.260 C 
BRANCH  29  30
ATOM     30  C   LIG    1       28.020 -16.388   4.898  0.00  0.00    +0.014 C 
ATOM     31  C   LIG    1       28.434 -17.665   4.728  0.00  0.00    +0.007 C 
BRANCH  31  32
ATOM     32  C   LIG    1       28.382 -18.797   5.725  0.00  0.00    -0.025 A 
ATOM     33  C   LIG    1       29.472 -19.642   5.924  0.00  0.00    +0.008 A 
ATOM     34  C   LIG    1       29.354 -20.870   6.630  0.00  0.00    +0.001 A 
ATOM     35  C   LIG    1       28.110 -21.324   7.056  0.00  0.00    +0.000 A 
ATOM     36  C   LIG    1       27.043 -20.443   7.011  0.00  0.00    +0.001 A 
ATOM     37  C   LIG    1       27.189 -19.181   6.374  0.00  0.00    +0.008 A 
ENDBRANCH  31  32
ENDBRANCH  29  30
ENDBRANCH  28  29
ENDBRANCH  26  28
ENDBRANCH   3  26
TORSDOF 12
ENDMDL
MODEL 2
REMARK VINA RESULT:      12.5      2.105      4.761
REMARK  Name = *****
REMARK                            x       y       z     vdW  Elec       q    Type
REMARK                         _______ _______ _______ _____ _____    ______ ____
ROOT
ATOM      1  C   LIG    1       23.591 -19.757   4.458  0.00  0.00    +0.065 C 
ATOM      2  C   LIG    1       24.298 -18.529   3.920  0.00  0.00    +0.096 C 
ATOM      3  C   LIG    1       23.577 -17.233   4.345  0.00  0.00    +0.065 C 
ATOM      4  C   LIG    1       22.922 -17.226   5.532  0.00  0.00    +0.016 C 
ATOM      5  C   LIG    1       22.232 -16.049   6.161  0.00  0.00    +0.061 C 
ATOM      6  N   LIG    1       22.828 -18.411   6.248  0.00  0.00    -0.321 N 
ATOM      7  H   LIG    1       22.207 -18.381   7.053  0.00  0.00    +0.152 HD
ATOM      8  C   LIG    1       22.952 -19.654   5.640  0.00  0.00    +0.016 C 
ATOM      9  C   LIG    1       22.298 -20.783   6.370  0.00  0.00    +0.061 C 
ENDROOT
BRANCH   2  10
ATOM     10  C   LIG    1       25.735 -18.622   4.441  0.00  0.00    -0.029 A 
ATOM     11  C   LIG    1       26.099 -19.710   5.243  0.00  0.00    +0.088 A 
ATOM     12  C   LIG    1       27.418 -19.954   5.541  0.00  0.00    +0.273 A 
ATOM     13  C   LIG    1       28.395 -19.090   5.017  0.00  0.00    +0.084 A 
ATOM     14  C   LIG    1       28.021 -17.849   4.463  0.00  0.00    +0.007 A 
ATOM     15  C   LIG    1       26.699 -17.636   4.155  0.00  0.00    +0.005 A 
BRANCH  12  16
ATOM     16  N   LIG    1       27.669 -21.006   6.555  0.00  0.00    +0.080 N 
ATOM     17  O   LIG    1       28.853 -21.280   6.838  0.00  0.00    -0.576 OA
ATOM     18  O   LIG    1       26.693 -21.572   7.062  0.00  0.00    +0.041 OA
ENDBRANCH  12  16
ENDBRANCH   2  10
BRANCH   1  19
ATOM     19  C   LIG    1       23.644 -21.009   3.627  0.00  0.00    +0.338 C 
ATOM     20  O   LIG    1       24.601 -21.513   3.193  0.00  0.00    -0.245 OA
BRANCH  19  21
ATOM     21  O   LIG    1       22.359 -21.487   3.490  0.00  0.00    -0.459 OA
BRANCH  21  22
ATOM     22  C   LIG    1       21.375 -20.998   4.396  0.00  0.00    +0.260 C 
BRANCH  22  23
ATOM     23  C   LIG    1       20.179 -20.425   3.667  0.00  0.00    +0.200 C 
BRANCH  23  25
ATOM     24  C   LIG    1       19.383 -18.472   2.656  0.00  0.00    +0.194 C 
ATOM     25  O   LIG    1       20.250 -19.002   3.652  0.00  0.00    -0.380 OA
ENDBRANCH  23  25
ENDBRANCH  22  23
ENDBRANCH  21  22
ENDBRANCH  19  21
ENDBRANCH   1  19
BRANCH   3  26
ATOM     26  C   LIG    1       23.736 -16.035   3.479  0.00  0.00    +0.338 C 
ATOM     27  O   LIG    1       24.580 -15.896   2.589  0.00  0.00    -0.245 OA
BRANCH  26  28
ATOM     28  O   LIG    1       22.760 -15.150   3.761  0.00  0.00    -0.457 OA
BRANCH  28  29
ATOM     29  C   LIG    1       23.072 -13.753   3.596  0.00  0.00    +0.260 C 
BRANCH  29  30
ATOM     30  C   LIG    1       24.562 -13.526   3.647  0.00  0.00    +0.014 C 
ATOM     31  C   LIG    1       25.428 -13.635   4.681  0.00  0.00    +0.007 C 
BRANCH  31  32
ATOM     32  C   LIG    1       26.898 -13.291   4.699  0.00  0.00    -0.025 A 
ATOM     33  C   LIG    1       27.521 -12.822   5.853  0.00  0.00    +0.008 A 
ATOM     34  C   LIG    1       28.811 -12.227   5.825  0.00  0.00    +0.001 A 
ATOM     35  C   LIG    1       29.455 -11.992   4.613  0.00  0.00    +0.000 A 
ATOM     36  C   LIG    1       28.935 -12.582   3.474  0.00  0.00    +0.001 A 
ATOM     37  C   LIG    1       27.681 -13.247   3.525  0.00  0.00    +0.008 A 
ENDBRANCH  31  32
ENDBRANCH  29  30
ENDBRANCH  28  29
ENDBRANCH  26  28
ENDBRANCH   3  26
TORSDOF 12
ENDMDL
MODEL 3
REMARK VINA RESULT:      13.5      1.999      5.536
REMARK  Name = *****
REMARK                            x       y       z     vdW  Elec       q    Type
REMARK                         _______ _______ _______ _____ _____    ______ ____
ROOT
ATOM      1  C   LIG    1       22.532 -15.922   4.007  0.00  0.00    +0.065 C 
ATOM      2  C   LIG    1       23.182 -17.059   4.771  0.00  0.00    +0.096 C 
ATOM      3  C   LIG    1       22.278 -18.309   4.797  0.00  0.00    +0.065 C 
ATOM      4  C   LIG    1       21.456 -18.525   3.740  0.00  0.00    +0.016 C 
ATOM      5  C   LIG    1       20.565 -19.716   3.536  0.00  0.00    +0.061 C 
ATOM      6  N   LIG    1       21.379 -17.558   2.747  0.00  0.00    -0.321 N 
ATOM      7  H   LIG    1       20.645 -17.705   2.058  0.00  0.00    +0.152 HD
ATOM      8  C   LIG    1       21.718 -16.231   2.980  0.00  0.00    +0.016 C 
ATOM      9  C   LIG    1       21.081 -15.245   2.054  0.00  0.00    +0.061 C 
ENDROOT
BRANCH   2  10
ATOM     10  C   LIG    1       24.528 -17.299   4.080  0.00  0.00    -0.029 A 
ATOM     11  C   LIG    1       25.418 -16.228   3.932  0.00  0.00    +0.088 A 
ATOM     12  C   LIG    1       26.715 -16.442   3.530  0.00  0.00    +0.273 A 
ATOM     13  C   LIG    1       27.130 -17.761   3.277  0.00  0.00    +0.084 A 
ATOM     14  C   LIG    1       26.178 -18.790   3.145  0.00  0.00    +0.007 A 
ATOM     15  C   LIG    1       24.892 -18.560   3.571  0.00  0.00    +0.005 A 
BRANCH  12  16
ATOM     16  N   LIG    1       27.503 -15.227   3.216  0.00  0.00    +0.080 N 
ATOM     17  O   LIG    1       28.542 -15.012   3.873  0.00  0.00    -0.576 OA
ATOM     18  O   LIG    1       27.086 -14.476   2.325  0.00  0.00    +0.041 OA
ENDBRANCH  12  16
ENDBRANCH   2  10
BRANCH   1  19
ATOM     19  C   LIG    1       22.835 -14.520   4.459  0.00  0.00    +0.338 C 
ATOM     20  O   LIG    1       22.781 -14.116   5.550  0.00  0.00    -0.245 OA
BRANCH  19  21
ATOM     21  O   LIG    1       23.225 -13.790   3.357  0.00  0.00    -0.459 OA
BRANCH  21  22
ATOM     22  C   LIG    1       23.598 -12.430   3.568  0.00  0.00    +0.260 C 
BRANCH  22  23
ATOM     23  C   LIG    1       24.752 -12.023   2.679  0.00  0.00    +0.200 C 
BRANCH  23  25
ATOM     24  C   LIG    1       25.816 -12.416   4.724  0.00  0.00    +0.194 C 
ATOM     25  O   LIG    1       25.906 -11.750   3.469  0.00  0.00    -0.380 OA
ENDBRANCH  23  25
ENDBRANCH  22  23
ENDBRANCH  21  22
ENDBRANCH  19  21
ENDBRANCH   1  19
BRANCH   3  26
ATOM     26  C   LIG    1       22.441 -19.258   5.929  0.00  0.00    +0.338 C 
ATOM     27  O   LIG    1       22.848 -18.970   7.058  0.00  0.00    -0.245 OA
BRANCH  26  28
ATOM     28  O   LIG    1       21.997 -20.474   5.555  0.00  0.00    -0.457 OA
BRANCH  28  29
ATOM     29  C   LIG    1       22.927 -21.572   5.651  0.00  0.00    +0.260 C 
BRANCH  29  30
ATOM     30  C   LIG    1       24.234 -21.115   6.250  0.00  0.00    +0.014 C 
ATOM     31  C   LIG    1       25.449 -20.953   5.677  0.00  0.00    +0.007 C 
BRANCH  31  32
ATOM     32  C   LIG    1       26.751 -20.595   6.351  0.00  0.00    -0.025 A 
ATOM     33  C   LIG    1       27.190 -19.275   6.429  0.00  0.00    +0.008 A 
ATOM     34  C   LIG    1       28.524 -18.946   6.794  0.00  0.00    +0.001 A 
ATOM     35  C   LIG    1       29.475 -19.946   6.979  0.00  0.00    +0.000 A 
ATOM     36  C   LIG    1       29.035 -21.256   7.061  0.00  0.00    +0.001 A 
ATOM     37  C   LIG    1       27.679 -21.571   6.774  0.00  0.00    +0.008 A 
ENDBRANCH  31  32
ENDBRANCH  29  30
ENDBRANCH  28  29
ENDBRANCH  26  28
ENDBRANCH   3  26
TORSDOF 12
ENDMDL
