MODEL 1
REMARK VINA RESULT:      -9.4      0.000      0.000
REMARK  Name = *****
REMARK                            x       y       z     vdW  Elec       q    Type
REMARK                         _______ _______ _______ _____ _____    ______ ____
ROOT
ATOM      1  C   LIG    1       25.351 -23.541   7.075  0.00  0.00    +0.082 A 
ATOM      2  C   LIG    1       23.952 -23.571   6.917  0.00  0.00    +0.133 A 
ATOM      3  C   LIG    1       23.341 -24.708   6.374  0.00  0.00    +0.050 A 
ATOM      4  C   LIG    1       24.083 -25.855   6.089  0.00  0.00    +0.049 A 
ATOM      5  C   LIG    1       25.452 -25.870   6.321  0.00  0.00    +0.122 A 
ATOM      6  C   LIG    1       26.083 -24.713   6.794  0.00  0.00    +0.062 A 
ENDROOT
BRANCH   1   8
ATOM      7  O   LIG    1       26.082 -22.006   8.749  0.00  0.00    -0.270 OA
ATOM      8  C   LIG    1       26.059 -22.305   7.551  0.00  0.00    +0.248 C 
ATOM      9  N   LIG    1       26.690 -21.546   6.583  0.00  0.00    -0.310 N 
ATOM     10  H   LIG    1       26.739 -21.870   5.627  0.00  0.00    +0.149 HD
BRANCH   9  11
ATOM     11  C   LIG    1       27.408 -20.303   6.851  0.00  0.00    +0.123 C 
BRANCH  11  12
ATOM     12  C   LIG    1       28.924 -20.513   7.092  0.00  0.00    +0.071 C 
ATOM     13  N   LIG    1       29.163 -21.141   8.412  0.00  0.00    -0.312 NA
ATOM     14  H   LIG    1       28.804 -20.516   9.132  0.00  0.00    +0.122 HD
ATOM     15  C   LIG    1       30.596 -21.348   8.644  0.00  0.00    +0.081 C 
ATOM     16  C   LIG    1       31.378 -20.037   8.588  0.00  0.00    +0.015 C 
ATOM     17  C   LIG    1       31.163 -19.329   7.257  0.00  0.00    +0.003 C 
ATOM     18  C   LIG    1       29.677 -19.182   6.967  0.00  0.00    +0.020 C 
ENDBRANCH  11  12
ENDBRANCH   9  11
ENDBRANCH   1   8
BRANCH   2  19
ATOM     19  O   LIG    1       23.189 -22.471   7.215  0.00  0.00    -0.482 OA
BRANCH  19  20
ATOM     20  C   LIG    1       22.763 -21.729   6.056  0.00  0.00    +0.342 C 
BRANCH  20  21
ATOM     21  C   LIG    1       23.221 -20.274   6.083  0.00  0.00    +0.424 C 
ATOM     22  F   LIG    1       24.295 -20.078   5.284  0.00  0.00    -0.167 F 
ATOM     23  F   LIG    1       23.593 -19.928   7.342  0.00  0.00    -0.167 F 
ATOM     24  F   LIG    1       22.261 -19.403   5.705  0.00  0.00    -0.167 F 
ENDBRANCH  20  21
ENDBRANCH  19  20
ENDBRANCH   2  19
BRANCH   5  25
ATOM     25  O   LIG    1       26.280 -26.930   6.076  0.00  0.00    -0.483 OA
BRANCH  25  26
ATOM     26  C   LIG    1       25.831 -27.895   5.111  0.00  0.00    +0.342 C 
BRANCH  26  27
ATOM     27  C   LIG    1       25.152 -29.125   5.706  0.00  0.00    +0.424 C 
ATOM     28  F   LIG    1       25.358 -29.178   7.044  0.00  0.00    -0.167 F 
ATOM     29  F   LIG    1       25.656 -30.265   5.179  0.00  0.00    -0.167 F 
ATOM     30  F   LIG    1       23.818 -29.139   5.504  0.00  0.00    -0.167 F 
ENDBRANCH  26  27
ENDBRANCH  25  26
ENDBRANCH   5  25
TORSDOF 9
ENDMDL
MODEL 2
REMARK VINA RESULT:      -9.2      1.935      2.373
REMARK  Name = *****
REMARK                            x       y       z     vdW  Elec       q    Type
REMARK                         _______ _______ _______ _____ _____    ______ ____
ROOT
ATOM      1  C   LIG    1       24.873 -21.875   5.875  0.00  0.00    +0.082 A 
ATOM      2  C   LIG    1       23.553 -21.494   6.183  0.00  0.00    +0.133 A 
ATOM      3  C   LIG    1       22.626 -22.465   6.580  0.00  0.00    +0.050 A 
ATOM      4  C   LIG    1       23.016 -23.790   6.780  0.00  0.00    +0.049 A 
ATOM      5  C   LIG    1       24.335 -24.164   6.564  0.00  0.00    +0.122 A 
ATOM      6  C   LIG    1       25.253 -23.215   6.097  0.00  0.00    +0.062 A 
ENDROOT
BRANCH   1   8
ATOM      7  O   LIG    1       25.667 -20.285   4.284  0.00  0.00    -0.270 OA
ATOM      8  C   LIG    1       25.870 -20.886   5.343  0.00  0.00    +0.248 C 
ATOM      9  N   LIG    1       27.000 -20.677   6.112  0.00  0.00    -0.310 N 
ATOM     10  H   LIG    1       27.089 -21.108   7.022  0.00  0.00    +0.149 HD
BRANCH   9  11
ATOM     11  C   LIG    1       28.087 -19.772   5.748  0.00  0.00    +0.123 C 
BRANCH  11  12
ATOM     12  C   LIG    1       29.410 -20.076   6.496  0.00  0.00    +0.071 C 
ATOM     13  N   LIG    1       29.151 -20.874   7.716  0.00  0.00    -0.312 NA
ATOM     14  H   LIG    1       28.548 -20.330   8.332  0.00  0.00    +0.122 HD
ATOM     15  C   LIG    1       30.400 -21.170   8.426  0.00  0.00    +0.081 C 
ATOM     16  C   LIG    1       31.138 -19.897   8.834  0.00  0.00    +0.015 C 
ATOM     17  C   LIG    1       31.423 -19.018   7.623  0.00  0.00    +0.003 C 
ATOM     18  C   LIG    1       30.147 -18.772   6.833  0.00  0.00    +0.020 C 
ENDBRANCH  11  12
ENDBRANCH   9  11
ENDBRANCH   1   8
BRANCH   2  19
ATOM     19  O   LIG    1       23.144 -20.194   6.025  0.00  0.00    -0.482 OA
BRANCH  19  20
ATOM     20  C   LIG    1       22.166 -20.017   4.982  0.00  0.00    +0.342 C 
BRANCH  20  21
ATOM     21  C   LIG    1       22.214 -18.627   4.354  0.00  0.00    +0.424 C 
ATOM     22  F   LIG    1       23.359 -18.437   3.660  0.00  0.00    -0.167 F 
ATOM     23  F   LIG    1       22.176 -17.678   5.325  0.00  0.00    -0.167 F 
ATOM     24  F   LIG    1       21.181 -18.379   3.522  0.00  0.00    -0.167 F 
ENDBRANCH  20  21
ENDBRANCH  19  20
ENDBRANCH   2  19
BRANCH   5  25
ATOM     25  O   LIG    1       24.831 -25.429   6.723  0.00  0.00    -0.483 OA
BRANCH  25  26
ATOM     26  C   LIG    1       24.550 -26.371   5.676  0.00  0.00    +0.342 C 
BRANCH  26  27
ATOM     27  C   LIG    1       25.783 -27.002   5.035  0.00  0.00    +0.424 C 
ATOM     28  F   LIG    1       25.905 -26.596   3.747  0.00  0.00    -0.167 F 
ATOM     29  F   LIG    1       25.691 -28.351   5.021  0.00  0.00    -0.167 F 
ATOM     30  F   LIG    1       26.930 -26.678   5.668  0.00  0.00    -0.167 F 
ENDBRANCH  26  27
ENDBRANCH  25  26
ENDBRANCH   5  25
TORSDOF 9
ENDMDL
MODEL 3
REMARK VINA RESULT:      -9.2      3.617      7.079
REMARK  Name = *****
REMARK                            x       y       z     vdW  Elec       q    Type
REMARK                         _______ _______ _______ _____ _____    ______ ____
ROOT
ATOM      1  C   LIG    1       25.424 -22.528   6.304  0.00  0.00    +0.082 A 
ATOM      2  C   LIG    1       25.291 -21.459   5.399  0.00  0.00    +0.133 A 
ATOM      3  C   LIG    1       26.067 -20.305   5.571  0.00  0.00    +0.050 A 
ATOM      4  C   LIG    1       27.047 -20.241   6.561  0.00  0.00    +0.049 A 
ATOM      5  C   LIG    1       27.249 -21.323   7.408  0.00  0.00    +0.122 A 
ATOM      6  C   LIG    1       26.429 -22.452   7.290  0.00  0.00    +0.062 A 
ENDROOT
BRANCH   1   8
ATOM      7  O   LIG    1       23.514 -23.825   6.906  0.00  0.00    -0.270 OA
ATOM      8  C   LIG    1       24.538 -23.738   6.222  0.00  0.00    +0.248 C 
ATOM      9  N   LIG    1       24.923 -24.723   5.332  0.00  0.00    -0.310 N 
ATOM     10  H   LIG    1       25.709 -24.578   4.713  0.00  0.00    +0.149 HD
BRANCH   9  11
ATOM     11  C   LIG    1       24.202 -25.978   5.130  0.00  0.00    +0.123 C 
BRANCH  11  12
ATOM     12  C   LIG    1       24.916 -27.200   5.759  0.00  0.00    +0.071 C 
ATOM     13  N   LIG    1       23.979 -28.337   5.903  0.00  0.00    -0.312 NA
ATOM     14  H   LIG    1       23.221 -28.051   6.522  0.00  0.00    +0.122 HD
ATOM     15  C   LIG    1       24.650 -29.501   6.494  0.00  0.00    +0.081 C 
ATOM     16  C   LIG    1       25.234 -29.183   7.869  0.00  0.00    +0.015 C 
ATOM     17  C   LIG    1       26.199 -28.007   7.795  0.00  0.00    +0.003 C 
ATOM     18  C   LIG    1       25.539 -26.820   7.110  0.00  0.00    +0.020 C 
ENDBRANCH  11  12
ENDBRANCH   9  11
ENDBRANCH   1   8
BRANCH   2  19
ATOM     19  O   LIG    1       24.357 -21.501   4.396  0.00  0.00    -0.482 OA
BRANCH  19  20
ATOM     20  C   LIG    1       23.717 -20.235   4.145  0.00  0.00    +0.342 C 
BRANCH  20  21
ATOM     21  C   LIG    1       22.424 -20.057   4.936  0.00  0.00    +0.424 C 
ATOM     22  F   LIG    1       21.695 -19.019   4.467  0.00  0.00    -0.167 F 
ATOM     23  F   LIG    1       22.710 -19.787   6.236  0.00  0.00    -0.167 F 
ATOM     24  F   LIG    1       21.636 -21.152   4.927  0.00  0.00    -0.167 F 
ENDBRANCH  20  21
ENDBRANCH  19  20
ENDBRANCH   2  19
BRANCH   5  25
ATOM     25  O   LIG    1       28.174 -21.373   8.414  0.00  0.00    -0.483 OA
BRANCH  25  26
ATOM     26  C   LIG    1       29.556 -21.386   8.024  0.00  0.00    +0.342 C 
BRANCH  26  27
ATOM     27  C   LIG    1       30.232 -20.018   8.021  0.00  0.00    +0.424 C 
ATOM     28  F   LIG    1       30.547 -19.650   6.755  0.00  0.00    -0.167 F 
ATOM     29  F   LIG    1       31.385 -20.039   8.728  0.00  0.00    -0.167 F 
ATOM     30  F   LIG    1       29.454 -19.045   8.539  0.00  0.00    -0.167 F 
ENDBRANCH  26  27
ENDBRANCH  25  26
ENDBRANCH   5  25
TORSDOF 9
ENDMDL
MODEL 4
REMARK VINA RESULT:      -8.8      2.332      6.223
REMARK  Name = *****
REMARK                            x       y       z     vdW  Elec       q    Type
REMARK                         _______ _______ _______ _____ _____    ______ ____
ROOT
ATOM      1  C   LIG    1       26.360 -21.477   6.542  0.00  0.00    +0.082 A 
ATOM      2  C   LIG    1       25.726 -22.703   6.268  0.00  0.00    +0.133 A 
ATOM      3  C   LIG    1       24.661 -22.744   5.359  0.00  0.00    +0.050 A 
ATOM      4  C   LIG    1       24.290 -21.610   4.637  0.00  0.00    +0.049 A 
ATOM      5  C   LIG    1       24.964 -20.412   4.833  0.00  0.00    +0.122 A 
ATOM      6  C   LIG    1       25.981 -20.343   5.793  0.00  0.00    +0.062 A 
ENDROOT
BRANCH   1   8
ATOM      7  O   LIG    1       27.171 -21.518   8.785  0.00  0.00    -0.270 OA
ATOM      8  C   LIG    1       27.433 -21.366   7.588  0.00  0.00    +0.248 C 
ATOM      9  N   LIG    1       28.712 -21.110   7.132  0.00  0.00    -0.310 N 
ATOM     10  H   LIG    1       28.911 -21.092   6.141  0.00  0.00    +0.149 HD
BRANCH   9  11
ATOM     11  C   LIG    1       29.877 -20.948   7.999  0.00  0.00    +0.123 C 
BRANCH  11  12
ATOM     12  C   LIG    1       30.359 -19.480   8.105  0.00  0.00    +0.071 C 
ATOM     13  N   LIG    1       31.820 -19.423   8.341  0.00  0.00    -0.312 NA
ATOM     14  H   LIG    1       32.019 -19.894   9.222  0.00  0.00    +0.122 HD
ATOM     15  C   LIG    1       32.284 -18.034   8.438  0.00  0.00    +0.081 C 
ATOM     16  C   LIG    1       31.585 -17.278   9.566  0.00  0.00    +0.015 C 
ATOM     17  C   LIG    1       30.073 -17.312   9.393  0.00  0.00    +0.003 C 
ATOM     18  C   LIG    1       29.590 -18.742   9.210  0.00  0.00    +0.020 C 
ENDBRANCH  11  12
ENDBRANCH   9  11
ENDBRANCH   1   8
BRANCH   2  19
ATOM     19  O   LIG    1       26.086 -23.844   6.939  0.00  0.00    -0.482 OA
BRANCH  19  20
ATOM     20  C   LIG    1       25.170 -24.941   6.751  0.00  0.00    +0.342 C 
BRANCH  20  21
ATOM     21  C   LIG    1       25.751 -26.056   5.886  0.00  0.00    +0.424 C 
ATOM     22  F   LIG    1       27.090 -26.160   6.046  0.00  0.00    -0.167 F 
ATOM     23  F   LIG    1       25.527 -25.789   4.573  0.00  0.00    -0.167 F 
ATOM     24  F   LIG    1       25.210 -27.266   6.138  0.00  0.00    -0.167 F 
ENDBRANCH  20  21
ENDBRANCH  19  20
ENDBRANCH   2  19
BRANCH   5  25
ATOM     25  O   LIG    1       24.687 -19.238   4.189  0.00  0.00    -0.483 OA
BRANCH  25  26
ATOM     26  C   LIG    1       23.390 -19.121   3.583  0.00  0.00    +0.342 C 
BRANCH  26  27
ATOM     27  C   LIG    1       22.322 -18.491   4.474  0.00  0.00    +0.424 C 
ATOM     28  F   LIG    1       21.093 -18.660   3.928  0.00  0.00    -0.167 F 
ATOM     29  F   LIG    1       22.520 -17.159   4.607  0.00  0.00    -0.167 F 
ATOM     30  F   LIG    1       22.288 -19.024   5.713  0.00  0.00    -0.167 F 
ENDBRANCH  26  27
ENDBRANCH  25  26
ENDBRANCH   5  25
TORSDOF 9
ENDMDL
MODEL 5
REMARK VINA RESULT:      -8.7      3.828      7.807
REMARK  Name = *****
REMARK                            x       y       z     vdW  Elec       q    Type
REMARK                         _______ _______ _______ _____ _____    ______ ____
ROOT
ATOM      1  C   LIG    1       27.408 -21.114   7.119  0.00  0.00    +0.082 A 
ATOM      2  C   LIG    1       27.199 -20.361   5.948  0.00  0.00    +0.133 A 
ATOM      3  C   LIG    1       28.152 -19.413   5.555  0.00  0.00    +0.050 A 
ATOM      4  C   LIG    1       29.357 -19.279   6.244  0.00  0.00    +0.049 A 
ATOM      5  C   LIG    1       29.615 -20.077   7.351  0.00  0.00    +0.122 A 
ATOM      6  C   LIG    1       28.638 -20.976   7.795  0.00  0.00    +0.062 A 
ENDROOT
BRANCH   1   8
ATOM      7  O   LIG    1       26.085 -22.108   8.838  0.00  0.00    -0.270 OA
ATOM      8  C   LIG    1       26.365 -22.063   7.636  0.00  0.00    +0.248 C 
ATOM      9  N   LIG    1       25.732 -22.854   6.695  0.00  0.00    -0.310 N 
ATOM     10  H   LIG    1       25.911 -22.722   5.709  0.00  0.00    +0.149 HD
BRANCH   9  11
ATOM     11  C   LIG    1       24.709 -23.849   7.009  0.00  0.00    +0.123 C 
BRANCH  11  12
ATOM     12  C   LIG    1       25.171 -25.303   6.744  0.00  0.00    +0.071 C 
ATOM     13  N   LIG    1       26.403 -25.321   5.923  0.00  0.00    -0.312 NA
ATOM     14  H   LIG    1       26.197 -24.879   5.028  0.00  0.00    +0.122 HD
ATOM     15  C   LIG    1       26.849 -26.696   5.672  0.00  0.00    +0.081 C 
ATOM     16  C   LIG    1       25.782 -27.519   4.954  0.00  0.00    +0.015 C 
ATOM     17  C   LIG    1       24.478 -27.529   5.741  0.00  0.00    +0.003 C 
ATOM     18  C   LIG    1       24.048 -26.110   6.077  0.00  0.00    +0.020 C 
ENDBRANCH  11  12
ENDBRANCH   9  11
ENDBRANCH   1   8
BRANCH   2  19
ATOM     19  O   LIG    1       26.037 -20.488   5.230  0.00  0.00    -0.482 OA
BRANCH  19  20
ATOM     20  C   LIG    1       25.865 -19.475   4.220  0.00  0.00    +0.342 C 
BRANCH  20  21
ATOM     21  C   LIG    1       24.404 -19.268   3.832  0.00  0.00    +0.424 C 
ATOM     22  F   LIG    1       24.043 -20.080   2.812  0.00  0.00    -0.167 F 
ATOM     23  F   LIG    1       24.212 -17.991   3.410  0.00  0.00    -0.167 F 
ATOM     24  F   LIG    1       23.544 -19.478   4.850  0.00  0.00    -0.167 F 
ENDBRANCH  20  21
ENDBRANCH  19  20
ENDBRANCH   2  19
BRANCH   5  25
ATOM     25  O   LIG    1       30.755 -20.033   8.106  0.00  0.00    -0.483 OA
BRANCH  25  26
ATOM     26  C   LIG    1       31.561 -18.849   7.993  0.00  0.00    +0.342 C 
BRANCH  26  27
ATOM     27  C   LIG    1       31.285 -17.784   9.050  0.00  0.00    +0.424 C 
ATOM     28  F   LIG    1       32.216 -16.802   8.984  0.00  0.00    -0.167 F 
ATOM     29  F   LIG    1       31.343 -18.306  10.297  0.00  0.00    -0.167 F 
ATOM     30  F   LIG    1       30.077 -17.202   8.908  0.00  0.00    -0.167 F 
ENDBRANCH  26  27
ENDBRANCH  25  26
ENDBRANCH   5  25
TORSDOF 9
ENDMDL
MODEL 6
REMARK VINA RESULT:      -8.7      3.961      7.096
REMARK  Name = *****
REMARK                            x       y       z     vdW  Elec       q    Type
REMARK                         _______ _______ _______ _____ _____    ______ ____
ROOT
ATOM      1  C   LIG    1       25.430 -22.813   6.467  0.00  0.00    +0.082 A 
ATOM      2  C   LIG    1       25.015 -21.674   5.750  0.00  0.00    +0.133 A 
ATOM      3  C   LIG    1       25.611 -20.435   6.015  0.00  0.00    +0.050 A 
ATOM      4  C   LIG    1       26.684 -20.328   6.899  0.00  0.00    +0.049 A 
ATOM      5  C   LIG    1       27.161 -21.458   7.550  0.00  0.00    +0.122 A 
ATOM      6  C   LIG    1       26.526 -22.689   7.347  0.00  0.00    +0.062 A 
ENDROOT
BRANCH   1   8
ATOM      7  O   LIG    1       23.599 -24.322   6.710  0.00  0.00    -0.270 OA
ATOM      8  C   LIG    1       24.747 -24.139   6.294  0.00  0.00    +0.248 C 
ATOM      9  N   LIG    1       25.463 -25.118   5.632  0.00  0.00    -0.310 N 
ATOM     10  H   LIG    1       26.359 -24.906   5.215  0.00  0.00    +0.149 HD
BRANCH   9  11
ATOM     11  C   LIG    1       24.974 -26.473   5.388  0.00  0.00    +0.123 C 
BRANCH  11  12
ATOM     12  C   LIG    1       24.913 -27.339   6.671  0.00  0.00    +0.071 C 
ATOM     13  N   LIG    1       26.258 -27.482   7.272  0.00  0.00    -0.312 NA
ATOM     14  H   LIG    1       26.862 -27.948   6.596  0.00  0.00    +0.122 HD
ATOM     15  C   LIG    1       26.207 -28.298   8.491  0.00  0.00    +0.081 C 
ATOM     16  C   LIG    1       25.651 -29.694   8.219  0.00  0.00    +0.015 C 
ATOM     17  C   LIG    1       24.270 -29.619   7.583  0.00  0.00    +0.003 C 
ATOM     18  C   LIG    1       24.294 -28.710   6.364  0.00  0.00    +0.020 C 
ENDBRANCH  11  12
ENDBRANCH   9  11
ENDBRANCH   1   8
BRANCH   2  19
ATOM     19  O   LIG    1       23.982 -21.749   4.852  0.00  0.00    -0.482 OA
BRANCH  19  20
ATOM     20  C   LIG    1       22.729 -21.256   5.366  0.00  0.00    +0.342 C 
BRANCH  20  21
ATOM     21  C   LIG    1       22.376 -19.870   4.837  0.00  0.00    +0.424 C 
ATOM     22  F   LIG    1       23.273 -19.449   3.915  0.00  0.00    -0.167 F 
ATOM     23  F   LIG    1       22.395 -18.967   5.851  0.00  0.00    -0.167 F 
ATOM     24  F   LIG    1       21.149 -19.806   4.277  0.00  0.00    -0.167 F 
ENDBRANCH  20  21
ENDBRANCH  19  20
ENDBRANCH   2  19
BRANCH   5  25
ATOM     25  O   LIG    1       28.200 -21.476   8.438  0.00  0.00    -0.483 OA
BRANCH  25  26
ATOM     26  C   LIG    1       29.524 -21.376   7.890  0.00  0.00    +0.342 C 
BRANCH  26  27
ATOM     27  C   LIG    1       30.182 -20.009   8.052  0.00  0.00    +0.424 C 
ATOM     28  F   LIG    1       29.275 -19.097   8.478  0.00  0.00    -0.167 F 
ATOM     29  F   LIG    1       30.676 -19.561   6.875  0.00  0.00    -0.167 F 
ATOM     30  F   LIG    1       31.195 -20.015   8.943  0.00  0.00    -0.167 F 
ENDBRANCH  26  27
ENDBRANCH  25  26
ENDBRANCH   5  25
TORSDOF 9
ENDMDL
MODEL 7
REMARK VINA RESULT:      -8.6      4.611      6.949
REMARK  Name = *****
REMARK                            x       y       z     vdW  Elec       q    Type
REMARK                         _______ _______ _______ _____ _____    ______ ____
ROOT
ATOM      1  C   LIG    1       28.259 -19.811   6.536  0.00  0.00    +0.082 A 
ATOM      2  C   LIG    1       28.037 -20.738   7.572  0.00  0.00    +0.133 A 
ATOM      3  C   LIG    1       26.800 -21.387   7.667  0.00  0.00    +0.050 A 
ATOM      4  C   LIG    1       25.821 -21.212   6.688  0.00  0.00    +0.049 A 
ATOM      5  C   LIG    1       26.059 -20.366   5.613  0.00  0.00    +0.122 A 
ATOM      6  C   LIG    1       27.265 -19.657   5.548  0.00  0.00    +0.062 A 
ENDROOT
BRANCH   1   8
ATOM      7  O   LIG    1       29.933 -18.561   5.383  0.00  0.00    -0.270 OA
ATOM      8  C   LIG    1       29.530 -19.013   6.459  0.00  0.00    +0.248 C 
ATOM      9  N   LIG    1       30.197 -18.803   7.651  0.00  0.00    -0.310 N 
ATOM     10  H   LIG    1       29.790 -19.099   8.527  0.00  0.00    +0.149 HD
BRANCH   9  11
ATOM     11  C   LIG    1       31.456 -18.072   7.771  0.00  0.00    +0.123 C 
BRANCH  11  12
ATOM     12  C   LIG    1       31.486 -17.104   8.980  0.00  0.00    +0.071 C 
ATOM     13  N   LIG    1       32.779 -16.384   9.045  0.00  0.00    -0.312 NA
ATOM     14  H   LIG    1       33.522 -17.073   9.162  0.00  0.00    +0.122 HD
ATOM     15  C   LIG    1       32.813 -15.462  10.185  0.00  0.00    +0.081 C 
ATOM     16  C   LIG    1       32.602 -16.189  11.511  0.00  0.00    +0.015 C 
ATOM     17  C   LIG    1       31.292 -16.965  11.507  0.00  0.00    +0.003 C 
ATOM     18  C   LIG    1       31.211 -17.866  10.285  0.00  0.00    +0.020 C 
ENDBRANCH  11  12
ENDBRANCH   9  11
ENDBRANCH   1   8
BRANCH   2  19
ATOM     19  O   LIG    1       28.989 -20.956   8.535  0.00  0.00    -0.482 OA
BRANCH  19  20
ATOM     20  C   LIG    1       30.011 -21.892   8.139  0.00  0.00    +0.342 C 
BRANCH  20  21
ATOM     21  C   LIG    1       31.110 -22.046   9.186  0.00  0.00    +0.424 C 
ATOM     22  F   LIG    1       31.834 -20.911   9.315  0.00  0.00    -0.167 F 
ATOM     23  F   LIG    1       31.972 -23.027   8.813  0.00  0.00    -0.167 F 
ATOM     24  F   LIG    1       30.643 -22.379  10.408  0.00  0.00    -0.167 F 
ENDBRANCH  20  21
ENDBRANCH  19  20
ENDBRANCH   2  19
BRANCH   5  25
ATOM     25  O   LIG    1       25.177 -20.114   4.599  0.00  0.00    -0.483 OA
BRANCH  25  26
ATOM     26  C   LIG    1       23.948 -20.856   4.610  0.00  0.00    +0.342 C 
BRANCH  26  27
ATOM     27  C   LIG    1       22.733 -20.077   5.105  0.00  0.00    +0.424 C 
ATOM     28  F   LIG    1       22.787 -19.925   6.451  0.00  0.00    -0.167 F 
ATOM     29  F   LIG    1       21.583 -20.730   4.823  0.00  0.00    -0.167 F 
ATOM     30  F   LIG    1       22.644 -18.843   4.566  0.00  0.00    -0.167 F 
ENDBRANCH  26  27
ENDBRANCH  25  26
ENDBRANCH   5  25
TORSDOF 9
ENDMDL
MODEL 8
REMARK VINA RESULT:      -7.9      3.811      7.438
REMARK  Name = *****
REMARK                            x       y       z     vdW  Elec       q    Type
REMARK                         _______ _______ _______ _____ _____    ______ ____
ROOT
ATOM      1  C   LIG    1       27.093 -20.038   5.536  0.00  0.00    +0.082 A 
ATOM      2  C   LIG    1       25.978 -20.887   5.679  0.00  0.00    +0.133 A 
ATOM      3  C   LIG    1       24.789 -20.589   5.004  0.00  0.00    +0.050 A 
ATOM      4  C   LIG    1       24.722 -19.525   4.104  0.00  0.00    +0.049 A 
ATOM      5  C   LIG    1       25.840 -18.730   3.886  0.00  0.00    +0.122 A 
ATOM      6  C   LIG    1       27.012 -18.976   4.612  0.00  0.00    +0.062 A 
ENDROOT
BRANCH   1   8
ATOM      7  O   LIG    1       28.529 -21.302   6.962  0.00  0.00    -0.270 OA
ATOM      8  C   LIG    1       28.352 -20.259   6.325  0.00  0.00    +0.248 C 
ATOM      9  N   LIG    1       29.293 -19.248   6.276  0.00  0.00    -0.310 N 
ATOM     10  H   LIG    1       29.163 -18.453   5.666  0.00  0.00    +0.149 HD
BRANCH   9  11
ATOM     11  C   LIG    1       30.565 -19.273   6.994  0.00  0.00    +0.123 C 
BRANCH  11  12
ATOM     12  C   LIG    1       30.707 -18.126   8.025  0.00  0.00    +0.071 C 
ATOM     13  N   LIG    1       32.130 -17.760   8.210  0.00  0.00    -0.312 NA
ATOM     14  H   LIG    1       32.626 -18.576   8.564  0.00  0.00    +0.122 HD
ATOM     15  C   LIG    1       32.271 -16.670   9.182  0.00  0.00    +0.081 C 
ATOM     16  C   LIG    1       31.690 -17.043  10.545  0.00  0.00    +0.015 C 
ATOM     17  C   LIG    1       30.227 -17.447  10.423  0.00  0.00    +0.003 C 
ATOM     18  C   LIG    1       30.058 -18.521   9.359  0.00  0.00    +0.020 C 
ENDBRANCH  11  12
ENDBRANCH   9  11
ENDBRANCH   1   8
BRANCH   2  19
ATOM     19  O   LIG    1       26.019 -21.959   6.534  0.00  0.00    -0.482 OA
BRANCH  19  20
ATOM     20  C   LIG    1       24.735 -22.572   6.758  0.00  0.00    +0.342 C 
BRANCH  20  21
ATOM     21  C   LIG    1       24.736 -24.071   6.473  0.00  0.00    +0.424 C 
ATOM     22  F   LIG    1       25.699 -24.708   7.179  0.00  0.00    -0.167 F 
ATOM     23  F   LIG    1       24.994 -24.294   5.158  0.00  0.00    -0.167 F 
ATOM     24  F   LIG    1       23.558 -24.670   6.748  0.00  0.00    -0.167 F 
ENDBRANCH  20  21
ENDBRANCH  19  20
ENDBRANCH   2  19
BRANCH   5  25
ATOM     25  O   LIG    1       25.893 -17.661   3.035  0.00  0.00    -0.483 OA
BRANCH  25  26
ATOM     26  C   LIG    1       26.775 -16.587   3.397  0.00  0.00    +0.342 C 
BRANCH  26  27
ATOM     27  C   LIG    1       26.112 -15.216   3.482  0.00  0.00    +0.424 C 
ATOM     28  F   LIG    1       26.261 -14.547   2.313  0.00  0.00    -0.167 F 
ATOM     29  F   LIG    1       26.677 -14.458   4.450  0.00  0.00    -0.167 F 
ATOM     30  F   LIG    1       24.789 -15.285   3.739  0.00  0.00    -0.167 F 
ENDBRANCH  26  27
ENDBRANCH  25  26
ENDBRANCH   5  25
TORSDOF 9
ENDMDL
MODEL 9
REMARK VINA RESULT:      -7.9      4.547      7.435
REMARK  Name = *****
REMARK                            x       y       z     vdW  Elec       q    Type
REMARK                         _______ _______ _______ _____ _____    ______ ____
ROOT
ATOM      1  C   LIG    1       26.842 -20.205   5.795  0.00  0.00    +0.082 A 
ATOM      2  C   LIG    1       26.125 -20.872   6.806  0.00  0.00    +0.133 A 
ATOM      3  C   LIG    1       26.818 -21.493   7.852  0.00  0.00    +0.050 A 
ATOM      4  C   LIG    1       28.203 -21.369   7.969  0.00  0.00    +0.049 A 
ATOM      5  C   LIG    1       28.915 -20.640   7.025  0.00  0.00    +0.122 A 
ATOM      6  C   LIG    1       28.239 -20.077   5.936  0.00  0.00    +0.062 A 
ENDROOT
BRANCH   1   8
ATOM      7  O   LIG    1       25.297 -20.263   3.978  0.00  0.00    -0.270 OA
ATOM      8  C   LIG    1       26.147 -19.618   4.599  0.00  0.00    +0.248 C 
ATOM      9  N   LIG    1       26.499 -18.326   4.256  0.00  0.00    -0.310 N 
ATOM     10  H   LIG    1       27.123 -17.790   4.843  0.00  0.00    +0.149 HD
BRANCH   9  11
ATOM     11  C   LIG    1       25.948 -17.599   3.114  0.00  0.00    +0.123 C 
BRANCH  11  12
ATOM     12  C   LIG    1       26.203 -16.073   3.183  0.00  0.00    +0.071 C 
ATOM     13  N   LIG    1       27.468 -15.784   3.897  0.00  0.00    -0.312 NA
ATOM     14  H   LIG    1       27.387 -16.142   4.847  0.00  0.00    +0.122 HD
ATOM     15  C   LIG    1       27.718 -14.339   3.961  0.00  0.00    +0.081 C 
ATOM     16  C   LIG    1       26.587 -13.597   4.670  0.00  0.00    +0.015 C 
ATOM     17  C   LIG    1       25.249 -13.865   3.993  0.00  0.00    +0.003 C 
ATOM     18  C   LIG    1       25.016 -15.360   3.848  0.00  0.00    +0.020 C 
ENDBRANCH  11  12
ENDBRANCH   9  11
ENDBRANCH   1   8
BRANCH   2  19
ATOM     19  O   LIG    1       24.760 -20.988   6.738  0.00  0.00    -0.482 OA
BRANCH  19  20
ATOM     20  C   LIG    1       24.231 -22.080   7.514  0.00  0.00    +0.342 C 
BRANCH  20  21
ATOM     21  C   LIG    1       24.121 -23.376   6.716  0.00  0.00    +0.424 C 
ATOM     22  F   LIG    1       22.898 -23.938   6.852  0.00  0.00    -0.167 F 
ATOM     23  F   LIG    1       25.027 -24.280   7.172  0.00  0.00    -0.167 F 
ATOM     24  F   LIG    1       24.357 -23.215   5.397  0.00  0.00    -0.167 F 
ENDBRANCH  20  21
ENDBRANCH  19  20
ENDBRANCH   2  19
BRANCH   5  25
ATOM     25  O   LIG    1       30.270 -20.454   7.033  0.00  0.00    -0.483 OA
BRANCH  25  26
ATOM     26  C   LIG    1       30.739 -19.099   6.954  0.00  0.00    +0.342 C 
BRANCH  26  27
ATOM     27  C   LIG    1       31.024 -18.441   8.301  0.00  0.00    +0.424 C 
ATOM     28  F   LIG    1       31.061 -19.375   9.283  0.00  0.00    -0.167 F 
ATOM     29  F   LIG    1       30.055 -17.556   8.629  0.00  0.00    -0.167 F 
ATOM     30  F   LIG    1       32.202 -17.785   8.327  0.00  0.00    -0.167 F 
ENDBRANCH  26  27
ENDBRANCH  25  26
ENDBRANCH   5  25
TORSDOF 9
ENDMDL
