MODEL 1
REMARK VINA RESULT:      -8.2      0.000      0.000
REMARK  Name = *****
REMARK                            x       y       z     vdW  Elec       q    Type
REMARK                         _______ _______ _______ _____ _____    ______ ____
ROOT
ATOM      1  N   LIG    1       24.944 -22.490   6.770  0.00  0.00    -0.291 NA
ENDROOT
BRANCH   1   3
ATOM      2  C   LIG    1       23.092 -24.094   6.738  0.00  0.00    +0.028 C 
ATOM      3  C   LIG    1       24.626 -23.981   6.632  0.00  0.00    +0.091 C 
BRANCH   3   4
ATOM      4  C   LIG    1       25.223 -24.712   5.304  0.00  0.00    +0.247 C 
BRANCH   4   5
ATOM      5  O   LIG    1       26.186 -25.805   5.438  0.00  0.00    -0.490 OA
BRANCH   5   6
ATOM      6  C   LIG    1       25.741 -26.979   5.980  0.00  0.00    +0.121 A 
ATOM      7  C   LIG    1       25.022 -27.843   5.215  0.00  0.00    +0.045 A 
ATOM      8  C   LIG    1       24.158 -28.776   5.670  0.00  0.00    +0.004 A 
ATOM      9  C   LIG    1       24.382 -29.227   6.954  0.00  0.00    +0.000 A 
ATOM     10  C   LIG    1       25.357 -28.543   7.717  0.00  0.00    +0.004 A 
ATOM     11  C   LIG    1       25.956 -27.369   7.262  0.00  0.00    +0.045 A 
ENDBRANCH   5   6
ENDBRANCH   4   5
ENDBRANCH   3   4
ENDBRANCH   1   3
BRANCH   1  12
ATOM     12  C   LIG    1       23.640 -21.748   6.540  0.00  0.00    +0.120 C 
BRANCH  12  13
ATOM     13  C   LIG    1       23.596 -20.625   5.533  0.00  0.00    -0.033 A 
ATOM     14  C   LIG    1       24.687 -20.378   4.705  0.00  0.00    +0.005 A 
ATOM     15  C   LIG    1       24.605 -19.426   3.708  0.00  0.00    +0.000 A 
ATOM     16  C   LIG    1       23.484 -18.605   3.614  0.00  0.00    +0.000 A 
ATOM     17  C   LIG    1       22.442 -18.736   4.529  0.00  0.00    +0.000 A 
ATOM     18  C   LIG    1       22.490 -19.752   5.477  0.00  0.00    +0.005 A 
ENDBRANCH  12  13
ENDBRANCH   1  12
BRANCH   1  19
ATOM     19  C   LIG    1       25.487 -22.132   8.104  0.00  0.00    +0.101 C 
BRANCH  19  20
ATOM     20  C   LIG    1       26.104 -20.768   8.481  0.00  0.00    +0.124 C 
ATOM     21 CL   LIG    1       27.296 -20.207   7.291  0.00  0.00    -0.124 Cl
ENDBRANCH  19  20
ENDBRANCH   1  19
TORSDOF 8
ENDMDL
MODEL 2
REMARK VINA RESULT:      -8.2      3.324      6.249
REMARK  Name = *****
REMARK                            x       y       z     vdW  Elec       q    Type
REMARK                         _______ _______ _______ _____ _____    ______ ____
ROOT
ATOM      1  N   LIG    1       25.082 -22.552   6.808  0.00  0.00    -0.291 NA
ENDROOT
BRANCH   1   3
ATOM      2  C   LIG    1       25.626 -20.736   8.361  0.00  0.00    +0.028 C 
ATOM      3  C   LIG    1       26.131 -21.476   7.107  0.00  0.00    +0.091 C 
BRANCH   3   4
ATOM      4  C   LIG    1       27.663 -22.007   7.260  0.00  0.00    +0.247 C 
BRANCH   4   5
ATOM      5  O   LIG    1       28.516 -21.487   8.330  0.00  0.00    -0.490 OA
BRANCH   5   6
ATOM      6  C   LIG    1       29.508 -20.612   7.981  0.00  0.00    +0.121 A 
ATOM      7  C   LIG    1       30.697 -20.646   8.640  0.00  0.00    +0.045 A 
ATOM      8  C   LIG    1       31.574 -19.625   8.747  0.00  0.00    +0.004 A 
ATOM      9  C   LIG    1       31.524 -18.682   7.741  0.00  0.00    +0.000 A 
ATOM     10  C   LIG    1       30.453 -18.775   6.822  0.00  0.00    +0.004 A 
ATOM     11  C   LIG    1       29.403 -19.674   7.005  0.00  0.00    +0.045 A 
ENDBRANCH   5   6
ENDBRANCH   4   5
ENDBRANCH   3   4
ENDBRANCH   1   3
BRANCH   1  12
ATOM     12  C   LIG    1       24.660 -22.352   5.364  0.00  0.00    +0.120 C 
BRANCH  12  13
ATOM     13  C   LIG    1       24.063 -21.030   4.945  0.00  0.00    -0.033 A 
ATOM     14  C   LIG    1       24.689 -20.249   3.977  0.00  0.00    +0.005 A 
ATOM     15  C   LIG    1       24.086 -19.097   3.512  0.00  0.00    +0.000 A 
ATOM     16  C   LIG    1       22.919 -18.629   4.108  0.00  0.00    +0.000 A 
ATOM     17  C   LIG    1       22.356 -19.316   5.182  0.00  0.00    +0.000 A 
ATOM     18  C   LIG    1       22.917 -20.521   5.590  0.00  0.00    +0.005 A 
ENDBRANCH  12  13
ENDBRANCH   1  12
BRANCH   1  19
ATOM     19  C   LIG    1       25.598 -23.932   6.985  0.00  0.00    +0.101 C 
BRANCH  19  20
ATOM     20  C   LIG    1       25.560 -25.043   5.914  0.00  0.00    +0.124 C 
ATOM     21 CL   LIG    1       24.147 -26.105   6.083  0.00  0.00    -0.124 Cl
ENDBRANCH  19  20
ENDBRANCH   1  19
TORSDOF 8
ENDMDL
MODEL 3
REMARK VINA RESULT:      -8.1      2.902      6.347
REMARK  Name = *****
REMARK                            x       y       z     vdW  Elec       q    Type
REMARK                         _______ _______ _______ _____ _____    ______ ____
ROOT
ATOM      1  N   LIG    1       26.047 -22.341   6.995  0.00  0.00    -0.291 NA
ENDROOT
BRANCH   1   3
ATOM      2  C   LIG    1       25.682 -20.670   8.751  0.00  0.00    +0.028 C 
ATOM      3  C   LIG    1       25.041 -21.889   8.058  0.00  0.00    +0.091 C 
BRANCH   3   4
ATOM      4  C   LIG    1       23.532 -21.590   7.521  0.00  0.00    +0.247 C 
BRANCH   4   5
ATOM      5  O   LIG    1       23.182 -21.863   6.127  0.00  0.00    -0.490 OA
BRANCH   5   6
ATOM      6  C   LIG    1       23.298 -20.836   5.231  0.00  0.00    +0.121 A 
ATOM      7  C   LIG    1       24.261 -20.885   4.273  0.00  0.00    +0.045 A 
ATOM      8  C   LIG    1       24.796 -19.824   3.631  0.00  0.00    +0.004 A 
ATOM      9  C   LIG    1       24.000 -18.700   3.560  0.00  0.00    +0.000 A 
ATOM     10  C   LIG    1       22.804 -18.707   4.317  0.00  0.00    +0.004 A 
ATOM     11  C   LIG    1       22.512 -19.729   5.219  0.00  0.00    +0.045 A 
ENDBRANCH   5   6
ENDBRANCH   4   5
ENDBRANCH   3   4
ENDBRANCH   1   3
BRANCH   1  12
ATOM     12  C   LIG    1       27.424 -21.991   7.530  0.00  0.00    +0.120 C 
BRANCH  12  13
ATOM     13  C   LIG    1       28.165 -20.811   6.949  0.00  0.00    -0.033 A 
ATOM     14  C   LIG    1       29.343 -20.359   7.537  0.00  0.00    +0.005 A 
ATOM     15  C   LIG    1       30.079 -19.354   6.941  0.00  0.00    +0.000 A 
ATOM     16  C   LIG    1       29.579 -18.685   5.827  0.00  0.00    +0.000 A 
ATOM     17  C   LIG    1       28.329 -19.021   5.313  0.00  0.00    +0.000 A 
ATOM     18  C   LIG    1       27.630 -20.090   5.861  0.00  0.00    +0.005 A 
ENDBRANCH  12  13
ENDBRANCH   1  12
BRANCH   1  19
ATOM     19  C   LIG    1       25.982 -23.796   6.714  0.00  0.00    +0.101 C 
BRANCH  19  20
ATOM     20  C   LIG    1       25.209 -24.446   5.546  0.00  0.00    +0.124 C 
ATOM     21 CL   LIG    1       24.088 -25.710   6.090  0.00  0.00    -0.124 Cl
ENDBRANCH  19  20
ENDBRANCH   1  19
TORSDOF 8
ENDMDL
MODEL 4
REMARK VINA RESULT:      -8.0      3.134      6.919
REMARK  Name = *****
REMARK                            x       y       z     vdW  Elec       q    Type
REMARK                         _______ _______ _______ _____ _____    ______ ____
ROOT
ATOM      1  N   LIG    1       24.593 -21.260   6.458  0.00  0.00    -0.291 NA
ENDROOT
BRANCH   1   3
ATOM      2  C   LIG    1       25.771 -20.875   8.572  0.00  0.00    +0.028 C 
ATOM      3  C   LIG    1       25.745 -20.469   7.085  0.00  0.00    +0.091 C 
BRANCH   3   4
ATOM      4  C   LIG    1       27.194 -20.635   6.360  0.00  0.00    +0.247 C 
BRANCH   4   5
ATOM      5  O   LIG    1       28.262 -21.389   7.018  0.00  0.00    -0.490 OA
BRANCH   5   6
ATOM      6  C   LIG    1       29.253 -20.677   7.636  0.00  0.00    +0.121 A 
ATOM      7  C   LIG    1       29.254 -19.319   7.556  0.00  0.00    +0.045 A 
ATOM      8  C   LIG    1       30.332 -18.517   7.698  0.00  0.00    +0.004 A 
ATOM      9  C   LIG    1       31.367 -19.030   8.453  0.00  0.00    +0.000 A 
ATOM     10  C   LIG    1       31.277 -20.390   8.833  0.00  0.00    +0.004 A 
ATOM     11  C   LIG    1       30.274 -21.225   8.341  0.00  0.00    +0.045 A 
ENDBRANCH   5   6
ENDBRANCH   4   5
ENDBRANCH   3   4
ENDBRANCH   1   3
BRANCH   1  12
ATOM     12  C   LIG    1       24.356 -22.460   7.357  0.00  0.00    +0.120 C 
BRANCH  12  13
ATOM     13  C   LIG    1       24.674 -23.843   6.843  0.00  0.00    -0.033 A 
ATOM     14  C   LIG    1       25.996 -24.260   6.713  0.00  0.00    +0.005 A 
ATOM     15  C   LIG    1       26.285 -25.561   6.351  0.00  0.00    +0.000 A 
ATOM     16  C   LIG    1       25.262 -26.426   5.973  0.00  0.00    +0.000 A 
ATOM     17  C   LIG    1       23.942 -25.982   5.951  0.00  0.00    +0.000 A 
ATOM     18  C   LIG    1       23.646 -24.699   6.398  0.00  0.00    +0.005 A 
ENDBRANCH  12  13
ENDBRANCH   1  12
BRANCH   1  19
ATOM     19  C   LIG    1       23.340 -20.472   6.345  0.00  0.00    +0.101 C 
BRANCH  19  20
ATOM     20  C   LIG    1       22.495 -20.319   5.062  0.00  0.00    +0.124 C 
ATOM     21 CL   LIG    1       22.225 -18.621   4.622  0.00  0.00    -0.124 Cl
ENDBRANCH  19  20
ENDBRANCH   1  19
TORSDOF 8
ENDMDL
MODEL 5
REMARK VINA RESULT:      -7.9      2.942      6.810
REMARK  Name = *****
REMARK                            x       y       z     vdW  Elec       q    Type
REMARK                         _______ _______ _______ _____ _____    ______ ____
ROOT
ATOM      1  N   LIG    1       25.489 -21.364   5.757  0.00  0.00    -0.291 NA
ENDROOT
BRANCH   1   3
ATOM      2  C   LIG    1       23.939 -21.058   7.630  0.00  0.00    +0.028 C 
ATOM      3  C   LIG    1       25.343 -20.679   7.119  0.00  0.00    +0.091 C 
BRANCH   3   4
ATOM      4  C   LIG    1       26.517 -21.001   8.201  0.00  0.00    +0.247 C 
BRANCH   4   5
ATOM      5  O   LIG    1       27.735 -21.695   7.779  0.00  0.00    -0.490 OA
BRANCH   5   6
ATOM      6  C   LIG    1       28.823 -20.930   7.462  0.00  0.00    +0.121 A 
ATOM      7  C   LIG    1       29.997 -21.127   8.119  0.00  0.00    +0.045 A 
ATOM      8  C   LIG    1       30.988 -20.220   8.263  0.00  0.00    +0.004 A 
ATOM      9  C   LIG    1       31.052 -19.241   7.293  0.00  0.00    +0.000 A 
ATOM     10  C   LIG    1       29.981 -19.175   6.371  0.00  0.00    +0.004 A 
ATOM     11  C   LIG    1       28.833 -19.951   6.521  0.00  0.00    +0.045 A 
ENDBRANCH   5   6
ENDBRANCH   4   5
ENDBRANCH   3   4
ENDBRANCH   1   3
BRANCH   1  12
ATOM     12  C   LIG    1       24.488 -22.504   5.739  0.00  0.00    +0.120 C 
BRANCH  12  13
ATOM     13  C   LIG    1       24.988 -23.927   5.788  0.00  0.00    -0.033 A 
ATOM     14  C   LIG    1       25.605 -24.419   6.935  0.00  0.00    +0.005 A 
ATOM     15  C   LIG    1       25.960 -25.751   7.020  0.00  0.00    +0.000 A 
ATOM     16  C   LIG    1       25.836 -26.581   5.909  0.00  0.00    +0.000 A 
ATOM     17  C   LIG    1       25.361 -26.070   4.703  0.00  0.00    +0.000 A 
ATOM     18  C   LIG    1       24.924 -24.752   4.645  0.00  0.00    +0.005 A 
ENDBRANCH  12  13
ENDBRANCH   1  12
BRANCH   1  19
ATOM     19  C   LIG    1       25.220 -20.452   4.616  0.00  0.00    +0.101 C 
BRANCH  19  20
ATOM     20  C   LIG    1       23.872 -20.325   3.874  0.00  0.00    +0.124 C 
ATOM     21 CL   LIG    1       22.706 -19.311   4.749  0.00  0.00    -0.124 Cl
ENDBRANCH  19  20
ENDBRANCH   1  19
TORSDOF 8
ENDMDL
MODEL 6
REMARK VINA RESULT:      -7.8      2.790      4.457
REMARK  Name = *****
REMARK                            x       y       z     vdW  Elec       q    Type
REMARK                         _______ _______ _______ _____ _____    ______ ____
ROOT
ATOM      1  N   LIG    1       25.661 -20.549   6.358  0.00  0.00    -0.291 NA
ENDROOT
BRANCH   1   3
ATOM      2  C   LIG    1       23.269 -20.589   6.889  0.00  0.00    +0.028 C 
ATOM      3  C   LIG    1       24.643 -21.106   7.358  0.00  0.00    +0.091 C 
BRANCH   3   4
ATOM      4  C   LIG    1       24.671 -22.722   7.569  0.00  0.00    +0.247 C 
BRANCH   4   5
ATOM      5  O   LIG    1       24.043 -23.601   6.582  0.00  0.00    -0.490 OA
BRANCH   5   6
ATOM      6  C   LIG    1       24.668 -24.784   6.298  0.00  0.00    +0.121 A 
ATOM      7  C   LIG    1       23.928 -25.863   5.926  0.00  0.00    +0.045 A 
ATOM      8  C   LIG    1       24.296 -27.157   6.046  0.00  0.00    +0.004 A 
ATOM      9  C   LIG    1       25.655 -27.396   6.065  0.00  0.00    +0.000 A 
ATOM     10  C   LIG    1       26.507 -26.270   6.149  0.00  0.00    +0.004 A 
ATOM     11  C   LIG    1       26.009 -24.985   6.363  0.00  0.00    +0.045 A 
ENDBRANCH   5   6
ENDBRANCH   4   5
ENDBRANCH   3   4
ENDBRANCH   1   3
BRANCH   1  12
ATOM     12  C   LIG    1       26.959 -21.296   6.604  0.00  0.00    +0.120 C 
BRANCH  12  13
ATOM     13  C   LIG    1       28.248 -20.519   6.722  0.00  0.00    -0.033 A 
ATOM     14  C   LIG    1       28.530 -19.482   5.837  0.00  0.00    +0.005 A 
ATOM     15  C   LIG    1       29.654 -18.699   6.015  0.00  0.00    +0.000 A 
ATOM     16  C   LIG    1       30.589 -19.028   6.992  0.00  0.00    +0.000 A 
ATOM     17  C   LIG    1       30.400 -20.154   7.791  0.00  0.00    +0.000 A 
ATOM     18  C   LIG    1       29.227 -20.889   7.668  0.00  0.00    +0.005 A 
ENDBRANCH  12  13
ENDBRANCH   1  12
BRANCH   1  19
ATOM     19  C   LIG    1       25.247 -20.730   4.945  0.00  0.00    +0.101 C 
BRANCH  19  20
ATOM     20  C   LIG    1       25.223 -19.620   3.872  0.00  0.00    +0.124 C 
ATOM     21 CL   LIG    1       23.609 -18.912   3.660  0.00  0.00    -0.124 Cl
ENDBRANCH  19  20
ENDBRANCH   1  19
TORSDOF 8
ENDMDL
MODEL 7
REMARK VINA RESULT:      -7.8      4.241      7.727
REMARK  Name = *****
REMARK                            x       y       z     vdW  Elec       q    Type
REMARK                         _______ _______ _______ _____ _____    ______ ____
ROOT
ATOM      1  N   LIG    1       26.966 -20.438   7.009  0.00  0.00    -0.291 NA
ENDROOT
BRANCH   1   3
ATOM      2  C   LIG    1       28.536 -19.189   5.602  0.00  0.00    +0.028 C 
ATOM      3  C   LIG    1       28.446 -20.338   6.626  0.00  0.00    +0.091 C 
BRANCH   3   4
ATOM      4  C   LIG    1       29.486 -20.160   7.867  0.00  0.00    +0.247 C 
BRANCH   4   5
ATOM      5  O   LIG    1       29.231 -19.156   8.901  0.00  0.00    -0.490 OA
BRANCH   5   6
ATOM      6  C   LIG    1       30.271 -18.348   9.270  0.00  0.00    +0.121 A 
ATOM      7  C   LIG    1       30.191 -17.636  10.426  0.00  0.00    +0.045 A 
ATOM      8  C   LIG    1       30.871 -16.504  10.709  0.00  0.00    +0.004 A 
ATOM      9  C   LIG    1       32.062 -16.333  10.034  0.00  0.00    +0.000 A 
ATOM     10  C   LIG    1       32.350 -17.248   8.994  0.00  0.00    +0.004 A 
ATOM     11  C   LIG    1       31.413 -18.183   8.556  0.00  0.00    +0.045 A 
ENDBRANCH   5   6
ENDBRANCH   4   5
ENDBRANCH   3   4
ENDBRANCH   1   3
BRANCH   1  12
ATOM     12  C   LIG    1       26.248 -21.014   5.802  0.00  0.00    +0.120 C 
BRANCH  12  13
ATOM     13  C   LIG    1       24.996 -20.339   5.296  0.00  0.00    -0.033 A 
ATOM     14  C   LIG    1       25.042 -19.516   4.174  0.00  0.00    +0.005 A 
ATOM     15  C   LIG    1       23.880 -18.991   3.645  0.00  0.00    +0.000 A 
ATOM     16  C   LIG    1       22.669 -19.160   4.311  0.00  0.00    +0.000 A 
ATOM     17  C   LIG    1       22.625 -19.854   5.518  0.00  0.00    +0.000 A 
ATOM     18  C   LIG    1       23.781 -20.455   6.002  0.00  0.00    +0.005 A 
ENDBRANCH  12  13
ENDBRANCH   1  12
BRANCH   1  19
ATOM     19  C   LIG    1       26.728 -21.310   8.186  0.00  0.00    +0.101 C 
BRANCH  19  20
ATOM     20  C   LIG    1       25.576 -22.328   8.325  0.00  0.00    +0.124 C 
ATOM     21 CL   LIG    1       25.858 -23.809   7.388  0.00  0.00    -0.124 Cl
ENDBRANCH  19  20
ENDBRANCH   1  19
TORSDOF 8
ENDMDL
MODEL 8
REMARK VINA RESULT:      -7.5      3.021      6.701
REMARK  Name = *****
REMARK                            x       y       z     vdW  Elec       q    Type
REMARK                         _______ _______ _______ _____ _____    ______ ____
ROOT
ATOM      1  N   LIG    1       23.351 -21.161   5.338  0.00  0.00    -0.291 NA
ENDROOT
BRANCH   1   3
ATOM      2  C   LIG    1       24.602 -20.574   3.314  0.00  0.00    +0.028 C 
ATOM      3  C   LIG    1       24.769 -21.059   4.768  0.00  0.00    +0.091 C 
BRANCH   3   4
ATOM      4  C   LIG    1       25.811 -20.145   5.623  0.00  0.00    +0.247 C 
BRANCH   4   5
ATOM      5  O   LIG    1       27.175 -19.938   5.136  0.00  0.00    -0.490 OA
BRANCH   5   6
ATOM      6  C   LIG    1       28.190 -19.986   6.052  0.00  0.00    +0.121 A 
ATOM      7  C   LIG    1       29.142 -19.016   6.053  0.00  0.00    +0.045 A 
ATOM      8  C   LIG    1       30.395 -19.133   6.545  0.00  0.00    +0.004 A 
ATOM      9  C   LIG    1       30.565 -20.079   7.535  0.00  0.00    +0.000 A 
ATOM     10  C   LIG    1       29.477 -20.944   7.795  0.00  0.00    +0.004 A 
ATOM     11  C   LIG    1       28.339 -20.957   6.989  0.00  0.00    +0.045 A 
ENDBRANCH   5   6
ENDBRANCH   4   5
ENDBRANCH   3   4
ENDBRANCH   1   3
BRANCH   1  12
ATOM     12  C   LIG    1       23.466 -21.926   6.643  0.00  0.00    +0.120 C 
BRANCH  12  13
ATOM     13  C   LIG    1       24.111 -23.291   6.646  0.00  0.00    -0.033 A 
ATOM     14  C   LIG    1       23.378 -24.417   6.284  0.00  0.00    +0.005 A 
ATOM     15  C   LIG    1       23.996 -25.648   6.177  0.00  0.00    +0.000 A 
ATOM     16  C   LIG    1       25.323 -25.801   6.569  0.00  0.00    +0.000 A 
ATOM     17  C   LIG    1       26.032 -24.715   7.078  0.00  0.00    +0.000 A 
ATOM     18  C   LIG    1       25.434 -23.460   7.103  0.00  0.00    +0.005 A 
ENDBRANCH  12  13
ENDBRANCH   1  12
BRANCH   1  19
ATOM     19  C   LIG    1       22.731 -19.837   5.594  0.00  0.00    +0.101 C 
BRANCH  19  20
ATOM     20  C   LIG    1       21.946 -19.003   4.559  0.00  0.00    +0.124 C 
ATOM     21 CL   LIG    1       22.238 -17.259   4.725  0.00  0.00    -0.124 Cl
ENDBRANCH  19  20
ENDBRANCH   1  19
TORSDOF 8
ENDMDL
MODEL 9
REMARK VINA RESULT:      -7.4      5.165      7.909
REMARK  Name = *****
REMARK                            x       y       z     vdW  Elec       q    Type
REMARK                         _______ _______ _______ _____ _____    ______ ____
ROOT
ATOM      1  N   LIG    1       30.376 -18.828   7.563  0.00  0.00    -0.291 NA
ENDROOT
BRANCH   1   3
ATOM      2  C   LIG    1       29.352 -18.389   5.380  0.00  0.00    +0.028 C 
ATOM      3  C   LIG    1       29.112 -19.081   6.736  0.00  0.00    +0.091 C 
BRANCH   3   4
ATOM      4  C   LIG    1       28.670 -20.642   6.579  0.00  0.00    +0.247 C 
BRANCH   4   5
ATOM      5  O   LIG    1       28.057 -21.348   7.705  0.00  0.00    -0.490 OA
BRANCH   5   6
ATOM      6  C   LIG    1       26.710 -21.577   7.652  0.00  0.00    +0.121 A 
ATOM      7  C   LIG    1       26.248 -22.851   7.543  0.00  0.00    +0.045 A 
ATOM      8  C   LIG    1       25.049 -23.221   7.043  0.00  0.00    +0.004 A 
ATOM      9  C   LIG    1       24.049 -22.273   7.116  0.00  0.00    +0.000 A 
ATOM     10  C   LIG    1       24.423 -20.971   7.524  0.00  0.00    +0.004 A 
ATOM     11  C   LIG    1       25.759 -20.609   7.692  0.00  0.00    +0.045 A 
ENDBRANCH   5   6
ENDBRANCH   4   5
ENDBRANCH   3   4
ENDBRANCH   1   3
BRANCH   1  12
ATOM     12  C   LIG    1       29.913 -18.269   8.896  0.00  0.00    +0.120 C 
BRANCH  12  13
ATOM     13  C   LIG    1       30.866 -17.437   9.719  0.00  0.00    -0.033 A 
ATOM     14  C   LIG    1       30.590 -17.163  11.056  0.00  0.00    +0.005 A 
ATOM     15  C   LIG    1       31.514 -16.499  11.838  0.00  0.00    +0.000 A 
ATOM     16  C   LIG    1       32.667 -15.971  11.263  0.00  0.00    +0.000 A 
ATOM     17  C   LIG    1       32.891 -16.103   9.895  0.00  0.00    +0.000 A 
ATOM     18  C   LIG    1       32.002 -16.846   9.127  0.00  0.00    +0.005 A 
ENDBRANCH  12  13
ENDBRANCH   1  12
BRANCH   1  19
ATOM     19  C   LIG    1       31.175 -20.058   7.794  0.00  0.00    +0.101 C 
BRANCH  19  20
ATOM     20  C   LIG    1       31.285 -20.811   9.137  0.00  0.00    +0.124 C 
ATOM     21 CL   LIG    1       31.586 -22.548   8.921  0.00  0.00    -0.124 Cl
ENDBRANCH  19  20
ENDBRANCH   1  19
TORSDOF 8
ENDMDL
