MODEL 1
REMARK VINA RESULT:      -8.5      0.000      0.000
REMARK  Name = *****
REMARK                            x       y       z     vdW  Elec       q    Type
REMARK                         _______ _______ _______ _____ _____    ______ ____
ROOT
ATOM      1  C   LIG    1       23.613 -21.551   6.419  0.00  0.00    +0.201 C 
ATOM      2  C   LIG    1       24.011 -21.277   4.964  0.00  0.00    +0.181 C 
ATOM      3  C   LIG    1       25.519 -21.107   5.055  0.00  0.00    +0.195 C 
ATOM      4  C   LIG    1       25.638 -20.360   6.381  0.00  0.00    +0.253 C 
ATOM      5  O   LIG    1       24.579 -20.844   7.244  0.00  0.00    -0.343 OA
ENDROOT
BRANCH   4   6
ATOM      6  N   LIG    1       26.919 -20.476   7.050  0.00  0.00    -0.285 N 
ATOM      7  C   LIG    1       28.105 -19.881   6.715  0.00  0.00    +0.167 A 
ATOM      8  N   LIG    1       28.336 -18.990   5.735  0.00  0.00    -0.216 NA
ATOM      9  C   LIG    1       29.647 -18.689   5.656  0.00  0.00    +0.225 A 
ATOM     10  N   LIG    1       30.667 -19.170   6.395  0.00  0.00    -0.219 NA
ATOM     11  C   LIG    1       30.386 -20.068   7.364  0.00  0.00    +0.147 A 
ATOM     12  C   LIG    1       29.045 -20.440   7.572  0.00  0.00    +0.147 A 
ATOM     13  N   LIG    1       28.441 -21.313   8.454  0.00  0.00    -0.231 NA
ATOM     14  C   LIG    1       27.165 -21.290   8.130  0.00  0.00    +0.203 A 
BRANCH  11  15
ATOM     15  N   LIG    1       31.478 -20.631   8.025  0.00  0.00    -0.341 N 
ATOM     16  H   LIG    1       32.240 -19.969   8.116  0.00  0.00    +0.144 HD
ATOM     17  H   LIG    1       31.158 -21.049   8.891  0.00  0.00    +0.144 HD
ENDBRANCH  11  15
ENDBRANCH   4   6
BRANCH   2  18
ATOM     18  O   LIG    1       23.464 -20.015   4.521  0.00  0.00    -0.386 OA
ATOM     19  H   LIG    1       23.077 -19.580   5.304  0.00  0.00    +0.210 HD
ENDBRANCH   2  18
BRANCH   3  20
ATOM     20  O   LIG    1       26.022 -20.355   3.951  0.00  0.00    -0.385 OA
ATOM     21  H   LIG    1       26.866 -19.965   4.263  0.00  0.00    +0.210 HD
ENDBRANCH   3  20
BRANCH   1  22
ATOM     22  C   LIG    1       23.645 -23.037   6.806  0.00  0.00    +0.311 C 
BRANCH  22  24
ATOM     23  C   LIG    1       26.062 -24.315   6.943  0.00  0.00    +0.340 C 
ATOM     24  S   LIG    1       24.745 -24.011   5.746  0.00  0.00    -0.011 S 
BRANCH  24  25
ATOM     25  C   LIG    1       23.967 -25.651   5.805  0.00  0.00    +0.280 C 
BRANCH  25  26
ATOM     26  C   LIG    1       24.818 -26.865   5.430  0.00  0.00    +0.084 C 
BRANCH  26  27
ATOM     27  CA  LIG    1       24.660 -28.006   6.445  0.00  0.00    +0.165 C 
BRANCH  27  28
ATOM     28  N   LIG    1       25.845 -28.074   7.357  0.00  0.00    -0.318 NA
ATOM     29  H1  LIG    1       25.844 -27.221   7.929  0.00  0.00    +0.119 HD
ATOM     30  H2  LIG    1       26.699 -27.988   6.795  0.00  0.00    +0.119 HD
ENDBRANCH  27  28
BRANCH  27  31
ATOM     31  C   LIG    1       24.485 -29.389   5.776  0.00  0.00    +0.322 C 
ATOM     32  O   LIG    1       25.379 -30.162   5.512  0.00  0.00    -0.249 OA
BRANCH  31  33
ATOM     33  OXT LIG    1       23.181 -29.630   5.472  0.00  0.00    -0.479 OA
ATOM     34  HXT LIG    1       22.656 -28.938   5.945  0.00  0.00    +0.295 HD
ENDBRANCH  31  33
ENDBRANCH  27  31
ENDBRANCH  26  27
ENDBRANCH  25  26
ENDBRANCH  24  25
ENDBRANCH  22  24
ENDBRANCH   1  22
TORSDOF 12
ENDMDL
MODEL 2
REMARK VINA RESULT:      -7.6      1.540      1.893
REMARK  Name = *****
REMARK                            x       y       z     vdW  Elec       q    Type
REMARK                         _______ _______ _______ _____ _____    ______ ____
ROOT
ATOM      1  C   LIG    1       24.858 -23.500   6.853  0.00  0.00    +0.201 C 
ATOM      2  C   LIG    1       24.641 -22.772   5.522  0.00  0.00    +0.181 C 
ATOM      3  C   LIG    1       25.848 -21.852   5.442  0.00  0.00    +0.195 C 
ATOM      4  C   LIG    1       25.984 -21.438   6.905  0.00  0.00    +0.253 C 
ATOM      5  O   LIG    1       25.575 -22.571   7.712  0.00  0.00    -0.343 OA
ENDROOT
BRANCH   4   6
ATOM      6  N   LIG    1       27.303 -20.990   7.307  0.00  0.00    -0.285 N 
ATOM      7  C   LIG    1       28.102 -20.060   6.697  0.00  0.00    +0.167 A 
ATOM      8  N   LIG    1       27.814 -19.293   5.631  0.00  0.00    -0.216 NA
ATOM      9  C   LIG    1       28.881 -18.554   5.267  0.00  0.00    +0.225 A 
ATOM     10  N   LIG    1       30.112 -18.527   5.816  0.00  0.00    -0.219 NA
ATOM     11  C   LIG    1       30.355 -19.319   6.882  0.00  0.00    +0.147 A 
ATOM     12  C   LIG    1       29.309 -20.116   7.383  0.00  0.00    +0.147 A 
ATOM     13  N   LIG    1       29.234 -21.015   8.428  0.00  0.00    -0.231 NA
ATOM     14  C   LIG    1       28.011 -21.499   8.368  0.00  0.00    +0.203 A 
BRANCH  11  15
ATOM     15  N   LIG    1       31.670 -19.352   7.345  0.00  0.00    -0.341 N 
ATOM     16  H   LIG    1       31.754 -19.913   8.186  0.00  0.00    +0.144 HD
ATOM     17  H   LIG    1       32.281 -19.617   6.582  0.00  0.00    +0.144 HD
ENDBRANCH  11  15
ENDBRANCH   4   6
BRANCH   2  18
ATOM     18  O   LIG    1       23.467 -21.933   5.592  0.00  0.00    -0.386 OA
ATOM     19  H   LIG    1       23.678 -21.196   6.196  0.00  0.00    +0.210 HD
ENDBRANCH   2  18
BRANCH   3  20
ATOM     20  O   LIG    1       25.597 -20.745   4.577  0.00  0.00    -0.385 OA
ATOM     21  H   LIG    1       25.670 -19.948   5.144  0.00  0.00    +0.210 HD
ENDBRANCH   3  20
BRANCH   1  22
ATOM     22  C   LIG    1       25.690 -24.786   6.734  0.00  0.00    +0.311 C 
BRANCH  22  24
ATOM     23  C   LIG    1       25.465 -26.405   4.538  0.00  0.00    +0.340 C 
ATOM     24  S   LIG    1       24.711 -26.201   6.166  0.00  0.00    -0.011 S 
BRANCH  24  25
ATOM     25  C   LIG    1       25.535 -27.587   7.000  0.00  0.00    +0.280 C 
BRANCH  25  26
ATOM     26  C   LIG    1       24.698 -28.820   7.346  0.00  0.00    +0.084 C 
BRANCH  26  27
ATOM     27  CA  LIG    1       24.514 -29.741   6.132  0.00  0.00    +0.165 C 
BRANCH  27  28
ATOM     28  N   LIG    1       23.253 -29.406   5.397  0.00  0.00    -0.318 NA
ATOM     29  H1  LIG    1       23.145 -30.090   4.640  0.00  0.00    +0.119 HD
ATOM     30  H2  LIG    1       23.385 -28.516   4.904  0.00  0.00    +0.119 HD
ENDBRANCH  27  28
BRANCH  27  31
ATOM     31  C   LIG    1       24.469 -31.238   6.512  0.00  0.00    +0.322 C 
ATOM     32  O   LIG    1       25.169 -32.106   6.039  0.00  0.00    -0.249 OA
BRANCH  31  33
ATOM     33  OXT LIG    1       23.500 -31.486   7.434  0.00  0.00    -0.479 OA
ATOM     34  HXT LIG    1       23.882 -32.146   8.064  0.00  0.00    +0.295 HD
ENDBRANCH  31  33
ENDBRANCH  27  31
ENDBRANCH  26  27
ENDBRANCH  25  26
ENDBRANCH  24  25
ENDBRANCH  22  24
ENDBRANCH   1  22
TORSDOF 12
ENDMDL
MODEL 3
REMARK VINA RESULT:      -7.6      1.429      2.335
REMARK  Name = *****
REMARK                            x       y       z     vdW  Elec       q    Type
REMARK                         _______ _______ _______ _____ _____    ______ ____
ROOT
ATOM      1  C   LIG    1       25.191 -22.908   7.357  0.00  0.00    +0.201 C 
ATOM      2  C   LIG    1       24.399 -22.211   6.246  0.00  0.00    +0.181 C 
ATOM      3  C   LIG    1       25.432 -21.281   5.630  0.00  0.00    +0.195 C 
ATOM      4  C   LIG    1       26.188 -20.834   6.879  0.00  0.00    +0.253 C 
ATOM      5  O   LIG    1       26.195 -21.953   7.800  0.00  0.00    -0.343 OA
ENDROOT
BRANCH   4   6
ATOM      6  N   LIG    1       27.541 -20.365   6.655  0.00  0.00    -0.285 N 
ATOM      7  C   LIG    1       28.670 -20.665   7.369  0.00  0.00    +0.167 A 
ATOM      8  N   LIG    1       28.795 -21.526   8.394  0.00  0.00    -0.216 NA
ATOM      9  C   LIG    1       30.045 -21.496   8.898  0.00  0.00    +0.225 A 
ATOM     10  N   LIG    1       31.089 -20.734   8.513  0.00  0.00    -0.219 NA
ATOM     11  C   LIG    1       30.912 -19.880   7.483  0.00  0.00    +0.147 A 
ATOM     12  C   LIG    1       29.658 -19.841   6.845  0.00  0.00    +0.147 A 
ATOM     13  N   LIG    1       29.165 -19.096   5.793  0.00  0.00    -0.231 NA
ATOM     14  C   LIG    1       27.902 -19.455   5.691  0.00  0.00    +0.203 A 
BRANCH  11  15
ATOM     15  N   LIG    1       31.976 -19.026   7.193  0.00  0.00    -0.341 N 
ATOM     16  H   LIG    1       32.613 -18.945   7.978  0.00  0.00    +0.144 HD
ATOM     17  H   LIG    1       32.398 -19.311   6.317  0.00  0.00    +0.144 HD
ENDBRANCH  11  15
ENDBRANCH   4   6
BRANCH   2  18
ATOM     18  O   LIG    1       23.359 -21.382   6.811  0.00  0.00    -0.386 OA
ATOM     19  H   LIG    1       22.936 -20.909   6.069  0.00  0.00    +0.210 HD
ENDBRANCH   2  18
BRANCH   3  20
ATOM     20  O   LIG    1       24.807 -20.195   4.946  0.00  0.00    -0.385 OA
ATOM     21  H   LIG    1       25.534 -19.717   4.494  0.00  0.00    +0.210 HD
ENDBRANCH   3  20
BRANCH   1  22
ATOM     22  C   LIG    1       25.910 -24.188   6.905  0.00  0.00    +0.311 C 
BRANCH  22  24
ATOM     23  C   LIG    1       25.007 -25.313   4.578  0.00  0.00    +0.340 C 
ATOM     24  S   LIG    1       24.760 -25.478   6.359  0.00  0.00    -0.011 S 
BRANCH  24  25
ATOM     25  C   LIG    1       25.741 -26.985   6.611  0.00  0.00    +0.280 C 
BRANCH  25  26
ATOM     26  C   LIG    1       24.997 -28.289   6.904  0.00  0.00    +0.084 C 
BRANCH  26  27
ATOM     27  CA  LIG    1       24.768 -29.113   5.630  0.00  0.00    +0.165 C 
BRANCH  27  28
ATOM     28  N   LIG    1       23.311 -29.392   5.432  0.00  0.00    -0.318 NA
ATOM     29  H1  LIG    1       22.809 -28.503   5.537  0.00  0.00    +0.119 HD
ATOM     30  H2  LIG    1       22.972 -29.956   6.219  0.00  0.00    +0.119 HD
ENDBRANCH  27  28
BRANCH  27  31
ATOM     31  C   LIG    1       25.521 -30.463   5.641  0.00  0.00    +0.322 C 
ATOM     32  O   LIG    1       25.620 -31.222   4.703  0.00  0.00    -0.249 OA
BRANCH  31  33
ATOM     33  OXT LIG    1       26.042 -30.728   6.870  0.00  0.00    -0.479 OA
ATOM     34  HXT LIG    1       26.959 -31.064   6.713  0.00  0.00    +0.295 HD
ENDBRANCH  31  33
ENDBRANCH  27  31
ENDBRANCH  26  27
ENDBRANCH  25  26
ENDBRANCH  24  25
ENDBRANCH  22  24
ENDBRANCH   1  22
TORSDOF 12
ENDMDL
MODEL 4
REMARK VINA RESULT:      -7.4      3.064      8.519
REMARK  Name = *****
REMARK                            x       y       z     vdW  Elec       q    Type
REMARK                         _______ _______ _______ _____ _____    ______ ____
ROOT
ATOM      1  C   LIG    1       26.102 -24.001   6.121  0.00  0.00    +0.201 C 
ATOM      2  C   LIG    1       24.702 -24.184   5.525  0.00  0.00    +0.181 C 
ATOM      3  C   LIG    1       24.265 -25.523   6.096  0.00  0.00    +0.195 C 
ATOM      4  C   LIG    1       25.583 -26.292   6.048  0.00  0.00    +0.253 C 
ATOM      5  O   LIG    1       26.647 -25.339   6.294  0.00  0.00    -0.343 OA
ENDROOT
BRANCH   4   6
ATOM      6  N   LIG    1       25.689 -27.406   6.969  0.00  0.00    -0.285 N 
ATOM      7  C   LIG    1       25.066 -28.623   6.900  0.00  0.00    +0.167 A 
ATOM      8  N   LIG    1       24.275 -29.093   5.919  0.00  0.00    -0.216 NA
ATOM      9  C   LIG    1       23.778 -30.304   6.240  0.00  0.00    +0.225 A 
ATOM     10  N   LIG    1       23.970 -31.021   7.365  0.00  0.00    -0.219 NA
ATOM     11  C   LIG    1       24.768 -30.505   8.324  0.00  0.00    +0.147 A 
ATOM     12  C   LIG    1       25.379 -29.259   8.095  0.00  0.00    +0.147 A 
ATOM     13  N   LIG    1       26.224 -28.476   8.856  0.00  0.00    -0.231 NA
ATOM     14  C   LIG    1       26.409 -27.387   8.139  0.00  0.00    +0.203 A 
BRANCH  11  15
ATOM     15  N   LIG    1       24.846 -31.220   9.519  0.00  0.00    -0.341 N 
ATOM     16  H   LIG    1       25.341 -32.097   9.397  0.00  0.00    +0.144 HD
ATOM     17  H   LIG    1       25.211 -30.612  10.243  0.00  0.00    +0.144 HD
ENDBRANCH  11  15
ENDBRANCH   4   6
BRANCH   2  18
ATOM     18  O   LIG    1       24.781 -24.335   4.090  0.00  0.00    -0.386 OA
ATOM     19  H   LIG    1       25.124 -23.494   3.733  0.00  0.00    +0.210 HD
ENDBRANCH   2  18
BRANCH   3  20
ATOM     20  O   LIG    1       23.248 -26.121   5.293  0.00  0.00    -0.385 OA
ATOM     21  H   LIG    1       22.973 -25.426   4.658  0.00  0.00    +0.210 HD
ENDBRANCH   3  20
BRANCH   1  22
ATOM     22  C   LIG    1       26.113 -23.297   7.486  0.00  0.00    +0.311 C 
BRANCH  22  24
ATOM     23  C   LIG    1       25.614 -20.923   8.756  0.00  0.00    +0.340 C 
ATOM     24  S   LIG    1       26.581 -21.549   7.365  0.00  0.00    -0.011 S 
BRANCH  24  25
ATOM     25  C   LIG    1       28.210 -21.541   8.167  0.00  0.00    +0.280 C 
BRANCH  25  26
ATOM     26  C   LIG    1       29.399 -20.996   7.375  0.00  0.00    +0.084 C 
BRANCH  26  27
ATOM     27  CA  LIG    1       30.557 -20.586   8.297  0.00  0.00    +0.165 C 
BRANCH  27  28
ATOM     28  N   LIG    1       31.688 -20.009   7.504  0.00  0.00    -0.318 NA
ATOM     29  H1  LIG    1       31.489 -19.012   7.362  0.00  0.00    +0.119 HD
ATOM     30  H2  LIG    1       31.659 -20.398   6.555  0.00  0.00    +0.119 HD
ENDBRANCH  27  28
BRANCH  27  31
ATOM     31  C   LIG    1       31.105 -21.761   9.137  0.00  0.00    +0.322 C 
ATOM     32  O   LIG    1       30.719 -22.079  10.240  0.00  0.00    -0.249 OA
BRANCH  31  33
ATOM     33  OXT LIG    1       32.126 -22.392   8.497  0.00  0.00    -0.479 OA
ATOM     34  HXT LIG    1       32.459 -23.081   9.123  0.00  0.00    +0.295 HD
ENDBRANCH  31  33
ENDBRANCH  27  31
ENDBRANCH  26  27
ENDBRANCH  25  26
ENDBRANCH  24  25
ENDBRANCH  22  24
ENDBRANCH   1  22
TORSDOF 12
ENDMDL
MODEL 5
REMARK VINA RESULT:      -7.4      1.052      1.882
REMARK  Name = *****
REMARK                            x       y       z     vdW  Elec       q    Type
REMARK                         _______ _______ _______ _____ _____    ______ ____
ROOT
ATOM      1  C   LIG    1       24.626 -21.812   5.809  0.00  0.00    +0.201 C 
ATOM      2  C   LIG    1       24.337 -21.083   4.492  0.00  0.00    +0.181 C 
ATOM      3  C   LIG    1       25.652 -20.378   4.202  0.00  0.00    +0.195 C 
ATOM      4  C   LIG    1       26.066 -19.964   5.613  0.00  0.00    +0.253 C 
ATOM      5  O   LIG    1       25.602 -20.998   6.517  0.00  0.00    -0.343 OA
ENDROOT
BRANCH   4   6
ATOM      6  N   LIG    1       27.483 -19.733   5.805  0.00  0.00    -0.285 N 
ATOM      7  C   LIG    1       28.321 -20.321   6.715  0.00  0.00    +0.167 A 
ATOM      8  N   LIG    1       28.036 -21.305   7.585  0.00  0.00    -0.216 NA
ATOM      9  C   LIG    1       29.094 -21.569   8.377  0.00  0.00    +0.225 A 
ATOM     10  N   LIG    1       30.305 -20.976   8.388  0.00  0.00    -0.219 NA
ATOM     11  C   LIG    1       30.542 -19.988   7.499  0.00  0.00    +0.147 A 
ATOM     12  C   LIG    1       29.526 -19.641   6.589  0.00  0.00    +0.147 A 
ATOM     13  N   LIG    1       29.450 -18.698   5.584  0.00  0.00    -0.231 NA
ATOM     14  C   LIG    1       28.222 -18.799   5.120  0.00  0.00    +0.203 A 
BRANCH  11  15
ATOM     15  N   LIG    1       31.760 -19.321   7.620  0.00  0.00    -0.341 N 
ATOM     16  H   LIG    1       32.486 -19.768   7.072  0.00  0.00    +0.144 HD
ATOM     17  H   LIG    1       31.616 -18.335   7.431  0.00  0.00    +0.144 HD
ENDBRANCH  11  15
ENDBRANCH   4   6
BRANCH   2  18
ATOM     18  O   LIG    1       23.336 -20.061   4.690  0.00  0.00    -0.386 OA
ATOM     19  H   LIG    1       22.563 -20.494   5.098  0.00  0.00    +0.210 HD
ENDBRANCH   2  18
BRANCH   3  20
ATOM     20  O   LIG    1       25.460 -19.261   3.335  0.00  0.00    -0.385 OA
ATOM     21  H   LIG    1       25.336 -19.642   2.440  0.00  0.00    +0.210 HD
ENDBRANCH   3  20
BRANCH   1  22
ATOM     22  C   LIG    1       25.214 -23.219   5.629  0.00  0.00    +0.311 C 
BRANCH  22  24
ATOM     23  C   LIG    1       22.759 -23.780   6.704  0.00  0.00    +0.340 C 
ATOM     24  S   LIG    1       24.438 -24.444   6.717  0.00  0.00    -0.011 S 
BRANCH  24  25
ATOM     25  C   LIG    1       24.168 -25.836   5.583  0.00  0.00    +0.280 C 
BRANCH  25  26
ATOM     26  C   LIG    1       25.197 -26.967   5.574  0.00  0.00    +0.084 C 
BRANCH  26  27
ATOM     27  CA  LIG    1       24.797 -28.108   6.520  0.00  0.00    +0.165 C 
BRANCH  27  28
ATOM     28  N   LIG    1       25.870 -28.357   7.534  0.00  0.00    -0.318 NA
ATOM     29  H1  LIG    1       26.752 -28.007   7.144  0.00  0.00    +0.119 HD
ATOM     30  H2  LIG    1       26.024 -29.368   7.611  0.00  0.00    +0.119 HD
ENDBRANCH  27  28
BRANCH  27  31
ATOM     31  C   LIG    1       24.513 -29.435   5.781  0.00  0.00    +0.322 C 
ATOM     32  O   LIG    1       25.340 -30.273   5.496  0.00  0.00    -0.249 OA
BRANCH  31  33
ATOM     33  OXT LIG    1       23.200 -29.540   5.440  0.00  0.00    -0.479 OA
ATOM     34  HXT LIG    1       23.017 -28.795   4.816  0.00  0.00    +0.295 HD
ENDBRANCH  31  33
ENDBRANCH  27  31
ENDBRANCH  26  27
ENDBRANCH  25  26
ENDBRANCH  24  25
ENDBRANCH  22  24
ENDBRANCH   1  22
TORSDOF 12
ENDMDL
MODEL 6
REMARK VINA RESULT:      -7.2      3.683      7.249
REMARK  Name = *****
REMARK                            x       y       z     vdW  Elec       q    Type
REMARK                         _______ _______ _______ _____ _____    ______ ____
ROOT
ATOM      1  C   LIG    1       24.848 -21.477   5.863  0.00  0.00    +0.201 C 
ATOM      2  C   LIG    1       24.748 -21.908   7.330  0.00  0.00    +0.181 C 
ATOM      3  C   LIG    1       26.018 -21.333   7.936  0.00  0.00    +0.195 C 
ATOM      4  C   LIG    1       27.005 -21.564   6.793  0.00  0.00    +0.253 C 
ATOM      5  O   LIG    1       26.268 -21.415   5.554  0.00  0.00    -0.343 OA
ENDROOT
BRANCH   4   6
ATOM      6  N   LIG    1       28.168 -20.700   6.789  0.00  0.00    -0.285 N 
ATOM      7  C   LIG    1       29.287 -20.785   7.574  0.00  0.00    +0.167 A 
ATOM      8  N   LIG    1       29.597 -21.735   8.472  0.00  0.00    -0.216 NA
ATOM      9  C   LIG    1       30.747 -21.438   9.111  0.00  0.00    +0.225 A 
ATOM     10  N   LIG    1       31.539 -20.359   8.957  0.00  0.00    -0.219 NA
ATOM     11  C   LIG    1       31.183 -19.428   8.046  0.00  0.00    +0.147 A 
ATOM     12  C   LIG    1       30.018 -19.639   7.286  0.00  0.00    +0.147 A 
ATOM     13  N   LIG    1       29.394 -18.897   6.303  0.00  0.00    -0.231 NA
ATOM     14  C   LIG    1       28.304 -19.576   6.011  0.00  0.00    +0.203 A 
BRANCH  11  15
ATOM     15  N   LIG    1       31.962 -18.272   8.001  0.00  0.00    -0.341 N 
ATOM     16  H   LIG    1       31.472 -17.477   8.398  0.00  0.00    +0.144 HD
ATOM     17  H   LIG    1       32.869 -18.471   8.406  0.00  0.00    +0.144 HD
ENDBRANCH  11  15
ENDBRANCH   4   6
BRANCH   2  18
ATOM     18  O   LIG    1       24.833 -23.346   7.441  0.00  0.00    -0.386 OA
ATOM     19  H   LIG    1       23.921 -23.690   7.395  0.00  0.00    +0.210 HD
ENDBRANCH   2  18
BRANCH   3  20
ATOM     20  O   LIG    1       26.383 -22.029   9.128  0.00  0.00    -0.385 OA
ATOM     21  H   LIG    1       27.295 -22.354   8.973  0.00  0.00    +0.210 HD
ENDBRANCH   3  20
BRANCH   1  22
ATOM     22  C   LIG    1       24.232 -20.101   5.571  0.00  0.00    +0.311 C 
BRANCH  22  24
ATOM     23  C   LIG    1       22.847 -18.455   3.878  0.00  0.00    +0.340 C 
ATOM     24  S   LIG    1       24.091 -19.761   3.796  0.00  0.00    -0.011 S 
BRANCH  24  25
ATOM     25  C   LIG    1       25.541 -18.710   3.499  0.00  0.00    +0.280 C 
BRANCH  25  26
ATOM     26  C   LIG    1       25.344 -17.194   3.500  0.00  0.00    +0.084 C 
BRANCH  26  27
ATOM     27  CA  LIG    1       26.635 -16.451   3.125  0.00  0.00    +0.165 C 
BRANCH  27  28
ATOM     28  N   LIG    1       27.768 -16.880   4.004  0.00  0.00    -0.318 NA
ATOM     29  H1  LIG    1       27.374 -17.448   4.763  0.00  0.00    +0.119 HD
ATOM     30  H2  LIG    1       28.141 -16.055   4.488  0.00  0.00    +0.119 HD
ENDBRANCH  27  28
BRANCH  27  31
ATOM     31  C   LIG    1       26.498 -14.915   3.226  0.00  0.00    +0.322 C 
ATOM     32  O   LIG    1       26.252 -14.295   4.236  0.00  0.00    -0.249 OA
BRANCH  31  33
ATOM     33  OXT LIG    1       26.650 -14.325   2.010  0.00  0.00    -0.479 OA
ATOM     34  HXT LIG    1       27.624 -14.214   1.877  0.00  0.00    +0.295 HD
ENDBRANCH  31  33
ENDBRANCH  27  31
ENDBRANCH  26  27
ENDBRANCH  25  26
ENDBRANCH  24  25
ENDBRANCH  22  24
ENDBRANCH   1  22
TORSDOF 12
ENDMDL
MODEL 7
REMARK VINA RESULT:      -7.1      3.849      8.029
REMARK  Name = *****
REMARK                            x       y       z     vdW  Elec       q    Type
REMARK                         _______ _______ _______ _____ _____    ______ ____
ROOT
ATOM      1  C   LIG    1       25.833 -23.832   6.516  0.00  0.00    +0.201 C 
ATOM      2  C   LIG    1       24.547 -24.097   5.724  0.00  0.00    +0.181 C 
ATOM      3  C   LIG    1       24.190 -25.518   6.130  0.00  0.00    +0.195 C 
ATOM      4  C   LIG    1       25.580 -26.147   6.203  0.00  0.00    +0.253 C 
ATOM      5  O   LIG    1       26.494 -25.119   6.660  0.00  0.00    -0.343 OA
ENDROOT
BRANCH   4   6
ATOM      6  N   LIG    1       25.689 -27.322   7.044  0.00  0.00    -0.285 N 
ATOM      7  C   LIG    1       25.072 -28.535   6.887  0.00  0.00    +0.167 A 
ATOM      8  N   LIG    1       24.286 -28.938   5.874  0.00  0.00    -0.216 NA
ATOM      9  C   LIG    1       23.794 -30.171   6.107  0.00  0.00    +0.225 A 
ATOM     10  N   LIG    1       23.987 -30.964   7.179  0.00  0.00    -0.219 NA
ATOM     11  C   LIG    1       24.781 -30.513   8.175  0.00  0.00    +0.147 A 
ATOM     12  C   LIG    1       25.385 -29.251   8.036  0.00  0.00    +0.147 A 
ATOM     13  N   LIG    1       26.225 -28.519   8.852  0.00  0.00    -0.231 NA
ATOM     14  C   LIG    1       26.406 -27.381   8.214  0.00  0.00    +0.203 A 
BRANCH  11  15
ATOM     15  N   LIG    1       24.859 -31.310   9.317  0.00  0.00    -0.341 N 
ATOM     16  H   LIG    1       25.489 -32.093   9.182  0.00  0.00    +0.144 HD
ATOM     17  H   LIG    1       25.062 -30.720  10.116  0.00  0.00    +0.144 HD
ENDBRANCH  11  15
ENDBRANCH   4   6
BRANCH   2  18
ATOM     18  O   LIG    1       24.822 -24.113   4.306  0.00  0.00    -0.386 OA
ATOM     19  H   LIG    1       24.180 -24.724   3.898  0.00  0.00    +0.210 HD
ENDBRANCH   2  18
BRANCH   3  20
ATOM     20  O   LIG    1       23.354 -26.139   5.155  0.00  0.00    -0.385 OA
ATOM     21  H   LIG    1       23.965 -26.562   4.516  0.00  0.00    +0.210 HD
ENDBRANCH   3  20
BRANCH   1  22
ATOM     22  C   LIG    1       25.595 -23.253   7.918  0.00  0.00    +0.311 C 
BRANCH  22  24
ATOM     23  C   LIG    1       27.578 -21.494   7.231  0.00  0.00    +0.340 C 
ATOM     24  S   LIG    1       25.949 -21.477   8.010  0.00  0.00    -0.011 S 
BRANCH  24  25
ATOM     25  C   LIG    1       25.002 -20.834   6.600  0.00  0.00    +0.280 C 
BRANCH  25  26
ATOM     26  C   LIG    1       23.490 -20.669   6.763  0.00  0.00    +0.084 C 
BRANCH  26  27
ATOM     27  CA  LIG    1       22.791 -20.462   5.412  0.00  0.00    +0.165 C 
BRANCH  27  28
ATOM     28  N   LIG    1       21.880 -21.609   5.105  0.00  0.00    -0.318 NA
ATOM     29  H1  LIG    1       22.207 -22.039   4.232  0.00  0.00    +0.119 HD
ATOM     30  H2  LIG    1       20.954 -21.240   4.861  0.00  0.00    +0.119 HD
ENDBRANCH  27  28
BRANCH  27  31
ATOM     31  C   LIG    1       23.783 -20.304   4.237  0.00  0.00    +0.322 C 
ATOM     32  O   LIG    1       24.341 -19.277   3.920  0.00  0.00    -0.249 OA
BRANCH  31  33
ATOM     33  OXT LIG    1       23.932 -21.471   3.555  0.00  0.00    -0.479 OA
ATOM     34  HXT LIG    1       24.284 -21.226   2.664  0.00  0.00    +0.295 HD
ENDBRANCH  31  33
ENDBRANCH  27  31
ENDBRANCH  26  27
ENDBRANCH  25  26
ENDBRANCH  24  25
ENDBRANCH  22  24
ENDBRANCH   1  22
TORSDOF 12
ENDMDL
MODEL 8
REMARK VINA RESULT:      -7.1      3.113      8.790
REMARK  Name = *****
REMARK                            x       y       z     vdW  Elec       q    Type
REMARK                         _______ _______ _______ _____ _____    ______ ____
ROOT
ATOM      1  C   LIG    1       25.897 -26.068   6.200  0.00  0.00    +0.201 C 
ATOM      2  C   LIG    1       25.929 -27.104   5.071  0.00  0.00    +0.181 C 
ATOM      3  C   LIG    1       25.446 -28.369   5.763  0.00  0.00    +0.195 C 
ATOM      4  C   LIG    1       26.115 -28.216   7.127  0.00  0.00    +0.253 C 
ATOM      5  O   LIG    1       26.154 -26.799   7.430  0.00  0.00    -0.343 OA
ENDROOT
BRANCH   4   6
ATOM      6  N   LIG    1       25.489 -28.942   8.214  0.00  0.00    -0.285 N 
ATOM      7  C   LIG    1       26.035 -29.303   9.416  0.00  0.00    +0.167 A 
ATOM      8  N   LIG    1       27.254 -28.998   9.895  0.00  0.00    -0.216 NA
ATOM      9  C   LIG    1       27.469 -29.599  11.082  0.00  0.00    +0.225 A 
ATOM     10  N   LIG    1       26.652 -30.422  11.768  0.00  0.00    -0.219 NA
ATOM     11  C   LIG    1       25.440 -30.704  11.244  0.00  0.00    +0.147 A 
ATOM     12  C   LIG    1       25.079 -30.108  10.021  0.00  0.00    +0.147 A 
ATOM     13  N   LIG    1       23.946 -30.191   9.237  0.00  0.00    -0.231 NA
ATOM     14  C   LIG    1       24.217 -29.460   8.176  0.00  0.00    +0.203 A 
BRANCH  11  15
ATOM     15  N   LIG    1       24.673 -31.650  11.922  0.00  0.00    -0.341 N 
ATOM     16  H   LIG    1       24.927 -32.596  11.656  0.00  0.00    +0.144 HD
ATOM     17  H   LIG    1       24.710 -31.453  12.916  0.00  0.00    +0.144 HD
ENDBRANCH  11  15
ENDBRANCH   4   6
BRANCH   2  18
ATOM     18  O   LIG    1       27.288 -27.342   4.643  0.00  0.00    -0.386 OA
ATOM     19  H   LIG    1       27.296 -27.279   3.669  0.00  0.00    +0.210 HD
ENDBRANCH   2  18
BRANCH   3  20
ATOM     20  O   LIG    1       25.878 -29.537   5.065  0.00  0.00    -0.385 OA
ATOM     21  H   LIG    1       25.435 -30.288   5.512  0.00  0.00    +0.210 HD
ENDBRANCH   3  20
BRANCH   1  22
ATOM     22  C   LIG    1       24.551 -25.342   6.344  0.00  0.00    +0.311 C 
BRANCH  22  24
ATOM     23  C   LIG    1       23.184 -23.029   6.871  0.00  0.00    +0.340 C 
ATOM     24  S   LIG    1       24.678 -23.565   6.010  0.00  0.00    -0.011 S 
BRANCH  24  25
ATOM     25  C   LIG    1       25.890 -23.034   7.253  0.00  0.00    +0.280 C 
BRANCH  25  26
ATOM     26  C   LIG    1       25.801 -21.601   7.780  0.00  0.00    +0.084 C 
BRANCH  26  27
ATOM     27  CA  LIG    1       26.846 -20.687   7.124  0.00  0.00    +0.165 C 
BRANCH  27  28
ATOM     28  N   LIG    1       26.649 -20.636   5.641  0.00  0.00    -0.318 NA
ATOM     29  H1  LIG    1       27.540 -20.897   5.202  0.00  0.00    +0.119 HD
ATOM     30  H2  LIG    1       26.517 -19.659   5.359  0.00  0.00    +0.119 HD
ENDBRANCH  27  28
BRANCH  27  31
ATOM     31  C   LIG    1       28.298 -21.133   7.405  0.00  0.00    +0.322 C 
ATOM     32  O   LIG    1       28.743 -21.444   8.488  0.00  0.00    -0.249 OA
BRANCH  31  33
ATOM     33  OXT LIG    1       29.054 -21.097   6.274  0.00  0.00    -0.479 OA
ATOM     34  HXT LIG    1       29.752 -20.414   6.431  0.00  0.00    +0.295 HD
ENDBRANCH  31  33
ENDBRANCH  27  31
ENDBRANCH  26  27
ENDBRANCH  25  26
ENDBRANCH  24  25
ENDBRANCH  22  24
ENDBRANCH   1  22
TORSDOF 12
ENDMDL
MODEL 9
REMARK VINA RESULT:      -7.0      2.953      8.807
REMARK  Name = *****
REMARK                            x       y       z     vdW  Elec       q    Type
REMARK                         _______ _______ _______ _____ _____    ______ ____
ROOT
ATOM      1  C   LIG    1       25.794 -26.201   6.160  0.00  0.00    +0.201 C 
ATOM      2  C   LIG    1       25.886 -27.262   5.059  0.00  0.00    +0.181 C 
ATOM      3  C   LIG    1       25.445 -28.529   5.775  0.00  0.00    +0.195 C 
ATOM      4  C   LIG    1       26.087 -28.315   7.144  0.00  0.00    +0.253 C 
ATOM      5  O   LIG    1       26.063 -26.891   7.412  0.00  0.00    -0.343 OA
ENDROOT
BRANCH   4   6
ATOM      6  N   LIG    1       25.476 -29.039   8.240  0.00  0.00    -0.285 N 
ATOM      7  C   LIG    1       26.029 -29.372   9.447  0.00  0.00    +0.167 A 
ATOM      8  N   LIG    1       27.240 -29.034   9.923  0.00  0.00    -0.216 NA
ATOM      9  C   LIG    1       27.467 -29.614  11.119  0.00  0.00    +0.225 A 
ATOM     10  N   LIG    1       26.667 -30.446  11.815  0.00  0.00    -0.219 NA
ATOM     11  C   LIG    1       25.461 -30.761  11.293  0.00  0.00    +0.147 A 
ATOM     12  C   LIG    1       25.089 -30.190  10.062  0.00  0.00    +0.147 A 
ATOM     13  N   LIG    1       23.959 -30.308   9.279  0.00  0.00    -0.231 NA
ATOM     14  C   LIG    1       24.215 -29.585   8.208  0.00  0.00    +0.203 A 
BRANCH  11  15
ATOM     15  N   LIG    1       24.715 -31.715  11.984  0.00  0.00    -0.341 N 
ATOM     16  H   LIG    1       24.770 -31.576  12.987  0.00  0.00    +0.144 HD
ATOM     17  H   LIG    1       23.778 -31.742  11.599  0.00  0.00    +0.144 HD
ENDBRANCH  11  15
ENDBRANCH   4   6
BRANCH   2  18
ATOM     18  O   LIG    1       27.260 -27.454   4.655  0.00  0.00    -0.386 OA
ATOM     19  H   LIG    1       27.813 -27.289   5.442  0.00  0.00    +0.210 HD
ENDBRANCH   2  18
BRANCH   3  20
ATOM     20  O   LIG    1       25.935 -29.694   5.112  0.00  0.00    -0.385 OA
ATOM     21  H   LIG    1       26.352 -30.238   5.813  0.00  0.00    +0.210 HD
ENDBRANCH   3  20
BRANCH   1  22
ATOM     22  C   LIG    1       24.418 -25.528   6.268  0.00  0.00    +0.311 C 
BRANCH  22  24
ATOM     23  C   LIG    1       22.915 -23.307   6.819  0.00  0.00    +0.340 C 
ATOM     24  S   LIG    1       24.503 -23.728   6.070  0.00  0.00    -0.011 S 
BRANCH  24  25
ATOM     25  C   LIG    1       25.571 -23.248   7.457  0.00  0.00    +0.280 C 
BRANCH  25  26
ATOM     26  C   LIG    1       26.722 -22.280   7.178  0.00  0.00    +0.084 C 
BRANCH  26  27
ATOM     27  CA  LIG    1       26.238 -20.824   7.113  0.00  0.00    +0.165 C 
BRANCH  27  28
ATOM     28  N   LIG    1       25.073 -20.611   8.027  0.00  0.00    -0.318 NA
ATOM     29  H1  LIG    1       25.089 -19.629   8.324  0.00  0.00    +0.119 HD
ATOM     30  H2  LIG    1       25.236 -21.130   8.897  0.00  0.00    +0.119 HD
ENDBRANCH  27  28
BRANCH  27  31
ATOM     31  C   LIG    1       25.823 -20.390   5.689  0.00  0.00    +0.322 C 
ATOM     32  O   LIG    1       24.687 -20.207   5.312  0.00  0.00    -0.249 OA
BRANCH  31  33
ATOM     33  OXT LIG    1       26.905 -20.271   4.873  0.00  0.00    -0.479 OA
ATOM     34  HXT LIG    1       26.686 -19.553   4.229  0.00  0.00    +0.295 HD
ENDBRANCH  31  33
ENDBRANCH  27  31
ENDBRANCH  26  27
ENDBRANCH  25  26
ENDBRANCH  24  25
ENDBRANCH  22  24
ENDBRANCH   1  22
TORSDOF 12
ENDMDL
