MODEL 1
REMARK VINA RESULT:      -9.7      0.000      0.000
REMARK  Name = *****
REMARK                            x       y       z     vdW  Elec       q    Type
REMARK                         _______ _______ _______ _____ _____    ______ ____
ROOT
ATOM      1  O   LIG    1       24.812 -27.728   5.333  0.00  0.00    -0.186 OA
ENDROOT
BRANCH   1   2
ATOM      2  P   LIG    1       26.096 -26.832   5.562  0.00  0.00    +0.483 P 
ATOM      3  O   LIG    1       27.231 -27.071   4.624  0.00  0.00    -0.227 OA
BRANCH   2   4
ATOM      4  O   LIG    1       26.502 -27.101   7.089  0.00  0.00    -0.302 OA
ATOM      5  H   LIG    1       25.787 -26.884   7.716  0.00  0.00    +0.222 HD
ENDBRANCH   2   4
BRANCH   2   6
ATOM      6  O   LIG    1       25.599 -25.302   5.599  0.00  0.00    -0.284 OA
BRANCH   6   7
ATOM      7  C   LIG    1       25.768 -24.622   6.841  0.00  0.00    +0.206 C 
BRANCH   7   8
ATOM      8  C   LIG    1       24.840 -23.402   6.928  0.00  0.00    +0.178 C 
ATOM      9  C   LIG    1       24.572 -22.762   5.564  0.00  0.00    +0.178 C 
ATOM     10  C   LIG    1       25.740 -21.798   5.413  0.00  0.00    +0.195 C 
ATOM     11  C   LIG    1       25.959 -21.331   6.861  0.00  0.00    +0.253 C 
ATOM     12  O   LIG    1       25.488 -22.389   7.725  0.00  0.00    -0.346 OA
BRANCH  11  13
ATOM     13  N   LIG    1       27.334 -21.044   7.224  0.00  0.00    -0.285 N 
ATOM     14  C   LIG    1       28.142 -20.122   6.611  0.00  0.00    +0.167 A 
ATOM     15  N   LIG    1       27.842 -19.304   5.589  0.00  0.00    -0.216 NA
ATOM     16  C   LIG    1       28.895 -18.522   5.274  0.00  0.00    +0.225 A 
ATOM     17  N   LIG    1       30.128 -18.505   5.828  0.00  0.00    -0.219 NA
ATOM     18  C   LIG    1       30.387 -19.369   6.833  0.00  0.00    +0.147 A 
ATOM     19  C   LIG    1       29.353 -20.209   7.280  0.00  0.00    +0.147 A 
ATOM     20  N   LIG    1       29.289 -21.134   8.300  0.00  0.00    -0.231 NA
ATOM     21  C   LIG    1       28.058 -21.594   8.251  0.00  0.00    +0.203 A 
BRANCH  18  22
ATOM     22  N   LIG    1       31.660 -19.373   7.394  0.00  0.00    -0.341 N 
ATOM     23  H   LIG    1       31.734 -19.974   8.206  0.00  0.00    +0.144 HD
ATOM     24  H   LIG    1       32.046 -18.440   7.460  0.00  0.00    +0.144 HD
ENDBRANCH  18  22
ENDBRANCH  11  13
BRANCH  10  25
ATOM     25  O   LIG    1       25.430 -20.743   4.506  0.00  0.00    -0.385 OA
ATOM     26  H   LIG    1       25.234 -19.961   5.065  0.00  0.00    +0.210 HD
ENDBRANCH  10  25
BRANCH   9  27
ATOM     27  O   LIG    1       23.369 -21.975   5.578  0.00  0.00    -0.386 OA
ATOM     28  H   LIG    1       22.800 -22.305   6.296  0.00  0.00    +0.210 HD
ENDBRANCH   9  27
ENDBRANCH   7   8
ENDBRANCH   6   7
ENDBRANCH   2   6
ENDBRANCH   1   2
BRANCH   1  29
ATOM     29  P   LIG    1       24.316 -29.046   6.337  0.00  0.00    +0.483 P 
ATOM     30  O   LIG    1       25.491 -29.880   5.832  0.00  0.00    -0.227 OA
BRANCH  29  31
ATOM     31  O   LIG    1       23.103 -29.381   5.299  0.00  0.00    -0.302 OA
ATOM     32  H   LIG    1       22.739 -28.525   4.998  0.00  0.00    +0.222 HD
ENDBRANCH  29  31
BRANCH  29  33
ATOM     33  O   LIG    1       23.820 -30.365   7.342  0.00  0.00    -0.284 OA
BRANCH  33  34
ATOM     34  C   LIG    1       24.025 -30.127   8.731  0.00  0.00    +0.206 C 
BRANCH  34  38
ATOM     35  C   LIG    1       26.103 -29.549  11.242  0.00  0.00    +0.241 C 
ATOM     36  C   LIG    1       25.505 -30.966  11.399  0.00  0.00    +0.193 C 
ATOM     37  C   LIG    1       25.701 -31.558  10.020  0.00  0.00    +0.178 C 
ATOM     38  C   LIG    1       25.488 -30.347   9.123  0.00  0.00    +0.178 C 
ATOM     39  O   LIG    1       25.965 -29.204   9.841  0.00  0.00    -0.348 OA
BRANCH  35  44
ATOM     40  C   LIG    1       25.547 -26.381  13.226  0.00  0.00    +0.032 C 
ATOM     41  C   LIG    1       24.108 -26.481  13.644  0.00  0.00    +0.070 C 
ATOM     42  C   LIG    1       23.431 -27.734  13.164  0.00  0.00    -0.007 C 
ATOM     43  C   LIG    1       24.096 -28.638  12.429  0.00  0.00    +0.073 C 
ATOM     44  N   LIG    1       25.445 -28.521  12.087  0.00  0.00    -0.285 N 
ATOM     45  C   LIG    1       26.108 -27.349  12.484  0.00  0.00    +0.086 C 
BRANCH  40  49
ATOM     46  N   LIG    1       27.741 -25.440  13.609  0.00  0.00    -0.326 N 
ATOM     47  H   LIG    1       28.184 -26.297  13.332  0.00  0.00    +0.145 HD
ATOM     48  H   LIG    1       28.329 -24.661  13.871  0.00  0.00    +0.145 HD
ATOM     49  C   LIG    1       26.390 -25.229  13.654  0.00  0.00    +0.239 C 
ATOM     50  O   LIG    1       25.943 -24.157  14.004  0.00  0.00    -0.271 OA
ENDBRANCH  40  49
ENDBRANCH  35  44
BRANCH  37  51
ATOM     51  O   LIG    1       27.059 -32.026   9.919  0.00  0.00    -0.386 OA
ATOM     52  H   LIG    1       27.444 -31.653   9.105  0.00  0.00    +0.210 HD
ENDBRANCH  37  51
BRANCH  36  53
ATOM     53  O   LIG    1       26.153 -31.769  12.388  0.00  0.00    -0.385 OA
ATOM     54  H   LIG    1       25.977 -31.331  13.245  0.00  0.00    +0.210 HD
ENDBRANCH  36  53
ENDBRANCH  34  38
ENDBRANCH  33  34
ENDBRANCH  29  33
ENDBRANCH   1  29
TORSDOF 18
ENDMDL
MODEL 2
REMARK VINA RESULT:      -9.5      1.351      1.749
REMARK  Name = *****
REMARK                            x       y       z     vdW  Elec       q    Type
REMARK                         _______ _______ _______ _____ _____    ______ ____
ROOT
ATOM      1  O   LIG    1       23.910 -27.084   5.713  0.00  0.00    -0.186 OA
ENDROOT
BRANCH   1   2
ATOM      2  P   LIG    1       24.702 -25.715   5.667  0.00  0.00    +0.483 P 
ATOM      3  O   LIG    1       25.140 -25.264   4.315  0.00  0.00    -0.227 OA
BRANCH   2   4
ATOM      4  O   LIG    1       25.938 -25.935   6.664  0.00  0.00    -0.302 OA
ATOM      5  H   LIG    1       26.273 -26.852   6.657  0.00  0.00    +0.222 HD
ENDBRANCH   2   4
BRANCH   2   6
ATOM      6  O   LIG    1       23.810 -24.631   6.453  0.00  0.00    -0.284 OA
BRANCH   6   7
ATOM      7  C   LIG    1       24.531 -23.658   7.204  0.00  0.00    +0.206 C 
BRANCH   7   8
ATOM      8  C   LIG    1       24.044 -22.239   6.874  0.00  0.00    +0.178 C 
ATOM      9  C   LIG    1       24.130 -21.915   5.382  0.00  0.00    +0.178 C 
ATOM     10  C   LIG    1       25.555 -21.404   5.233  0.00  0.00    +0.195 C 
ATOM     11  C   LIG    1       25.774 -20.672   6.566  0.00  0.00    +0.253 C 
ATOM     12  O   LIG    1       24.905 -21.292   7.540  0.00  0.00    -0.346 OA
BRANCH  11  13
ATOM     13  N   LIG    1       27.126 -20.716   7.090  0.00  0.00    -0.285 N 
ATOM     14  C   LIG    1       28.181 -19.974   6.629  0.00  0.00    +0.167 A 
ATOM     15  N   LIG    1       28.189 -19.067   5.638  0.00  0.00    -0.216 NA
ATOM     16  C   LIG    1       29.417 -18.528   5.489  0.00  0.00    +0.225 A 
ATOM     17  N   LIG    1       30.550 -18.812   6.169  0.00  0.00    -0.219 NA
ATOM     18  C   LIG    1       30.495 -19.753   7.135  0.00  0.00    +0.147 A 
ATOM     19  C   LIG    1       29.258 -20.357   7.414  0.00  0.00    +0.147 A 
ATOM     20  N   LIG    1       28.875 -21.287   8.357  0.00  0.00    -0.231 NA
ATOM     21  C   LIG    1       27.587 -21.457   8.149  0.00  0.00    +0.203 A 
BRANCH  18  22
ATOM     22  N   LIG    1       31.662 -20.066   7.825  0.00  0.00    -0.341 N 
ATOM     23  H   LIG    1       32.355 -19.328   7.787  0.00  0.00    +0.144 HD
ATOM     24  H   LIG    1       31.968 -21.011   7.639  0.00  0.00    +0.144 HD
ENDBRANCH  18  22
ENDBRANCH  11  13
BRANCH  10  25
ATOM     25  O   LIG    1       25.692 -20.569   4.086  0.00  0.00    -0.385 OA
ATOM     26  H   LIG    1       25.692 -21.174   3.315  0.00  0.00    +0.210 HD
ENDBRANCH  10  25
BRANCH   9  27
ATOM     27  O   LIG    1       23.251 -20.835   5.025  0.00  0.00    -0.386 OA
ATOM     28  H   LIG    1       23.639 -20.368   4.263  0.00  0.00    +0.210 HD
ENDBRANCH   9  27
ENDBRANCH   7   8
ENDBRANCH   6   7
ENDBRANCH   2   6
ENDBRANCH   1   2
BRANCH   1  29
ATOM     29  P   LIG    1       24.533 -28.583   6.310  0.00  0.00    +0.483 P 
ATOM     30  O   LIG    1       25.637 -28.551   5.255  0.00  0.00    -0.227 OA
BRANCH  29  31
ATOM     31  O   LIG    1       23.305 -29.380   5.589  0.00  0.00    -0.302 OA
ATOM     32  H   LIG    1       23.615 -30.292   5.420  0.00  0.00    +0.222 HD
ENDBRANCH  29  31
BRANCH  29  33
ATOM     33  O   LIG    1       25.155 -30.084   6.907  0.00  0.00    -0.284 OA
BRANCH  33  34
ATOM     34  C   LIG    1       25.547 -30.031   8.275  0.00  0.00    +0.206 C 
BRANCH  34  38
ATOM     35  C   LIG    1       23.827 -30.612  11.042  0.00  0.00    +0.241 C 
ATOM     36  C   LIG    1       22.844 -30.489   9.855  0.00  0.00    +0.193 C 
ATOM     37  C   LIG    1       23.466 -31.404   8.822  0.00  0.00    +0.178 C 
ATOM     38  C   LIG    1       24.953 -31.197   9.069  0.00  0.00    +0.178 C 
ATOM     39  O   LIG    1       25.114 -30.948  10.470  0.00  0.00    -0.348 OA
BRANCH  35  44
ATOM     40  C   LIG    1       25.295 -27.545  12.693  0.00  0.00    +0.032 C 
ATOM     41  C   LIG    1       24.112 -26.914  13.368  0.00  0.00    +0.070 C 
ATOM     42  C   LIG    1       22.833 -27.678  13.172  0.00  0.00    -0.007 C 
ATOM     43  C   LIG    1       22.809 -28.806  12.447  0.00  0.00    +0.073 C 
ATOM     44  N   LIG    1       23.940 -29.376  11.860  0.00  0.00    -0.285 N 
ATOM     45  C   LIG    1       25.151 -28.677  11.986  0.00  0.00    +0.086 C 
BRANCH  40  49
ATOM     46  N   LIG    1       27.695 -27.799  12.552  0.00  0.00    -0.326 N 
ATOM     47  H   LIG    1       27.603 -28.767  12.299  0.00  0.00    +0.145 HD
ATOM     48  H   LIG    1       28.625 -27.408  12.608  0.00  0.00    +0.145 HD
ATOM     49  C   LIG    1       26.656 -26.952  12.820  0.00  0.00    +0.239 C 
ATOM     50  O   LIG    1       26.863 -25.794  13.120  0.00  0.00    -0.271 OA
ENDBRANCH  40  49
ENDBRANCH  35  44
BRANCH  37  51
ATOM     51  O   LIG    1       23.089 -32.758   9.134  0.00  0.00    -0.386 OA
ATOM     52  H   LIG    1       22.194 -32.908   8.779  0.00  0.00    +0.210 HD
ENDBRANCH  37  51
BRANCH  36  53
ATOM     53  O   LIG    1       21.509 -30.902  10.154  0.00  0.00    -0.385 OA
ATOM     54  H   LIG    1       21.014 -30.081  10.350  0.00  0.00    +0.210 HD
ENDBRANCH  36  53
ENDBRANCH  34  38
ENDBRANCH  33  34
ENDBRANCH  29  33
ENDBRANCH   1  29
TORSDOF 18
ENDMDL
MODEL 3
REMARK VINA RESULT:      -9.4      1.621      2.210
REMARK  Name = *****
REMARK                            x       y       z     vdW  Elec       q    Type
REMARK                         _______ _______ _______ _____ _____    ______ ____
ROOT
ATOM      1  O   LIG    1       24.006 -27.220   5.566  0.00  0.00    -0.186 OA
ENDROOT
BRANCH   1   2
ATOM      2  P   LIG    1       24.876 -25.900   5.541  0.00  0.00    +0.483 P 
ATOM      3  O   LIG    1       25.526 -25.574   4.239  0.00  0.00    -0.227 OA
BRANCH   2   4
ATOM      4  O   LIG    1       25.945 -26.105   6.719  0.00  0.00    -0.302 OA
ATOM      5  H   LIG    1       25.561 -25.973   7.607  0.00  0.00    +0.222 HD
ENDBRANCH   2   4
BRANCH   2   6
ATOM      6  O   LIG    1       23.950 -24.717   6.116  0.00  0.00    -0.284 OA
BRANCH   6   7
ATOM      7  C   LIG    1       24.595 -23.781   6.976  0.00  0.00    +0.206 C 
BRANCH   7   8
ATOM      8  C   LIG    1       24.072 -22.359   6.730  0.00  0.00    +0.178 C 
ATOM      9  C   LIG    1       24.164 -21.939   5.262  0.00  0.00    +0.178 C 
ATOM     10  C   LIG    1       25.577 -21.381   5.162  0.00  0.00    +0.195 C 
ATOM     11  C   LIG    1       25.761 -20.728   6.542  0.00  0.00    +0.253 C 
ATOM     12  O   LIG    1       24.899 -21.432   7.464  0.00  0.00    -0.346 OA
BRANCH  11  13
ATOM     13  N   LIG    1       27.108 -20.769   7.078  0.00  0.00    -0.285 N 
ATOM     14  C   LIG    1       28.165 -20.022   6.628  0.00  0.00    +0.167 A 
ATOM     15  N   LIG    1       28.179 -19.113   5.639  0.00  0.00    -0.216 NA
ATOM     16  C   LIG    1       29.406 -18.571   5.502  0.00  0.00    +0.225 A 
ATOM     17  N   LIG    1       30.534 -18.851   6.192  0.00  0.00    -0.219 NA
ATOM     18  C   LIG    1       30.473 -19.794   7.157  0.00  0.00    +0.147 A 
ATOM     19  C   LIG    1       29.236 -20.403   7.422  0.00  0.00    +0.147 A 
ATOM     20  N   LIG    1       28.847 -21.335   8.361  0.00  0.00    -0.231 NA
ATOM     21  C   LIG    1       27.562 -21.510   8.140  0.00  0.00    +0.203 A 
BRANCH  18  22
ATOM     22  N   LIG    1       31.634 -20.104   7.857  0.00  0.00    -0.341 N 
ATOM     23  H   LIG    1       31.592 -19.837   8.833  0.00  0.00    +0.144 HD
ATOM     24  H   LIG    1       32.466 -19.858   7.336  0.00  0.00    +0.144 HD
ENDBRANCH  18  22
ENDBRANCH  11  13
BRANCH  10  25
ATOM     25  O   LIG    1       25.702 -20.472   4.072  0.00  0.00    -0.385 OA
ATOM     26  H   LIG    1       26.655 -20.463   3.842  0.00  0.00    +0.210 HD
ENDBRANCH  10  25
BRANCH   9  27
ATOM     27  O   LIG    1       23.259 -20.863   4.963  0.00  0.00    -0.386 OA
ATOM     28  H   LIG    1       23.698 -20.025   5.193  0.00  0.00    +0.210 HD
ENDBRANCH   9  27
ENDBRANCH   7   8
ENDBRANCH   6   7
ENDBRANCH   2   6
ENDBRANCH   1   2
BRANCH   1  29
ATOM     29  P   LIG    1       24.379 -28.652   6.462  0.00  0.00    +0.483 P 
ATOM     30  O   LIG    1       25.659 -28.834   5.650  0.00  0.00    -0.227 OA
BRANCH  29  31
ATOM     31  O   LIG    1       23.245 -29.473   5.624  0.00  0.00    -0.302 OA
ATOM     32  H   LIG    1       22.394 -29.013   5.767  0.00  0.00    +0.222 HD
ENDBRANCH  29  31
BRANCH  29  33
ATOM     33  O   LIG    1       24.752 -30.085   7.359  0.00  0.00    -0.284 OA
BRANCH  33  34
ATOM     34  C   LIG    1       24.267 -30.057   8.697  0.00  0.00    +0.206 C 
BRANCH  34  38
ATOM     35  C   LIG    1       25.100 -29.876  11.896  0.00  0.00    +0.241 C 
ATOM     36  C   LIG    1       24.171 -31.093  11.687  0.00  0.00    +0.193 C 
ATOM     37  C   LIG    1       24.804 -31.785  10.499  0.00  0.00    +0.178 C 
ATOM     38  C   LIG    1       25.308 -30.607   9.677  0.00  0.00    +0.178 C 
ATOM     39  O   LIG    1       25.680 -29.580  10.602  0.00  0.00    -0.348 OA
BRANCH  35  44
ATOM     40  C   LIG    1       22.337 -27.534  12.978  0.00  0.00    +0.032 C 
ATOM     41  C   LIG    1       23.080 -26.373  13.574  0.00  0.00    +0.070 C 
ATOM     42  C   LIG    1       24.574 -26.531  13.528  0.00  0.00    -0.007 C 
ATOM     43  C   LIG    1       25.134 -27.629  13.002  0.00  0.00    +0.073 C 
ATOM     44  N   LIG    1       24.407 -28.675  12.430  0.00  0.00    -0.285 N 
ATOM     45  C   LIG    1       23.007 -28.587  12.483  0.00  0.00    +0.086 C 
BRANCH  40  49
ATOM     46  N   LIG    1       20.259 -28.760  12.834  0.00  0.00    -0.326 N 
ATOM     47  H   LIG    1       20.748 -29.637  12.829  0.00  0.00    +0.145 HD
ATOM     48  H   LIG    1       19.249 -28.778  12.801  0.00  0.00    +0.145 HD
ATOM     49  C   LIG    1       20.849 -27.529  12.892  0.00  0.00    +0.239 C 
ATOM     50  O   LIG    1       20.176 -26.519  12.892  0.00  0.00    -0.271 OA
ENDBRANCH  40  49
ENDBRANCH  35  44
BRANCH  37  51
ATOM     51  O   LIG    1       25.910 -32.575  10.974  0.00  0.00    -0.386 OA
ATOM     52  H   LIG    1       26.561 -32.642  10.253  0.00  0.00    +0.210 HD
ENDBRANCH  37  51
BRANCH  36  53
ATOM     53  O   LIG    1       24.102 -31.978  12.806  0.00  0.00    -0.385 OA
ATOM     54  H   LIG    1       24.592 -32.782  12.542  0.00  0.00    +0.210 HD
ENDBRANCH  36  53
ENDBRANCH  34  38
ENDBRANCH  33  34
ENDBRANCH  29  33
ENDBRANCH   1  29
TORSDOF 18
ENDMDL
MODEL 4
REMARK VINA RESULT:      -9.2      1.898      9.464
REMARK  Name = *****
REMARK                            x       y       z     vdW  Elec       q    Type
REMARK                         _______ _______ _______ _____ _____    ______ ____
ROOT
ATOM      1  O   LIG    1       25.760 -28.938   5.370  0.00  0.00    -0.186 OA
ENDROOT
BRANCH   1   2
ATOM      2  P   LIG    1       24.679 -29.948   5.930  0.00  0.00    +0.483 P 
ATOM      3  O   LIG    1       24.859 -31.376   5.536  0.00  0.00    -0.227 OA
BRANCH   2   4
ATOM      4  O   LIG    1       23.278 -29.352   5.429  0.00  0.00    -0.302 OA
ATOM      5  H   LIG    1       22.603 -30.041   5.281  0.00  0.00    +0.222 HD
ENDBRANCH   2   4
BRANCH   2   6
ATOM      6  O   LIG    1       24.605 -29.721   7.521  0.00  0.00    -0.284 OA
BRANCH   6   7
ATOM      7  C   LIG    1       25.420 -30.582   8.312  0.00  0.00    +0.206 C 
BRANCH   7   8
ATOM      8  C   LIG    1       26.304 -29.770   9.270  0.00  0.00    +0.178 C 
ATOM      9  C   LIG    1       27.007 -30.643  10.312  0.00  0.00    +0.178 C 
ATOM     10  C   LIG    1       25.973 -30.733  11.425  0.00  0.00    +0.195 C 
ATOM     11  C   LIG    1       25.318 -29.343  11.366  0.00  0.00    +0.253 C 
ATOM     12  O   LIG    1       25.464 -28.861  10.011  0.00  0.00    -0.346 OA
BRANCH  11  13
ATOM     13  N   LIG    1       23.907 -29.302  11.699  0.00  0.00    -0.285 N 
ATOM     14  C   LIG    1       23.306 -28.364  12.497  0.00  0.00    +0.167 A 
ATOM     15  N   LIG    1       23.871 -27.310  13.110  0.00  0.00    -0.216 NA
ATOM     16  C   LIG    1       22.949 -26.602  13.795  0.00  0.00    +0.225 A 
ATOM     17  N   LIG    1       21.628 -26.848  13.932  0.00  0.00    -0.219 NA
ATOM     18  C   LIG    1       21.116 -27.938  13.320  0.00  0.00    +0.147 A 
ATOM     19  C   LIG    1       21.971 -28.733  12.540  0.00  0.00    +0.147 A 
ATOM     20  N   LIG    1       21.742 -29.849  11.763  0.00  0.00    -0.231 NA
ATOM     21  C   LIG    1       22.919 -30.145  11.256  0.00  0.00    +0.203 A 
BRANCH  18  22
ATOM     22  N   LIG    1       19.760 -28.210  13.474  0.00  0.00    -0.341 N 
ATOM     23  H   LIG    1       19.240 -28.137  12.607  0.00  0.00    +0.144 HD
ATOM     24  H   LIG    1       19.376 -27.761  14.294  0.00  0.00    +0.144 HD
ENDBRANCH  18  22
ENDBRANCH  11  13
BRANCH  10  25
ATOM     25  O   LIG    1       26.581 -31.032  12.678  0.00  0.00    -0.385 OA
ATOM     26  H   LIG    1       25.924 -31.565  13.172  0.00  0.00    +0.210 HD
ENDBRANCH  10  25
BRANCH   9  27
ATOM     27  O   LIG    1       28.164 -29.987  10.857  0.00  0.00    -0.386 OA
ATOM     28  H   LIG    1       28.953 -30.487  10.583  0.00  0.00    +0.210 HD
ENDBRANCH   9  27
ENDBRANCH   7   8
ENDBRANCH   6   7
ENDBRANCH   2   6
ENDBRANCH   1   2
BRANCH   1  29
ATOM     29  P   LIG    1       25.608 -27.215   5.351  0.00  0.00    +0.483 P 
ATOM     30  O   LIG    1       26.943 -27.099   4.618  0.00  0.00    -0.227 OA
BRANCH  29  31
ATOM     31  O   LIG    1       26.006 -27.162   6.933  0.00  0.00    -0.302 OA
ATOM     32  H   LIG    1       25.719 -26.291   7.271  0.00  0.00    +0.222 HD
ENDBRANCH  29  31
BRANCH  29  33
ATOM     33  O   LIG    1       25.456 -25.491   5.333  0.00  0.00    -0.284 OA
BRANCH  33  34
ATOM     34  C   LIG    1       26.052 -24.857   6.460  0.00  0.00    +0.206 C 
BRANCH  34  38
ATOM     35  C   LIG    1       25.665 -21.645   7.159  0.00  0.00    +0.241 C 
ATOM     36  C   LIG    1       24.937 -21.963   5.833  0.00  0.00    +0.193 C 
ATOM     37  C   LIG    1       24.133 -23.195   6.190  0.00  0.00    +0.178 C 
ATOM     38  C   LIG    1       25.066 -23.914   7.154  0.00  0.00    +0.178 C 
ATOM     39  O   LIG    1       25.793 -22.905   7.863  0.00  0.00    -0.348 OA
BRANCH  35  44
ATOM     40  C   LIG    1       29.338 -20.881   7.616  0.00  0.00    +0.032 C 
ATOM     41  C   LIG    1       29.621 -19.879   6.534  0.00  0.00    +0.070 C 
ATOM     42  C   LIG    1       28.417 -19.542   5.700  0.00  0.00    -0.007 C 
ATOM     43  C   LIG    1       27.230 -20.118   5.940  0.00  0.00    +0.073 C 
ATOM     44  N   LIG    1       27.002 -21.024   6.977  0.00  0.00    -0.285 N 
ATOM     45  C   LIG    1       28.107 -21.396   7.760  0.00  0.00    +0.086 C 
BRANCH  40  49
ATOM     46  N   LIG    1       31.653 -20.812   8.309  0.00  0.00    -0.326 N 
ATOM     47  H   LIG    1       31.894 -20.226   7.529  0.00  0.00    +0.145 HD
ATOM     48  H   LIG    1       32.383 -21.063   8.961  0.00  0.00    +0.145 HD
ATOM     49  C   LIG    1       30.402 -21.298   8.572  0.00  0.00    +0.239 C 
ATOM     50  O   LIG    1       30.203 -22.002   9.540  0.00  0.00    -0.271 OA
ENDBRANCH  40  49
ENDBRANCH  35  44
BRANCH  37  51
ATOM     51  O   LIG    1       22.937 -22.772   6.869  0.00  0.00    -0.386 OA
ATOM     52  H   LIG    1       22.207 -23.346   6.573  0.00  0.00    +0.210 HD
ENDBRANCH  37  51
BRANCH  36  53
ATOM     53  O   LIG    1       24.078 -20.919   5.370  0.00  0.00    -0.385 OA
ATOM     54  H   LIG    1       24.615 -20.101   5.393  0.00  0.00    +0.210 HD
ENDBRANCH  36  53
ENDBRANCH  34  38
ENDBRANCH  33  34
ENDBRANCH  29  33
ENDBRANCH   1  29
TORSDOF 18
ENDMDL
MODEL 5
REMARK VINA RESULT:      -9.1      1.763      9.009
REMARK  Name = *****
REMARK                            x       y       z     vdW  Elec       q    Type
REMARK                         _______ _______ _______ _____ _____    ______ ____
ROOT
ATOM      1  O   LIG    1       24.982 -28.400   6.948  0.00  0.00    -0.186 OA
ENDROOT
BRANCH   1   2
ATOM      2  P   LIG    1       24.575 -29.686   6.121  0.00  0.00    +0.483 P 
ATOM      3  O   LIG    1       25.595 -30.188   5.156  0.00  0.00    -0.227 OA
BRANCH   2   4
ATOM      4  O   LIG    1       23.204 -29.277   5.397  0.00  0.00    -0.302 OA
ATOM      5  H   LIG    1       22.971 -29.873   4.660  0.00  0.00    +0.222 HD
ENDBRANCH   2   4
BRANCH   2   6
ATOM      6  O   LIG    1       24.090 -30.793   7.183  0.00  0.00    -0.284 OA
BRANCH   6   7
ATOM      7  C   LIG    1       25.076 -31.239   8.112  0.00  0.00    +0.206 C 
BRANCH   7   8
ATOM      8  C   LIG    1       24.418 -31.856   9.355  0.00  0.00    +0.178 C 
ATOM      9  C   LIG    1       23.013 -31.309   9.616  0.00  0.00    +0.178 C 
ATOM     10  C   LIG    1       23.288 -30.063  10.444  0.00  0.00    +0.195 C 
ATOM     11  C   LIG    1       24.510 -30.493  11.273  0.00  0.00    +0.253 C 
ATOM     12  O   LIG    1       25.205 -31.506  10.512  0.00  0.00    -0.346 OA
BRANCH  11  13
ATOM     13  N   LIG    1       25.460 -29.441  11.578  0.00  0.00    -0.285 N 
ATOM     14  C   LIG    1       25.207 -28.344  12.360  0.00  0.00    +0.167 A 
ATOM     15  N   LIG    1       24.070 -28.025  13.001  0.00  0.00    -0.216 NA
ATOM     16  C   LIG    1       24.213 -26.873  13.688  0.00  0.00    +0.225 A 
ATOM     17  N   LIG    1       25.293 -26.065  13.764  0.00  0.00    -0.219 NA
ATOM     18  C   LIG    1       26.402 -26.416  13.077  0.00  0.00    +0.147 A 
ATOM     19  C   LIG    1       26.390 -27.621  12.355  0.00  0.00    +0.147 A 
ATOM     20  N   LIG    1       27.360 -28.267  11.619  0.00  0.00    -0.231 NA
ATOM     21  C   LIG    1       26.774 -29.364  11.192  0.00  0.00    +0.203 A 
BRANCH  18  22
ATOM     22  N   LIG    1       27.511 -25.579  13.134  0.00  0.00    -0.341 N 
ATOM     23  H   LIG    1       27.429 -24.771  12.528  0.00  0.00    +0.144 HD
ATOM     24  H   LIG    1       28.378 -26.099  13.112  0.00  0.00    +0.144 HD
ENDBRANCH  18  22
ENDBRANCH  11  13
BRANCH  10  25
ATOM     25  O   LIG    1       22.157 -29.699  11.229  0.00  0.00    -0.385 OA
ATOM     26  H   LIG    1       21.989 -28.753  11.032  0.00  0.00    +0.210 HD
ENDBRANCH  10  25
BRANCH   9  27
ATOM     27  O   LIG    1       22.242 -32.204  10.435  0.00  0.00    -0.386 OA
ATOM     28  H   LIG    1       21.550 -31.684  10.882  0.00  0.00    +0.210 HD
ENDBRANCH   9  27
ENDBRANCH   7   8
ENDBRANCH   6   7
ENDBRANCH   2   6
ENDBRANCH   1   2
BRANCH   1  29
ATOM     29  P   LIG    1       25.263 -26.828   6.285  0.00  0.00    +0.483 P 
ATOM     30  O   LIG    1       23.758 -26.609   6.150  0.00  0.00    -0.227 OA
BRANCH  29  31
ATOM     31  O   LIG    1       25.706 -27.504   4.867  0.00  0.00    -0.302 OA
ATOM     32  H   LIG    1       26.571 -27.118   4.624  0.00  0.00    +0.222 HD
ENDBRANCH  29  31
BRANCH  29  33
ATOM     33  O   LIG    1       25.545 -25.254   5.622  0.00  0.00    -0.284 OA
BRANCH  33  34
ATOM     34  C   LIG    1       26.298 -24.404   6.481  0.00  0.00    +0.206 C 
BRANCH  34  38
ATOM     35  C   LIG    1       26.053 -21.211   7.320  0.00  0.00    +0.241 C 
ATOM     36  C   LIG    1       25.236 -21.457   6.030  0.00  0.00    +0.193 C 
ATOM     37  C   LIG    1       24.419 -22.678   6.391  0.00  0.00    +0.178 C 
ATOM     38  C   LIG    1       25.386 -23.460   7.268  0.00  0.00    +0.178 C 
ATOM     39  O   LIG    1       26.185 -22.500   7.968  0.00  0.00    -0.348 OA
BRANCH  35  44
ATOM     40  C   LIG    1       29.725 -20.410   7.722  0.00  0.00    +0.032 C 
ATOM     41  C   LIG    1       30.025 -19.550   6.529  0.00  0.00    +0.070 C 
ATOM     42  C   LIG    1       28.832 -19.313   5.646  0.00  0.00    -0.007 C 
ATOM     43  C   LIG    1       27.640 -19.851   5.941  0.00  0.00    +0.073 C 
ATOM     44  N   LIG    1       27.395 -20.622   7.079  0.00  0.00    -0.285 N 
ATOM     45  C   LIG    1       28.489 -20.899   7.914  0.00  0.00    +0.086 C 
BRANCH  40  49
ATOM     46  N   LIG    1       31.550 -21.807   8.473  0.00  0.00    -0.326 N 
ATOM     47  H   LIG    1       31.446 -22.411   7.677  0.00  0.00    +0.145 HD
ATOM     48  H   LIG    1       32.285 -22.011   9.135  0.00  0.00    +0.145 HD
ATOM     49  C   LIG    1       30.776 -20.710   8.735  0.00  0.00    +0.239 C 
ATOM     50  O   LIG    1       30.973 -20.036   9.724  0.00  0.00    -0.271 OA
ENDBRANCH  40  49
ENDBRANCH  35  44
BRANCH  37  51
ATOM     51  O   LIG    1       23.279 -22.248   7.158  0.00  0.00    -0.386 OA
ATOM     52  H   LIG    1       23.247 -21.275   7.125  0.00  0.00    +0.210 HD
ENDBRANCH  37  51
BRANCH  36  53
ATOM     53  O   LIG    1       24.384 -20.372   5.661  0.00  0.00    -0.385 OA
ATOM     54  H   LIG    1       24.159 -20.517   4.720  0.00  0.00    +0.210 HD
ENDBRANCH  36  53
ENDBRANCH  34  38
ENDBRANCH  33  34
ENDBRANCH  29  33
ENDBRANCH   1  29
TORSDOF 18
ENDMDL
MODEL 6
REMARK VINA RESULT:      -9.1      1.526      9.226
REMARK  Name = *****
REMARK                            x       y       z     vdW  Elec       q    Type
REMARK                         _______ _______ _______ _____ _____    ______ ____
ROOT
ATOM      1  O   LIG    1       24.878 -28.155   6.917  0.00  0.00    -0.186 OA
ENDROOT
BRANCH   1   2
ATOM      2  P   LIG    1       24.569 -29.453   6.067  0.00  0.00    +0.483 P 
ATOM      3  O   LIG    1       25.706 -29.992   5.267  0.00  0.00    -0.227 OA
BRANCH   2   4
ATOM      4  O   LIG    1       23.321 -29.041   5.149  0.00  0.00    -0.302 OA
ATOM      5  H   LIG    1       22.713 -28.419   5.592  0.00  0.00    +0.222 HD
ENDBRANCH   2   4
BRANCH   2   6
ATOM      6  O   LIG    1       23.920 -30.529   7.073  0.00  0.00    -0.284 OA
BRANCH   6   7
ATOM      7  C   LIG    1       24.068 -30.250   8.464  0.00  0.00    +0.206 C 
BRANCH   7   8
ATOM      8  C   LIG    1       25.523 -30.455   8.911  0.00  0.00    +0.178 C 
ATOM      9  C   LIG    1       25.735 -31.774   9.655  0.00  0.00    +0.178 C 
ATOM     10  C   LIG    1       25.399 -31.406  11.092  0.00  0.00    +0.195 C 
ATOM     11  C   LIG    1       25.914 -29.960  11.180  0.00  0.00    +0.253 C 
ATOM     12  O   LIG    1       25.867 -29.410   9.844  0.00  0.00    -0.346 OA
BRANCH  11  13
ATOM     13  N   LIG    1       25.156 -29.078  12.047  0.00  0.00    -0.285 N 
ATOM     14  C   LIG    1       25.595 -27.875  12.536  0.00  0.00    +0.167 A 
ATOM     15  N   LIG    1       26.774 -27.269  12.317  0.00  0.00    -0.216 NA
ATOM     16  C   LIG    1       26.831 -26.084  12.957  0.00  0.00    +0.225 A 
ATOM     17  N   LIG    1       25.902 -25.510  13.754  0.00  0.00    -0.219 NA
ATOM     18  C   LIG    1       24.746 -26.175  13.967  0.00  0.00    +0.147 A 
ATOM     19  C   LIG    1       24.551 -27.405  13.318  0.00  0.00    +0.147 A 
ATOM     20  N   LIG    1       23.481 -28.274  13.287  0.00  0.00    -0.231 NA
ATOM     21  C   LIG    1       23.871 -29.249  12.496  0.00  0.00    +0.203 A 
BRANCH  18  22
ATOM     22  N   LIG    1       23.794 -25.601  14.803  0.00  0.00    -0.341 N 
ATOM     23  H   LIG    1       23.656 -24.612  14.626  0.00  0.00    +0.144 HD
ATOM     24  H   LIG    1       23.907 -25.898  15.763  0.00  0.00    +0.144 HD
ENDBRANCH  18  22
ENDBRANCH  11  13
BRANCH  10  25
ATOM     25  O   LIG    1       26.018 -32.296  12.016  0.00  0.00    -0.385 OA
ATOM     26  H   LIG    1       25.454 -32.281  12.818  0.00  0.00    +0.210 HD
ENDBRANCH  10  25
BRANCH   9  27
ATOM     27  O   LIG    1       27.114 -32.179   9.629  0.00  0.00    -0.386 OA
ATOM     28  H   LIG    1       27.348 -32.512  10.515  0.00  0.00    +0.210 HD
ENDBRANCH   9  27
ENDBRANCH   7   8
ENDBRANCH   6   7
ENDBRANCH   2   6
ENDBRANCH   1   2
BRANCH   1  29
ATOM     29  P   LIG    1       25.226 -26.591   6.268  0.00  0.00    +0.483 P 
ATOM     30  O   LIG    1       23.732 -26.306   6.137  0.00  0.00    -0.227 OA
BRANCH  29  31
ATOM     31  O   LIG    1       25.638 -27.272   4.844  0.00  0.00    -0.302 OA
ATOM     32  H   LIG    1       26.296 -27.968   5.039  0.00  0.00    +0.222 HD
ENDBRANCH  29  31
BRANCH  29  33
ATOM     33  O   LIG    1       25.575 -25.024   5.619  0.00  0.00    -0.284 OA
BRANCH  33  34
ATOM     34  C   LIG    1       26.268 -24.176   6.528  0.00  0.00    +0.206 C 
BRANCH  34  38
ATOM     35  C   LIG    1       26.070 -20.916   7.069  0.00  0.00    +0.241 C 
ATOM     36  C   LIG    1       25.356 -21.250   5.739  0.00  0.00    +0.193 C 
ATOM     37  C   LIG    1       24.467 -22.411   6.129  0.00  0.00    +0.178 C 
ATOM     38  C   LIG    1       25.328 -23.140   7.151  0.00  0.00    +0.178 C 
ATOM     39  O   LIG    1       26.100 -22.146   7.834  0.00  0.00    -0.348 OA
BRANCH  35  44
ATOM     40  C   LIG    1       29.749 -20.283   7.658  0.00  0.00    +0.032 C 
ATOM     41  C   LIG    1       30.149 -19.440   6.482  0.00  0.00    +0.070 C 
ATOM     42  C   LIG    1       29.014 -19.150   5.540  0.00  0.00    -0.007 C 
ATOM     43  C   LIG    1       27.785 -19.632   5.774  0.00  0.00    +0.073 C 
ATOM     44  N   LIG    1       27.448 -20.389   6.897  0.00  0.00    -0.285 N 
ATOM     45  C   LIG    1       28.485 -20.715   7.786  0.00  0.00    +0.086 C 
BRANCH  40  49
ATOM     46  N   LIG    1       31.551 -21.690   8.445  0.00  0.00    -0.326 N 
ATOM     47  H   LIG    1       31.520 -22.241   7.606  0.00  0.00    +0.145 HD
ATOM     48  H   LIG    1       32.242 -21.924   9.144  0.00  0.00    +0.145 HD
ATOM     49  C   LIG    1       30.733 -20.630   8.722  0.00  0.00    +0.239 C 
ATOM     50  O   LIG    1       30.842 -20.021   9.766  0.00  0.00    -0.271 OA
ENDBRANCH  40  49
ENDBRANCH  35  44
BRANCH  37  51
ATOM     51  O   LIG    1       23.283 -21.882   6.755  0.00  0.00    -0.386 OA
ATOM     52  H   LIG    1       23.336 -20.910   6.720  0.00  0.00    +0.210 HD
ENDBRANCH  37  51
BRANCH  36  53
ATOM     53  O   LIG    1       24.578 -20.177   5.206  0.00  0.00    -0.385 OA
ATOM     54  H   LIG    1       23.853 -20.598   4.701  0.00  0.00    +0.210 HD
ENDBRANCH  36  53
ENDBRANCH  34  38
ENDBRANCH  33  34
ENDBRANCH  29  33
ENDBRANCH   1  29
TORSDOF 18
ENDMDL
MODEL 7
REMARK VINA RESULT:      -9.0      2.240      3.160
REMARK  Name = *****
REMARK                            x       y       z     vdW  Elec       q    Type
REMARK                         _______ _______ _______ _____ _____    ______ ____
ROOT
ATOM      1  O   LIG    1       25.415 -25.642   4.964  0.00  0.00    -0.186 OA
ENDROOT
BRANCH   1   2
ATOM      2  P   LIG    1       24.986 -24.750   6.197  0.00  0.00    +0.483 P 
ATOM      3  O   LIG    1       26.000 -24.606   7.281  0.00  0.00    -0.227 OA
BRANCH   2   4
ATOM      4  O   LIG    1       23.628 -25.422   6.722  0.00  0.00    -0.302 OA
ATOM      5  H   LIG    1       23.727 -25.847   7.595  0.00  0.00    +0.222 HD
ENDBRANCH   2   4
BRANCH   2   6
ATOM      6  O   LIG    1       24.471 -23.346   5.603  0.00  0.00    -0.284 OA
BRANCH   6   7
ATOM      7  C   LIG    1       23.542 -22.629   6.414  0.00  0.00    +0.206 C 
BRANCH   7   8
ATOM      8  C   LIG    1       23.517 -21.142   6.033  0.00  0.00    +0.178 C 
ATOM      9  C   LIG    1       23.933 -20.894   4.582  0.00  0.00    +0.178 C 
ATOM     10  C   LIG    1       25.448 -20.789   4.683  0.00  0.00    +0.195 C 
ATOM     11  C   LIG    1       25.631 -20.105   6.048  0.00  0.00    +0.253 C 
ATOM     12  O   LIG    1       24.478 -20.442   6.850  0.00  0.00    -0.346 OA
BRANCH  11  13
ATOM     13  N   LIG    1       26.814 -20.496   6.790  0.00  0.00    -0.285 N 
ATOM     14  C   LIG    1       28.079 -20.010   6.583  0.00  0.00    +0.167 A 
ATOM     15  N   LIG    1       28.479 -19.088   5.690  0.00  0.00    -0.216 NA
ATOM     16  C   LIG    1       29.802 -18.855   5.802  0.00  0.00    +0.225 A 
ATOM     17  N   LIG    1       30.693 -19.432   6.638  0.00  0.00    -0.219 NA
ATOM     18  C   LIG    1       30.245 -20.374   7.495  0.00  0.00    +0.147 A 
ATOM     19  C   LIG    1       28.873 -20.675   7.504  0.00  0.00    +0.147 A 
ATOM     20  N   LIG    1       28.118 -21.526   8.283  0.00  0.00    -0.231 NA
ATOM     21  C   LIG    1       26.888 -21.372   7.843  0.00  0.00    +0.203 A 
BRANCH  18  22
ATOM     22  N   LIG    1       31.159 -20.988   8.345  0.00  0.00    -0.341 N 
ATOM     23  H   LIG    1       32.039 -20.490   8.407  0.00  0.00    +0.144 HD
ATOM     24  H   LIG    1       31.192 -21.989   8.204  0.00  0.00    +0.144 HD
ENDBRANCH  18  22
ENDBRANCH  11  13
BRANCH  10  25
ATOM     25  O   LIG    1       25.993 -20.053   3.591  0.00  0.00    -0.385 OA
ATOM     26  H   LIG    1       25.625 -19.147   3.671  0.00  0.00    +0.210 HD
ENDBRANCH  10  25
BRANCH   9  27
ATOM     27  O   LIG    1       23.449 -19.628   4.103  0.00  0.00    -0.386 OA
ATOM     28  H   LIG    1       23.055 -19.150   4.855  0.00  0.00    +0.210 HD
ENDBRANCH   9  27
ENDBRANCH   7   8
ENDBRANCH   6   7
ENDBRANCH   2   6
ENDBRANCH   1   2
BRANCH   1  29
ATOM     29  P   LIG    1       25.685 -27.350   5.007  0.00  0.00    +0.483 P 
ATOM     30  O   LIG    1       24.190 -27.587   5.209  0.00  0.00    -0.227 OA
BRANCH  29  31
ATOM     31  O   LIG    1       26.286 -27.219   6.518  0.00  0.00    -0.302 OA
ATOM     32  H   LIG    1       26.307 -26.266   6.735  0.00  0.00    +0.222 HD
ENDBRANCH  29  31
BRANCH  29  33
ATOM     33  O   LIG    1       25.955 -29.059   5.049  0.00  0.00    -0.284 OA
BRANCH  33  34
ATOM     34  C   LIG    1       24.849 -29.795   5.563  0.00  0.00    +0.206 C 
BRANCH  34  38
ATOM     35  C   LIG    1       25.107 -31.866   8.132  0.00  0.00    +0.241 C 
ATOM     36  C   LIG    1       23.712 -32.035   7.488  0.00  0.00    +0.193 C 
ATOM     37  C   LIG    1       24.048 -32.176   6.019  0.00  0.00    +0.178 C 
ATOM     38  C   LIG    1       25.241 -31.242   5.875  0.00  0.00    +0.178 C 
ATOM     39  O   LIG    1       25.957 -31.284   7.113  0.00  0.00    -0.348 OA
BRANCH  35  44
ATOM     40  C   LIG    1       26.329 -29.613  10.910  0.00  0.00    +0.032 C 
ATOM     41  C   LIG    1       25.071 -29.262  11.651  0.00  0.00    +0.070 C 
ATOM     42  C   LIG    1       23.838 -29.896  11.071  0.00  0.00    -0.007 C 
ATOM     43  C   LIG    1       23.913 -30.685   9.989  0.00  0.00    +0.073 C 
ATOM     44  N   LIG    1       25.109 -31.011   9.347  0.00  0.00    -0.285 N 
ATOM     45  C   LIG    1       26.283 -30.412   9.832  0.00  0.00    +0.086 C 
BRANCH  40  49
ATOM     46  N   LIG    1       27.641 -27.898  11.998  0.00  0.00    -0.326 N 
ATOM     47  H   LIG    1       26.824 -27.333  12.147  0.00  0.00    +0.145 HD
ATOM     48  H   LIG    1       28.527 -27.555  12.342  0.00  0.00    +0.145 HD
ATOM     49  C   LIG    1       27.655 -29.113  11.372  0.00  0.00    +0.239 C 
ATOM     50  O   LIG    1       28.693 -29.727  11.236  0.00  0.00    -0.271 OA
ENDBRANCH  40  49
ENDBRANCH  35  44
BRANCH  37  51
ATOM     51  O   LIG    1       24.443 -33.539   5.775  0.00  0.00    -0.386 OA
ATOM     52  H   LIG    1       25.021 -33.818   6.508  0.00  0.00    +0.210 HD
ENDBRANCH  37  51
BRANCH  36  53
ATOM     53  O   LIG    1       22.988 -33.177   7.950  0.00  0.00    -0.385 OA
ATOM     54  H   LIG    1       22.125 -33.150   7.489  0.00  0.00    +0.210 HD
ENDBRANCH  36  53
ENDBRANCH  34  38
ENDBRANCH  33  34
ENDBRANCH  29  33
ENDBRANCH   1  29
TORSDOF 18
ENDMDL
MODEL 8
REMARK VINA RESULT:      -8.7      2.088      3.231
REMARK  Name = *****
REMARK                            x       y       z     vdW  Elec       q    Type
REMARK                         _______ _______ _______ _____ _____    ______ ____
ROOT
ATOM      1  O   LIG    1       25.409 -26.024   6.777  0.00  0.00    -0.186 OA
ENDROOT
BRANCH   1   2
ATOM      2  P   LIG    1       24.364 -25.037   6.117  0.00  0.00    +0.483 P 
ATOM      3  O   LIG    1       23.074 -24.872   6.848  0.00  0.00    -0.227 OA
BRANCH   2   4
ATOM      4  O   LIG    1       24.154 -25.611   4.635  0.00  0.00    -0.302 OA
ATOM      5  H   LIG    1       24.261 -24.930   3.945  0.00  0.00    +0.222 HD
ENDBRANCH   2   4
BRANCH   2   6
ATOM      6  O   LIG    1       25.135 -23.651   5.846  0.00  0.00    -0.284 OA
BRANCH   6   7
ATOM      7  C   LIG    1       24.761 -22.951   4.661  0.00  0.00    +0.206 C 
BRANCH   7   8
ATOM      8  C   LIG    1       24.234 -21.549   4.996  0.00  0.00    +0.178 C 
ATOM      9  C   LIG    1       24.613 -20.505   3.944  0.00  0.00    +0.178 C 
ATOM     10  C   LIG    1       25.986 -20.044   4.409  0.00  0.00    +0.195 C 
ATOM     11  C   LIG    1       25.845 -20.112   5.938  0.00  0.00    +0.253 C 
ATOM     12  O   LIG    1       24.844 -21.112   6.229  0.00  0.00    -0.346 OA
BRANCH  11  13
ATOM     13  N   LIG    1       27.050 -20.470   6.662  0.00  0.00    -0.285 N 
ATOM     14  C   LIG    1       28.278 -19.885   6.500  0.00  0.00    +0.167 A 
ATOM     15  N   LIG    1       28.617 -18.880   5.675  0.00  0.00    -0.216 NA
ATOM     16  C   LIG    1       29.921 -18.564   5.813  0.00  0.00    +0.225 A 
ATOM     17  N   LIG    1       30.846 -19.134   6.616  0.00  0.00    -0.219 NA
ATOM     18  C   LIG    1       30.461 -20.161   7.405  0.00  0.00    +0.147 A 
ATOM     19  C   LIG    1       29.113 -20.555   7.381  0.00  0.00    +0.147 A 
ATOM     20  N   LIG    1       28.416 -21.507   8.095  0.00  0.00    -0.231 NA
ATOM     21  C   LIG    1       27.180 -21.408   7.655  0.00  0.00    +0.203 A 
BRANCH  18  22
ATOM     22  N   LIG    1       31.412 -20.767   8.219  0.00  0.00    -0.341 N 
ATOM     23  H   LIG    1       32.363 -20.591   7.916  0.00  0.00    +0.144 HD
ATOM     24  H   LIG    1       31.159 -21.718   8.451  0.00  0.00    +0.144 HD
ENDBRANCH  18  22
ENDBRANCH  11  13
BRANCH  10  25
ATOM     25  O   LIG    1       26.294 -18.744   3.915  0.00  0.00    -0.385 OA
ATOM     26  H   LIG    1       27.033 -18.417   4.470  0.00  0.00    +0.210 HD
ENDBRANCH  10  25
BRANCH   9  27
ATOM     27  O   LIG    1       23.741 -19.364   3.994  0.00  0.00    -0.386 OA
ATOM     28  H   LIG    1       22.826 -19.686   4.088  0.00  0.00    +0.210 HD
ENDBRANCH   9  27
ENDBRANCH   7   8
ENDBRANCH   6   7
ENDBRANCH   2   6
ENDBRANCH   1   2
BRANCH   1  29
ATOM     29  P   LIG    1       25.406 -27.746   6.613  0.00  0.00    +0.483 P 
ATOM     30  O   LIG    1       26.053 -27.622   5.235  0.00  0.00    -0.227 OA
BRANCH  29  31
ATOM     31  O   LIG    1       23.802 -27.715   6.315  0.00  0.00    -0.302 OA
ATOM     32  H   LIG    1       23.605 -26.854   5.894  0.00  0.00    +0.222 HD
ENDBRANCH  29  31
BRANCH  29  33
ATOM     33  O   LIG    1       25.403 -29.469   6.449  0.00  0.00    -0.284 OA
BRANCH  33  34
ATOM     34  C   LIG    1       24.923 -30.147   7.605  0.00  0.00    +0.206 C 
BRANCH  34  38
ATOM     35  C   LIG    1       25.363 -30.317  10.881  0.00  0.00    +0.241 C 
ATOM     36  C   LIG    1       25.168 -31.746  10.325  0.00  0.00    +0.193 C 
ATOM     37  C   LIG    1       26.131 -31.775   9.157  0.00  0.00    +0.178 C 
ATOM     38  C   LIG    1       26.038 -30.349   8.635  0.00  0.00    +0.178 C 
ATOM     39  O   LIG    1       25.799 -29.503   9.765  0.00  0.00    -0.348 OA
BRANCH  35  44
ATOM     40  C   LIG    1       21.728 -29.778  11.768  0.00  0.00    +0.032 C 
ATOM     41  C   LIG    1       21.777 -28.656  12.765  0.00  0.00    +0.070 C 
ATOM     42  C   LIG    1       23.169 -28.161  13.041  0.00  0.00    -0.007 C 
ATOM     43  C   LIG    1       24.229 -28.712  12.433  0.00  0.00    +0.073 C 
ATOM     44  N   LIG    1       24.138 -29.736  11.488  0.00  0.00    -0.285 N 
ATOM     45  C   LIG    1       22.860 -30.254  11.225  0.00  0.00    +0.086 C 
BRANCH  40  49
ATOM     46  N   LIG    1       19.436 -30.355  12.276  0.00  0.00    -0.326 N 
ATOM     47  H   LIG    1       19.531 -30.008  13.214  0.00  0.00    +0.145 HD
ATOM     48  H   LIG    1       18.539 -30.724  11.993  0.00  0.00    +0.145 HD
ATOM     49  C   LIG    1       20.427 -30.362  11.335  0.00  0.00    +0.239 C 
ATOM     50  O   LIG    1       20.222 -30.804  10.223  0.00  0.00    -0.271 OA
ENDBRANCH  40  49
ENDBRANCH  35  44
BRANCH  37  51
ATOM     51  O   LIG    1       27.451 -32.038   9.668  0.00  0.00    -0.386 OA
ATOM     52  H   LIG    1       27.359 -32.606  10.454  0.00  0.00    +0.210 HD
ENDBRANCH  37  51
BRANCH  36  53
ATOM     53  O   LIG    1       25.476 -32.785  11.256  0.00  0.00    -0.385 OA
ATOM     54  H   LIG    1       26.441 -32.930  11.186  0.00  0.00    +0.210 HD
ENDBRANCH  36  53
ENDBRANCH  34  38
ENDBRANCH  33  34
ENDBRANCH  29  33
ENDBRANCH   1  29
TORSDOF 18
ENDMDL
MODEL 9
REMARK VINA RESULT:      -8.6      2.164      3.209
REMARK  Name = *****
REMARK                            x       y       z     vdW  Elec       q    Type
REMARK                         _______ _______ _______ _____ _____    ______ ____
ROOT
ATOM      1  O   LIG    1       25.029 -28.011   5.371  0.00  0.00    -0.186 OA
ENDROOT
BRANCH   1   2
ATOM      2  P   LIG    1       25.923 -26.916   6.081  0.00  0.00    +0.483 P 
ATOM      3  O   LIG    1       27.233 -26.625   5.431  0.00  0.00    -0.227 OA
BRANCH   2   4
ATOM      4  O   LIG    1       26.096 -27.456   7.581  0.00  0.00    -0.302 OA
ATOM      5  H   LIG    1       26.477 -28.353   7.621  0.00  0.00    +0.222 HD
ENDBRANCH   2   4
BRANCH   2   6
ATOM      6  O   LIG    1       24.999 -25.615   6.284  0.00  0.00    -0.284 OA
BRANCH   6   7
ATOM      7  C   LIG    1       25.540 -24.386   5.807  0.00  0.00    +0.206 C 
BRANCH   7   8
ATOM      8  C   LIG    1       24.622 -23.208   6.164  0.00  0.00    +0.178 C 
ATOM      9  C   LIG    1       24.397 -22.254   4.990  0.00  0.00    +0.178 C 
ATOM     10  C   LIG    1       25.578 -21.301   5.103  0.00  0.00    +0.195 C 
ATOM     11  C   LIG    1       25.762 -21.200   6.625  0.00  0.00    +0.253 C 
ATOM     12  O   LIG    1       25.257 -22.427   7.197  0.00  0.00    -0.346 OA
BRANCH  11  13
ATOM     13  N   LIG    1       27.129 -21.031   7.080  0.00  0.00    -0.285 N 
ATOM     14  C   LIG    1       28.038 -20.149   6.555  0.00  0.00    +0.167 A 
ATOM     15  N   LIG    1       27.861 -19.272   5.553  0.00  0.00    -0.216 NA
ATOM     16  C   LIG    1       28.985 -18.560   5.334  0.00  0.00    +0.225 A 
ATOM     17  N   LIG    1       30.180 -18.656   5.959  0.00  0.00    -0.219 NA
ATOM     18  C   LIG    1       30.314 -19.575   6.939  0.00  0.00    +0.147 A 
ATOM     19  C   LIG    1       29.197 -20.351   7.289  0.00  0.00    +0.147 A 
ATOM     20  N   LIG    1       29.004 -21.307   8.263  0.00  0.00    -0.231 NA
ATOM     21  C   LIG    1       27.748 -21.672   8.123  0.00  0.00    +0.203 A 
BRANCH  18  22
ATOM     22  N   LIG    1       31.546 -19.695   7.572  0.00  0.00    -0.341 N 
ATOM     23  H   LIG    1       32.045 -20.539   7.314  0.00  0.00    +0.144 HD
ATOM     24  H   LIG    1       31.490 -19.463   8.555  0.00  0.00    +0.144 HD
ENDBRANCH  18  22
ENDBRANCH  11  13
BRANCH  10  25
ATOM     25  O   LIG    1       25.302 -20.054   4.471  0.00  0.00    -0.385 OA
ATOM     26  H   LIG    1       24.359 -19.863   4.659  0.00  0.00    +0.210 HD
ENDBRANCH  10  25
BRANCH   9  27
ATOM     27  O   LIG    1       23.202 -21.475   5.163  0.00  0.00    -0.386 OA
ATOM     28  H   LIG    1       22.478 -21.921   4.689  0.00  0.00    +0.210 HD
ENDBRANCH   9  27
ENDBRANCH   7   8
ENDBRANCH   6   7
ENDBRANCH   2   6
ENDBRANCH   1   2
BRANCH   1  29
ATOM     29  P   LIG    1       24.518 -29.503   6.079  0.00  0.00    +0.483 P 
ATOM     30  O   LIG    1       25.416 -30.276   5.115  0.00  0.00    -0.227 OA
BRANCH  29  31
ATOM     31  O   LIG    1       23.090 -29.386   5.298  0.00  0.00    -0.302 OA
ATOM     32  H   LIG    1       22.418 -29.142   5.966  0.00  0.00    +0.222 HD
ENDBRANCH  29  31
BRANCH  29  33
ATOM     33  O   LIG    1       24.006 -30.997   6.788  0.00  0.00    -0.284 OA
BRANCH  33  34
ATOM     34  C   LIG    1       24.751 -31.360   7.945  0.00  0.00    +0.206 C 
BRANCH  34  38
ATOM     35  C   LIG    1       24.890 -29.749  10.833  0.00  0.00    +0.241 C 
ATOM     36  C   LIG    1       26.054 -30.763  10.767  0.00  0.00    +0.193 C 
ATOM     37  C   LIG    1       26.653 -30.482   9.406  0.00  0.00    +0.178 C 
ATOM     38  C   LIG    1       25.420 -30.139   8.582  0.00  0.00    +0.178 C 
ATOM     39  O   LIG    1       24.494 -29.495   9.463  0.00  0.00    -0.348 OA
BRANCH  35  44
ATOM     40  C   LIG    1       21.475 -31.134  11.674  0.00  0.00    +0.032 C 
ATOM     41  C   LIG    1       21.504 -31.244  13.171  0.00  0.00    +0.070 C 
ATOM     42  C   LIG    1       22.799 -30.785  13.780  0.00  0.00    -0.007 C 
ATOM     43  C   LIG    1       23.802 -30.338  13.010  0.00  0.00    +0.073 C 
ATOM     44  N   LIG    1       23.723 -30.223  11.621  0.00  0.00    -0.285 N 
ATOM     45  C   LIG    1       22.544 -30.674  11.006  0.00  0.00    +0.086 C 
BRANCH  40  49
ATOM     46  N   LIG    1       19.506 -30.445  10.452  0.00  0.00    -0.326 N 
ATOM     47  H   LIG    1       19.713 -29.476  10.617  0.00  0.00    +0.145 HD
ATOM     48  H   LIG    1       18.687 -30.671   9.905  0.00  0.00    +0.145 HD
ATOM     49  C   LIG    1       20.253 -31.498  10.903  0.00  0.00    +0.239 C 
ATOM     50  O   LIG    1       19.924 -32.640  10.657  0.00  0.00    -0.271 OA
ENDBRANCH  40  49
ENDBRANCH  35  44
BRANCH  37  51
ATOM     51  O   LIG    1       27.516 -29.336   9.520  0.00  0.00    -0.386 OA
ATOM     52  H   LIG    1       28.357 -29.550   9.076  0.00  0.00    +0.210 HD
ENDBRANCH  37  51
BRANCH  36  53
ATOM     53  O   LIG    1       27.035 -30.597  11.792  0.00  0.00    -0.385 OA
ATOM     54  H   LIG    1       27.709 -29.991  11.422  0.00  0.00    +0.210 HD
ENDBRANCH  36  53
ENDBRANCH  34  38
ENDBRANCH  33  34
ENDBRANCH  29  33
ENDBRANCH   1  29
TORSDOF 18
ENDMDL
