MODEL 1
REMARK VINA RESULT:      10.1      0.000      0.000
REMARK  Name = *****
REMARK                            x       y       z     vdW  Elec       q    Type
REMARK                         _______ _______ _______ _____ _____    ______ ____
ROOT
ATOM      1  C   LIG    1       26.650 -19.795   5.143  0.00  0.00    +0.169 C 
ATOM      2  C   LIG    1       28.165 -19.929   5.451  0.00  0.00    +0.084 C 
ATOM      3  C   LIG    1       28.920 -18.599   5.687  0.00  0.00    +0.042 C 
ATOM      4  C   LIG    1       28.069 -17.362   5.613  0.00  0.00    +0.084 C 
ATOM      5  C   LIG    1       26.991 -17.319   4.461  0.00  0.00    +0.169 C 
ATOM      6  C   LIG    1       26.492 -18.736   4.054  0.00  0.00    +0.175 C 
ENDROOT
BRANCH   2   7
ATOM      7  N   LIG    1       28.900 -20.601   4.354  0.00  0.00    -0.325 NA
ATOM      8  H   LIG    1       29.041 -21.592   4.587  0.00  0.00    +0.118 HD
ATOM      9  H   LIG    1       28.293 -20.636   3.533  0.00  0.00    +0.118 HD
ENDBRANCH   2   7
BRANCH   4  10
ATOM     10  N   LIG    1       28.741 -16.132   6.072  0.00  0.00    -0.325 NA
ATOM     11  H   LIG    1       29.097 -15.616   5.259  0.00  0.00    +0.118 HD
ATOM     12  H   LIG    1       28.034 -15.509   6.463  0.00  0.00    +0.118 HD
ENDBRANCH   4  10
BRANCH   6  13
ATOM     13  O   LIG    1       25.116 -18.783   3.646  0.00  0.00    -0.387 OA
ATOM     14  H   LIG    1       24.921 -17.872   3.305  0.00  0.00    +0.210 HD
ENDBRANCH   6  13
BRANCH   1  15
ATOM     15  O   LIG    1       25.720 -19.725   6.267  0.00  0.00    -0.342 OA
BRANCH  15  18
ATOM     16  C   LIG    1       22.335 -19.135   4.914  0.00  0.00    +0.138 C 
ATOM     17  O   LIG    1       23.752 -19.140   5.140  0.00  0.00    -0.345 OA
ATOM     18  C   LIG    1       24.337 -20.040   6.076  0.00  0.00    +0.268 C 
ATOM     19  C   LIG    1       24.068 -21.434   5.486  0.00  0.00    +0.107 C 
ATOM     20  C   LIG    1       22.526 -21.572   5.397  0.00  0.00    +0.026 C 
ATOM     21  C   LIG    1       21.859 -20.510   4.511  0.00  0.00    +0.035 C 
BRANCH  19  22
ATOM     22  N   LIG    1       24.710 -21.569   4.162  0.00  0.00    -0.323 NA
ATOM     23  H   LIG    1       25.573 -22.101   4.265  0.00  0.00    +0.119 HD
ATOM     24  H   LIG    1       24.116 -22.230   3.638  0.00  0.00    +0.119 HD
ENDBRANCH  19  22
BRANCH  16  25
ATOM     25  C   LIG    1       21.971 -17.966   3.912  0.00  0.00    +0.079 C 
ATOM     26  C   LIG    1       21.698 -16.657   4.665  0.00  0.00    +0.026 C 
BRANCH  25  28
ATOM     27  C   LIG    1       19.640 -18.785   3.698  0.00  0.00    +0.101 C 
ATOM     28  N   LIG    1       20.824 -18.248   3.020  0.00  0.00    -0.314 NA
ATOM     29  H   LIG    1       20.563 -17.399   2.543  0.00  0.00    +0.122 HD
ENDBRANCH  25  28
ENDBRANCH  16  25
ENDBRANCH  15  18
ENDBRANCH   1  15
BRANCH   5  30
ATOM     30  O   LIG    1       27.498 -16.533   3.364  0.00  0.00    -0.341 OA
BRANCH  30  31
ATOM     31  C   LIG    1       26.452 -15.810   2.690  0.00  0.00    +0.281 C 
ATOM     32  C   LIG    1       25.501 -15.169   3.717  0.00  0.00    +0.190 C 
ATOM     33  C   LIG    1       26.299 -14.129   4.558  0.00  0.00    +0.121 C 
ATOM     34  C   LIG    1       27.119 -13.194   3.598  0.00  0.00    +0.104 C 
ATOM     35  C   LIG    1       28.590 -13.214   4.008  0.00  0.00    +0.045 C 
ATOM     36  C   LIG    1       26.942 -13.544   2.134  0.00  0.00    +0.199 C 
ATOM     37  O   LIG    1       27.053 -14.883   1.813  0.00  0.00    -0.346 OA
BRANCH  33  38
ATOM     38  N   LIG    1       25.404 -13.427   5.499  0.00  0.00    -0.311 NA
ATOM     39  H   LIG    1       25.146 -14.070   6.250  0.00  0.00    +0.122 HD
ATOM     40  C   LIG    1       24.233 -12.826   4.895  0.00  0.00    +0.101 C 
ENDBRANCH  33  38
BRANCH  32  41
ATOM     41  O   LIG    1       24.889 -16.163   4.552  0.00  0.00    -0.385 OA
ATOM     42  H   LIG    1       25.603 -16.772   4.864  0.00  0.00    +0.210 HD
ENDBRANCH  32  41
BRANCH  34  43
ATOM     43  O   LIG    1       26.630 -11.822   3.624  0.00  0.00    -0.385 OA
ATOM     44  H   LIG    1       27.285 -11.268   3.951  0.00  0.00    +0.210 HD
ENDBRANCH  34  43
ENDBRANCH  30  31
ENDBRANCH   5  30
TORSDOF 13
ENDMDL
MODEL 2
REMARK VINA RESULT:      10.9      1.966      4.395
REMARK  Name = *****
REMARK                            x       y       z     vdW  Elec       q    Type
REMARK                         _______ _______ _______ _____ _____    ______ ____
ROOT
ATOM      1  C   LIG    1       23.283 -16.688   4.426  0.00  0.00    +0.169 C 
ATOM      2  C   LIG    1       22.672 -15.356   4.941  0.00  0.00    +0.084 C 
ATOM      3  C   LIG    1       22.904 -14.121   4.038  0.00  0.00    +0.042 C 
ATOM      4  C   LIG    1       23.665 -14.392   2.771  0.00  0.00    +0.084 C 
ATOM      5  C   LIG    1       24.898 -15.371   2.888  0.00  0.00    +0.169 C 
ATOM      6  C   LIG    1       24.732 -16.410   4.035  0.00  0.00    +0.175 C 
ENDROOT
BRANCH   2   7
ATOM      7  N   LIG    1       23.210 -14.972   6.267  0.00  0.00    -0.325 NA
ATOM      8  H   LIG    1       24.065 -14.414   6.145  0.00  0.00    +0.118 HD
ATOM      9  H   LIG    1       22.559 -14.315   6.701  0.00  0.00    +0.118 HD
ENDBRANCH   2   7
BRANCH   4  10
ATOM     10  N   LIG    1       23.672 -13.272   1.812  0.00  0.00    -0.325 NA
ATOM     11  H   LIG    1       23.506 -13.634   0.866  0.00  0.00    +0.118 HD
ATOM     12  H   LIG    1       22.854 -12.690   1.996  0.00  0.00    +0.118 HD
ENDBRANCH   4  10
BRANCH   6  13
ATOM     13  O   LIG    1       25.326 -17.689   3.763  0.00  0.00    -0.387 OA
ATOM     14  H   LIG    1       25.272 -18.182   4.623  0.00  0.00    +0.210 HD
ENDBRANCH   6  13
BRANCH   1  15
ATOM     15  O   LIG    1       22.495 -17.496   3.499  0.00  0.00    -0.342 OA
BRANCH  15  18
ATOM     16  C   LIG    1       24.025 -20.807   4.072  0.00  0.00    +0.138 C 
ATOM     17  O   LIG    1       23.745 -19.400   4.042  0.00  0.00    -0.345 OA
ATOM     18  C   LIG    1       22.468 -18.921   3.632  0.00  0.00    +0.268 C 
ATOM     19  C   LIG    1       21.499 -19.451   4.701  0.00  0.00    +0.107 C 
ATOM     20  C   LIG    1       21.609 -20.998   4.651  0.00  0.00    +0.026 C 
ATOM     21  C   LIG    1       23.021 -21.528   4.939  0.00  0.00    +0.035 C 
BRANCH  19  22
ATOM     22  N   LIG    1       21.854 -18.917   6.032  0.00  0.00    -0.323 NA
ATOM     23  H   LIG    1       22.605 -19.482   6.427  0.00  0.00    +0.119 HD
ATOM     24  H   LIG    1       22.336 -18.024   5.848  0.00  0.00    +0.119 HD
ENDBRANCH  19  22
BRANCH  16  25
ATOM     25  C   LIG    1       25.543 -21.028   4.458  0.00  0.00    +0.079 C 
ATOM     26  C   LIG    1       25.677 -21.550   5.896  0.00  0.00    +0.026 C 
BRANCH  25  28
ATOM     27  C   LIG    1       27.409 -19.665   5.360  0.00  0.00    +0.101 C 
ATOM     28  N   LIG    1       26.402 -19.833   4.306  0.00  0.00    -0.314 NA
ATOM     29  H   LIG    1       26.874 -19.879   3.416  0.00  0.00    +0.122 HD
ENDBRANCH  25  28
ENDBRANCH  16  25
ENDBRANCH  15  18
ENDBRANCH   1  15
BRANCH   5  30
ATOM     30  O   LIG    1       26.113 -14.598   2.961  0.00  0.00    -0.341 OA
BRANCH  30  31
ATOM     31  C   LIG    1       25.876 -13.267   3.454  0.00  0.00    +0.281 C 
ATOM     32  C   LIG    1       26.351 -13.146   4.913  0.00  0.00    +0.190 C 
ATOM     33  C   LIG    1       27.892 -13.376   4.958  0.00  0.00    +0.121 C 
ATOM     34  C   LIG    1       28.587 -12.496   3.858  0.00  0.00    +0.104 C 
ATOM     35  C   LIG    1       29.453 -13.387   2.971  0.00  0.00    +0.045 C 
ATOM     36  C   LIG    1       27.606 -11.678   3.042  0.00  0.00    +0.199 C 
ATOM     37  O   LIG    1       26.496 -12.355   2.574  0.00  0.00    -0.346 OA
BRANCH  33  38
ATOM     38  N   LIG    1       28.404 -13.184   6.329  0.00  0.00    -0.311 NA
ATOM     39  H   LIG    1       29.234 -12.590   6.290  0.00  0.00    +0.122 HD
ATOM     40  C   LIG    1       28.664 -14.407   7.061  0.00  0.00    +0.101 C 
ENDBRANCH  33  38
BRANCH  32  41
ATOM     41  O   LIG    1       25.657 -14.067   5.766  0.00  0.00    -0.385 OA
ATOM     42  H   LIG    1       24.843 -14.362   5.288  0.00  0.00    +0.210 HD
ENDBRANCH  32  41
BRANCH  34  43
ATOM     43  O   LIG    1       29.414 -11.447   4.441  0.00  0.00    -0.385 OA
ATOM     44  H   LIG    1       29.044 -10.626   4.259  0.00  0.00    +0.210 HD
ENDBRANCH  34  43
ENDBRANCH  30  31
ENDBRANCH   5  30
TORSDOF 13
ENDMDL
MODEL 3
REMARK VINA RESULT:      11.3      1.942      4.932
REMARK  Name = *****
REMARK                            x       y       z     vdW  Elec       q    Type
REMARK                         _______ _______ _______ _____ _____    ______ ____
ROOT
ATOM      1  C   LIG    1       24.071 -16.426   4.361  0.00  0.00    +0.169 C 
ATOM      2  C   LIG    1       22.622 -15.934   4.097  0.00  0.00    +0.084 C 
ATOM      3  C   LIG    1       22.499 -14.557   3.402  0.00  0.00    +0.042 C 
ATOM      4  C   LIG    1       23.805 -13.902   3.052  0.00  0.00    +0.084 C 
ATOM      5  C   LIG    1       24.953 -14.001   4.132  0.00  0.00    +0.169 C 
ATOM      6  C   LIG    1       24.836 -15.277   5.014  0.00  0.00    +0.175 C 
ENDROOT
BRANCH   2   7
ATOM      7  N   LIG    1       21.840 -15.806   5.349  0.00  0.00    -0.325 NA
ATOM      8  H   LIG    1       22.478 -15.784   6.155  0.00  0.00    +0.118 HD
ATOM      9  H   LIG    1       21.408 -14.880   5.366  0.00  0.00    +0.118 HD
ENDBRANCH   2   7
BRANCH   4  10
ATOM     10  N   LIG    1       23.678 -12.717   2.183  0.00  0.00    -0.325 NA
ATOM     11  H   LIG    1       22.685 -12.546   1.984  0.00  0.00    +0.118 HD
ATOM     12  H   LIG    1       23.962 -11.896   2.719  0.00  0.00    +0.118 HD
ENDBRANCH   4  10
BRANCH   6  13
ATOM     13  O   LIG    1       26.097 -15.823   5.432  0.00  0.00    -0.387 OA
ATOM     14  H   LIG    1       26.775 -15.329   4.902  0.00  0.00    +0.210 HD
ENDBRANCH   6  13
BRANCH   1  15
ATOM     15  O   LIG    1       24.758 -17.151   3.295  0.00  0.00    -0.342 OA
BRANCH  15  18
ATOM     16  C   LIG    1       25.918 -20.447   4.490  0.00  0.00    +0.138 C 
ATOM     17  O   LIG    1       25.589 -19.055   4.378  0.00  0.00    -0.345 OA
ATOM     18  C   LIG    1       24.784 -18.583   3.302  0.00  0.00    +0.268 C 
ATOM     19  C   LIG    1       23.418 -19.252   3.524  0.00  0.00    +0.107 C 
ATOM     20  C   LIG    1       23.674 -20.780   3.462  0.00  0.00    +0.026 C 
ATOM     21  C   LIG    1       24.664 -21.286   4.521  0.00  0.00    +0.035 C 
BRANCH  19  22
ATOM     22  N   LIG    1       22.846 -18.842   4.823  0.00  0.00    -0.323 NA
ATOM     23  H   LIG    1       21.830 -18.817   4.745  0.00  0.00    +0.119 HD
ATOM     24  H   LIG    1       22.989 -19.649   5.451  0.00  0.00    +0.119 HD
ENDBRANCH  19  22
BRANCH  16  25
ATOM     25  C   LIG    1       26.905 -20.651   5.710  0.00  0.00    +0.079 C 
ATOM     26  C   LIG    1       26.222 -20.302   7.040  0.00  0.00    +0.026 C 
BRANCH  25  28
ATOM     27  C   LIG    1       28.856 -19.682   6.897  0.00  0.00    +0.101 C 
ATOM     28  N   LIG    1       28.173 -19.893   5.616  0.00  0.00    -0.314 NA
ATOM     29  H   LIG    1       28.801 -20.379   4.994  0.00  0.00    +0.122 HD
ENDBRANCH  25  28
ENDBRANCH  16  25
ENDBRANCH  15  18
ENDBRANCH   1  15
BRANCH   5  30
ATOM     30  O   LIG    1       25.010 -12.768   4.878  0.00  0.00    -0.341 OA
BRANCH  30  31
ATOM     31  C   LIG    1       26.299 -12.138   4.779  0.00  0.00    +0.281 C 
ATOM     32  C   LIG    1       27.406 -13.115   5.219  0.00  0.00    +0.190 C 
ATOM     33  C   LIG    1       27.419 -14.329   4.243  0.00  0.00    +0.121 C 
ATOM     34  C   LIG    1       27.412 -13.812   2.760  0.00  0.00    +0.104 C 
ATOM     35  C   LIG    1       26.249 -14.454   2.007  0.00  0.00    +0.045 C 
ATOM     36  C   LIG    1       27.378 -12.300   2.658  0.00  0.00    +0.199 C 
ATOM     37  O   LIG    1       26.455 -11.659   3.461  0.00  0.00    -0.346 OA
BRANCH  33  38
ATOM     38  N   LIG    1       28.523 -15.250   4.579  0.00  0.00    -0.311 NA
ATOM     39  H   LIG    1       29.362 -14.954   4.079  0.00  0.00    +0.122 HD
ATOM     40  C   LIG    1       28.239 -16.652   4.350  0.00  0.00    +0.101 C 
ENDBRANCH  33  38
BRANCH  32  41
ATOM     41  O   LIG    1       27.218 -13.534   6.578  0.00  0.00    -0.385 OA
ATOM     42  H   LIG    1       27.064 -14.510   6.572  0.00  0.00    +0.210 HD
ENDBRANCH  32  41
BRANCH  34  43
ATOM     43  O   LIG    1       28.659 -14.115   2.071  0.00  0.00    -0.385 OA
ATOM     44  H   LIG    1       29.102 -14.785   2.516  0.00  0.00    +0.210 HD
ENDBRANCH  34  43
ENDBRANCH  30  31
ENDBRANCH   5  30
TORSDOF 13
ENDMDL
