MODEL 1
REMARK VINA RESULT:      -6.3      0.000      0.000
REMARK  Name = *****
REMARK                            x       y       z     vdW  Elec       q    Type
REMARK                         _______ _______ _______ _____ _____    ______ ____
ROOT
ATOM      1  C   LIG    1       26.465 -32.565   8.207  0.00  0.00    +0.015 C 
ATOM      2  C   LIG    1       25.375 -31.498   8.004  0.00  0.00    +0.009 C 
ATOM      3  C   LIG    1       25.058 -31.289   6.487  0.00  0.00    +0.132 C 
ATOM      4  C   LIG    1       24.332 -29.942   6.451  0.00  0.00    +0.043 C 
ATOM      5  C   LIG    1       24.959 -29.120   7.590  0.00  0.00    +0.008 C 
ATOM      6  C   LIG    1       25.892 -30.078   8.366  0.00  0.00    +0.005 C 
ATOM      7  C   LIG    1       26.058 -29.812   9.877  0.00  0.00    +0.034 C 
ATOM      8  C   LIG    1       26.595 -28.388  10.119  0.00  0.00    +0.011 C 
ATOM      9  C   LIG    1       26.834 -28.108  11.600  0.00  0.00    +0.032 C 
ATOM     10  C   LIG    1       25.542 -28.359  12.333  0.00  0.00    -0.057 C 
ATOM     11  C   LIG    1       25.004 -29.802  12.260  0.00  0.00    +0.026 C 
ATOM     12  C   LIG    1       26.024 -30.781  12.901  0.00  0.00    +0.019 C 
ATOM     13  C   LIG    1       23.731 -29.901  13.157  0.00  0.00    +0.022 C 
ATOM     14  C   LIG    1       22.760 -28.741  13.009  0.00  0.00    +0.080 C 
ATOM     15  C   LIG    1       23.471 -27.450  13.317  0.00  0.00    +0.156 C 
ATOM     16  O   LIG    1       22.910 -26.493  13.837  0.00  0.00    -0.293 OA
ATOM     17  C   LIG    1       24.874 -27.317  12.860  0.00  0.00    +0.046 C 
ATOM     18  C   LIG    1       24.787 -30.139  10.725  0.00  0.00    +0.149 C 
ATOM     19  F   LIG    1       23.771 -29.324  10.284  0.00  0.00    -0.238 F 
ATOM     20  C   LIG    1       24.348 -31.588  10.400  0.00  0.00    +0.153 C 
ATOM     21  C   LIG    1       24.152 -31.824   8.892  0.00  0.00    +0.044 C 
ENDROOT
BRANCH   3  22
ATOM     22  O   LIG    1       26.320 -31.062   5.800  0.00  0.00    -0.380 OA
ATOM     23  H   LIG    1       26.943 -31.747   6.123  0.00  0.00    +0.211 HD
ENDBRANCH   3  22
BRANCH   3  24
ATOM     24  C   LIG    1       24.351 -32.372   5.648  0.00  0.00    +0.190 C 
ATOM     25  O   LIG    1       23.154 -32.621   5.859  0.00  0.00    -0.292 OA
BRANCH  24  26
ATOM     26  C   LIG    1       25.085 -33.146   4.576  0.00  0.00    +0.233 C 
BRANCH  26  27
ATOM     27  O   LIG    1       25.142 -32.406   3.371  0.00  0.00    -0.387 OA
ATOM     28  H   LIG    1       26.077 -32.394   3.090  0.00  0.00    +0.210 HD
ENDBRANCH  26  27
ENDBRANCH  24  26
ENDBRANCH   3  24
BRANCH  20  29
ATOM     29  O   LIG    1       23.101 -31.913  11.017  0.00  0.00    -0.389 OA
ATOM     30  H   LIG    1       23.259 -32.688  11.589  0.00  0.00    +0.210 HD
ENDBRANCH  20  29
TORSDOF 5
ENDMDL
MODEL 2
REMARK VINA RESULT:      -5.8      1.977      2.819
REMARK  Name = *****
REMARK                            x       y       z     vdW  Elec       q    Type
REMARK                         _______ _______ _______ _____ _____    ______ ____
ROOT
ATOM      1  C   LIG    1       25.181 -31.938  10.489  0.00  0.00    +0.015 C 
ATOM      2  C   LIG    1       25.186 -30.450  10.097  0.00  0.00    +0.009 C 
ATOM      3  C   LIG    1       25.459 -30.264   8.569  0.00  0.00    +0.132 C 
ATOM      4  C   LIG    1       25.869 -28.794   8.450  0.00  0.00    +0.043 C 
ATOM      5  C   LIG    1       26.596 -28.475   9.767  0.00  0.00    +0.008 C 
ATOM      6  C   LIG    1       26.422 -29.710  10.680  0.00  0.00    +0.005 C 
ATOM      7  C   LIG    1       26.365 -29.447  12.200  0.00  0.00    +0.034 C 
ATOM      8  C   LIG    1       27.646 -28.732  12.672  0.00  0.00    +0.011 C 
ATOM      9  C   LIG    1       27.657 -28.511  14.182  0.00  0.00    +0.032 C 
ATOM     10  C   LIG    1       26.412 -27.745  14.547  0.00  0.00    -0.057 C 
ATOM     11  C   LIG    1       25.079 -28.453  14.236  0.00  0.00    +0.026 C 
ATOM     12  C   LIG    1       24.982 -29.778  15.039  0.00  0.00    +0.019 C 
ATOM     13  C   LIG    1       23.912 -27.569  14.775  0.00  0.00    +0.022 C 
ATOM     14  C   LIG    1       24.049 -26.085  14.473  0.00  0.00    +0.080 C 
ATOM     15  C   LIG    1       25.347 -25.577  15.043  0.00  0.00    +0.156 C 
ATOM     16  O   LIG    1       25.479 -24.437  15.474  0.00  0.00    -0.293 OA
ATOM     17  C   LIG    1       26.525 -26.471  14.964  0.00  0.00    +0.046 C 
ATOM     18  C   LIG    1       25.057 -28.736  12.675  0.00  0.00    +0.149 C 
ATOM     19  F   LIG    1       24.999 -27.511  12.054  0.00  0.00    -0.238 F 
ATOM     20  C   LIG    1       23.847 -29.546  12.145  0.00  0.00    +0.153 C 
ATOM     21  C   LIG    1       23.903 -29.766  10.624  0.00  0.00    +0.044 C 
ENDROOT
BRANCH   3  22
ATOM     22  O   LIG    1       26.655 -31.022   8.238  0.00  0.00    -0.380 OA
ATOM     23  H   LIG    1       26.793 -31.663   8.969  0.00  0.00    +0.211 HD
ENDBRANCH   3  22
BRANCH   3  24
ATOM     24  C   LIG    1       24.429 -30.685   7.503  0.00  0.00    +0.190 C 
ATOM     25  O   LIG    1       23.510 -31.460   7.815  0.00  0.00    -0.292 OA
BRANCH  24  26
ATOM     26  C   LIG    1       24.515 -30.183   6.079  0.00  0.00    +0.233 C 
BRANCH  26  27
ATOM     27  O   LIG    1       23.280 -29.627   5.665  0.00  0.00    -0.387 OA
ATOM     28  H   LIG    1       23.290 -29.612   4.690  0.00  0.00    +0.210 HD
ENDBRANCH  26  27
ENDBRANCH  24  26
ENDBRANCH   3  24
BRANCH  20  29
ATOM     29  O   LIG    1       22.611 -28.878  12.404  0.00  0.00    -0.389 OA
ATOM     30  H   LIG    1       22.057 -28.985  11.608  0.00  0.00    +0.210 HD
ENDBRANCH  20  29
TORSDOF 5
ENDMDL
MODEL 3
REMARK VINA RESULT:      -5.8      1.638      1.909
REMARK  Name = *****
REMARK                            x       y       z     vdW  Elec       q    Type
REMARK                         _______ _______ _______ _____ _____    ______ ____
ROOT
ATOM      1  C   LIG    1       25.337 -32.358   8.938  0.00  0.00    +0.015 C 
ATOM      2  C   LIG    1       25.165 -30.831   8.867  0.00  0.00    +0.009 C 
ATOM      3  C   LIG    1       25.170 -30.325   7.388  0.00  0.00    +0.132 C 
ATOM      4  C   LIG    1       25.443 -28.825   7.518  0.00  0.00    +0.043 C 
ATOM      5  C   LIG    1       26.350 -28.691   8.754  0.00  0.00    +0.008 C 
ATOM      6  C   LIG    1       26.421 -30.091   9.406  0.00  0.00    +0.005 C 
ATOM      7  C   LIG    1       26.594 -30.134  10.939  0.00  0.00    +0.034 C 
ATOM      8  C   LIG    1       27.877 -29.391  11.359  0.00  0.00    +0.011 C 
ATOM      9  C   LIG    1       28.118 -29.466  12.863  0.00  0.00    +0.032 C 
ATOM     10  C   LIG    1       26.896 -28.922  13.556  0.00  0.00    -0.057 C 
ATOM     11  C   LIG    1       25.587 -29.695  13.302  0.00  0.00    +0.026 C 
ATOM     12  C   LIG    1       25.722 -31.153  13.817  0.00  0.00    +0.019 C 
ATOM     13  C   LIG    1       24.461 -29.061  14.175  0.00  0.00    +0.022 C 
ATOM     14  C   LIG    1       24.434 -27.541  14.172  0.00  0.00    +0.080 C 
ATOM     15  C   LIG    1       25.766 -27.017  14.641  0.00  0.00    +0.156 C 
ATOM     16  O   LIG    1       25.881 -25.975  15.275  0.00  0.00    -0.293 OA
ATOM     17  C   LIG    1       26.979 -27.748  14.208  0.00  0.00    +0.046 C 
ATOM     18  C   LIG    1       25.331 -29.672  11.736  0.00  0.00    +0.149 C 
ATOM     19  F   LIG    1       25.081 -28.363  11.398  0.00  0.00    -0.238 F 
ATOM     20  C   LIG    1       24.115 -30.488  11.230  0.00  0.00    +0.153 C 
ATOM     21  C   LIG    1       23.938 -30.403   9.705  0.00  0.00    +0.044 C 
ENDROOT
BRANCH   3  22
ATOM     22  O   LIG    1       26.350 -30.873   6.737  0.00  0.00    -0.380 OA
ATOM     23  H   LIG    1       26.110 -31.021   5.798  0.00  0.00    +0.211 HD
ENDBRANCH   3  22
BRANCH   3  24
ATOM     24  C   LIG    1       24.014 -30.640   6.418  0.00  0.00    +0.190 C 
ATOM     25  O   LIG    1       23.324 -29.710   5.969  0.00  0.00    -0.292 OA
BRANCH  24  26
ATOM     26  C   LIG    1       23.694 -32.058   6.004  0.00  0.00    +0.233 C 
BRANCH  26  27
ATOM     27  O   LIG    1       24.505 -32.461   4.916  0.00  0.00    -0.387 OA
ATOM     28  H   LIG    1       25.088 -33.170   5.244  0.00  0.00    +0.210 HD
ENDBRANCH  26  27
ENDBRANCH  24  26
ENDBRANCH   3  24
BRANCH  20  29
ATOM     29  O   LIG    1       22.892 -30.018  11.799  0.00  0.00    -0.389 OA
ATOM     30  H   LIG    1       22.901 -30.266  12.743  0.00  0.00    +0.210 HD
ENDBRANCH  20  29
TORSDOF 5
ENDMDL
MODEL 4
REMARK VINA RESULT:      -5.7      1.937      3.149
REMARK  Name = *****
REMARK                            x       y       z     vdW  Elec       q    Type
REMARK                         _______ _______ _______ _____ _____    ______ ____
ROOT
ATOM      1  C   LIG    1       25.058 -29.090   7.071  0.00  0.00    +0.015 C 
ATOM      2  C   LIG    1       24.875 -30.515   7.620  0.00  0.00    +0.009 C 
ATOM      3  C   LIG    1       24.412 -31.502   6.499  0.00  0.00    +0.132 C 
ATOM      4  C   LIG    1       23.861 -32.700   7.276  0.00  0.00    +0.043 C 
ATOM      5  C   LIG    1       23.264 -32.101   8.561  0.00  0.00    +0.008 C 
ATOM      6  C   LIG    1       23.653 -30.605   8.575  0.00  0.00    +0.005 C 
ATOM      7  C   LIG    1       23.860 -29.955   9.960  0.00  0.00    +0.034 C 
ATOM      8  C   LIG    1       22.582 -30.083  10.813  0.00  0.00    +0.011 C 
ATOM      9  C   LIG    1       22.725 -29.396  12.167  0.00  0.00    +0.032 C 
ATOM     10  C   LIG    1       23.929 -29.980  12.858  0.00  0.00    -0.057 C 
ATOM     11  C   LIG    1       25.277 -29.772  12.139  0.00  0.00    +0.026 C 
ATOM     12  C   LIG    1       25.584 -28.256  12.014  0.00  0.00    +0.019 C 
ATOM     13  C   LIG    1       26.413 -30.342  13.043  0.00  0.00    +0.022 C 
ATOM     14  C   LIG    1       26.110 -31.693  13.668  0.00  0.00    +0.080 C 
ATOM     15  C   LIG    1       24.846 -31.596  14.481  0.00  0.00    +0.156 C 
ATOM     16  O   LIG    1       24.662 -32.251  15.500  0.00  0.00    -0.293 OA
ATOM     17  C   LIG    1       23.752 -30.754  13.944  0.00  0.00    +0.046 C 
ATOM     18  C   LIG    1       25.144 -30.440  10.706  0.00  0.00    +0.149 C 
ATOM     19  F   LIG    1       25.020 -31.794  10.913  0.00  0.00    -0.238 F 
ATOM     20  C   LIG    1       26.353 -30.260   9.754  0.00  0.00    +0.153 C 
ATOM     21  C   LIG    1       26.143 -30.945   8.393  0.00  0.00    +0.044 C 
ENDROOT
BRANCH   3  22
ATOM     22  O   LIG    1       23.259 -30.911   5.839  0.00  0.00    -0.380 OA
ATOM     23  H   LIG    1       22.928 -31.578   5.200  0.00  0.00    +0.211 HD
ENDBRANCH   3  22
BRANCH   3  24
ATOM     24  C   LIG    1       25.347 -31.917   5.346  0.00  0.00    +0.190 C 
ATOM     25  O   LIG    1       26.255 -31.149   4.991  0.00  0.00    -0.292 OA
BRANCH  24  26
ATOM     26  C   LIG    1       25.178 -33.237   4.628  0.00  0.00    +0.233 C 
BRANCH  26  27
ATOM     27  O   LIG    1       23.997 -33.239   3.848  0.00  0.00    -0.387 OA
ATOM     28  H   LIG    1       23.658 -34.154   3.851  0.00  0.00    +0.210 HD
ENDBRANCH  26  27
ENDBRANCH  24  26
ENDBRANCH   3  24
BRANCH  20  29
ATOM     29  O   LIG    1       27.546 -30.824  10.302  0.00  0.00    -0.389 OA
ATOM     30  H   LIG    1       27.284 -31.631  10.785  0.00  0.00    +0.210 HD
ENDBRANCH  20  29
TORSDOF 5
ENDMDL
MODEL 5
REMARK VINA RESULT:      -5.6      2.209      6.870
REMARK  Name = *****
REMARK                            x       y       z     vdW  Elec       q    Type
REMARK                         _______ _______ _______ _____ _____    ______ ____
ROOT
ATOM      1  C   LIG    1       24.020 -29.759  12.098  0.00  0.00    +0.015 C 
ATOM      2  C   LIG    1       25.452 -29.792  11.535  0.00  0.00    +0.009 C 
ATOM      3  C   LIG    1       26.395 -28.825  12.321  0.00  0.00    +0.132 C 
ATOM      4  C   LIG    1       27.593 -28.646  11.384  0.00  0.00    +0.043 C 
ATOM      5  C   LIG    1       27.005 -28.733   9.965  0.00  0.00    +0.008 C 
ATOM      6  C   LIG    1       25.523 -29.146  10.123  0.00  0.00    +0.005 C 
ATOM      7  C   LIG    1       24.914 -29.994   8.987  0.00  0.00    +0.034 C 
ATOM      8  C   LIG    1       25.020 -29.250   7.641  0.00  0.00    +0.011 C 
ATOM      9  C   LIG    1       24.370 -30.029   6.502  0.00  0.00    +0.032 C 
ATOM     10  C   LIG    1       25.011 -31.391   6.448  0.00  0.00    -0.057 C 
ATOM     11  C   LIG    1       24.831 -32.262   7.708  0.00  0.00    +0.026 C 
ATOM     12  C   LIG    1       23.323 -32.539   7.951  0.00  0.00    +0.019 C 
ATOM     13  C   LIG    1       25.460 -33.663   7.434  0.00  0.00    +0.022 C 
ATOM     14  C   LIG    1       26.815 -33.627   6.747  0.00  0.00    +0.080 C 
ATOM     15  C   LIG    1       26.695 -32.886   5.442  0.00  0.00    +0.156 C 
ATOM     16  O   LIG    1       27.368 -33.166   4.457  0.00  0.00    -0.293 OA
ATOM     17  C   LIG    1       25.804 -31.703   5.407  0.00  0.00    +0.046 C 
ATOM     18  C   LIG    1       25.460 -31.457   8.921  0.00  0.00    +0.149 C 
ATOM     19  F   LIG    1       26.813 -31.387   8.688  0.00  0.00    -0.238 F 
ATOM     20  C   LIG    1       25.297 -32.097  10.323  0.00  0.00    +0.153 C 
ATOM     21  C   LIG    1       25.942 -31.255  11.437  0.00  0.00    +0.044 C 
ENDROOT
BRANCH   3  22
ATOM     22  O   LIG    1       25.751 -27.522  12.371  0.00  0.00    -0.380 OA
ATOM     23  H   LIG    1       26.079 -27.076  13.181  0.00  0.00    +0.211 HD
ENDBRANCH   3  22
BRANCH   3  24
ATOM     24  C   LIG    1       26.813 -29.104  13.778  0.00  0.00    +0.190 C 
ATOM     25  O   LIG    1       26.055 -28.774  14.704  0.00  0.00    -0.292 OA
BRANCH  24  26
ATOM     26  C   LIG    1       28.132 -29.766  14.109  0.00  0.00    +0.233 C 
BRANCH  26  27
ATOM     27  O   LIG    1       27.955 -31.151  14.344  0.00  0.00    -0.387 OA
ATOM     28  H   LIG    1       28.843 -31.555  14.334  0.00  0.00    +0.210 HD
ENDBRANCH  26  27
ENDBRANCH  24  26
ENDBRANCH   3  24
BRANCH  20  29
ATOM     29  O   LIG    1       25.913 -33.383  10.390  0.00  0.00    -0.389 OA
ATOM     30  H   LIG    1       26.051 -33.683   9.471  0.00  0.00    +0.210 HD
ENDBRANCH  20  29
TORSDOF 5
ENDMDL
MODEL 6
REMARK VINA RESULT:      -5.6      1.794      2.784
REMARK  Name = *****
REMARK                            x       y       z     vdW  Elec       q    Type
REMARK                         _______ _______ _______ _____ _____    ______ ____
ROOT
ATOM      1  C   LIG    1       24.786 -32.783   9.116  0.00  0.00    +0.015 C 
ATOM      2  C   LIG    1       24.663 -31.250   9.174  0.00  0.00    +0.009 C 
ATOM      3  C   LIG    1       25.563 -30.564   8.095  0.00  0.00    +0.132 C 
ATOM      4  C   LIG    1       25.667 -29.116   8.577  0.00  0.00    +0.043 C 
ATOM      5  C   LIG    1       25.623 -29.203  10.113  0.00  0.00    +0.008 C 
ATOM      6  C   LIG    1       25.308 -30.675  10.464  0.00  0.00    +0.005 C 
ATOM      7  C   LIG    1       24.507 -30.922  11.760  0.00  0.00    +0.034 C 
ATOM      8  C   LIG    1       25.248 -30.331  12.975  0.00  0.00    +0.011 C 
ATOM      9  C   LIG    1       24.517 -30.611  14.285  0.00  0.00    +0.032 C 
ATOM     10  C   LIG    1       23.116 -30.073  14.158  0.00  0.00    -0.057 C 
ATOM     11  C   LIG    1       22.254 -30.713  13.052  0.00  0.00    +0.026 C 
ATOM     12  C   LIG    1       22.075 -32.230  13.329  0.00  0.00    +0.019 C 
ATOM     13  C   LIG    1       20.816 -30.115  13.138  0.00  0.00    +0.022 C 
ATOM     14  C   LIG    1       20.766 -28.609  13.336  0.00  0.00    +0.080 C 
ATOM     15  C   LIG    1       21.519 -28.244  14.588  0.00  0.00    +0.156 C 
ATOM     16  O   LIG    1       21.199 -27.300  15.302  0.00  0.00    -0.293 OA
ATOM     17  C   LIG    1       22.757 -28.999  14.885  0.00  0.00    +0.046 C 
ATOM     18  C   LIG    1       23.011 -30.475  11.678  0.00  0.00    +0.149 C 
ATOM     19  F   LIG    1       22.993 -29.120  11.449  0.00  0.00    -0.238 F 
ATOM     20  C   LIG    1       22.378 -31.133  10.427  0.00  0.00    +0.153 C 
ATOM     21  C   LIG    1       23.171 -30.845   9.141  0.00  0.00    +0.044 C 
ENDROOT
BRANCH   3  22
ATOM     22  O   LIG    1       26.905 -31.110   8.228  0.00  0.00    -0.380 OA
ATOM     23  H   LIG    1       26.842 -32.065   8.015  0.00  0.00    +0.211 HD
ENDBRANCH   3  22
BRANCH   3  24
ATOM     24  C   LIG    1       25.251 -30.672   6.589  0.00  0.00    +0.190 C 
ATOM     25  O   LIG    1       25.510 -31.726   5.986  0.00  0.00    -0.292 OA
BRANCH  24  26
ATOM     26  C   LIG    1       24.641 -29.519   5.824  0.00  0.00    +0.233 C 
BRANCH  26  27
ATOM     27  O   LIG    1       23.253 -29.720   5.631  0.00  0.00    -0.387 OA
ATOM     28  H   LIG    1       22.806 -28.903   5.921  0.00  0.00    +0.210 HD
ENDBRANCH  26  27
ENDBRANCH  24  26
ENDBRANCH   3  24
BRANCH  20  29
ATOM     29  O   LIG    1       21.053 -30.652  10.192  0.00  0.00    -0.389 OA
ATOM     30  H   LIG    1       20.484 -31.435  10.061  0.00  0.00    +0.210 HD
ENDBRANCH  20  29
TORSDOF 5
ENDMDL
MODEL 7
REMARK VINA RESULT:      -5.4      1.950      7.007
REMARK  Name = *****
REMARK                            x       y       z     vdW  Elec       q    Type
REMARK                         _______ _______ _______ _____ _____    ______ ____
ROOT
ATOM      1  C   LIG    1       27.530 -29.468  13.076  0.00  0.00    +0.015 C 
ATOM      2  C   LIG    1       26.226 -28.948  12.447  0.00  0.00    +0.009 C 
ATOM      3  C   LIG    1       25.469 -27.984  13.419  0.00  0.00    +0.132 C 
ATOM      4  C   LIG    1       24.050 -27.935  12.849  0.00  0.00    +0.043 C 
ATOM      5  C   LIG    1       23.816 -29.329  12.242  0.00  0.00    +0.008 C 
ATOM      6  C   LIG    1       25.167 -30.077  12.314  0.00  0.00    +0.005 C 
ATOM      7  C   LIG    1       25.450 -31.107  11.200  0.00  0.00    +0.034 C 
ATOM      8  C   LIG    1       24.352 -32.188  11.172  0.00  0.00    +0.011 C 
ATOM      9  C   LIG    1       24.631 -33.262  10.125  0.00  0.00    +0.032 C 
ATOM     10  C   LIG    1       24.787 -32.579   8.792  0.00  0.00    -0.057 C 
ATOM     11  C   LIG    1       25.955 -31.579   8.688  0.00  0.00    +0.026 C 
ATOM     12  C   LIG    1       27.303 -32.312   8.921  0.00  0.00    +0.019 C 
ATOM     13  C   LIG    1       26.029 -31.055   7.220  0.00  0.00    +0.022 C 
ATOM     14  C   LIG    1       24.687 -30.689   6.609  0.00  0.00    +0.080 C 
ATOM     15  C   LIG    1       23.774 -31.887   6.652  0.00  0.00    +0.156 C 
ATOM     16  O   LIG    1       22.930 -32.107   5.791  0.00  0.00    -0.293 OA
ATOM     17  C   LIG    1       23.842 -32.755   7.849  0.00  0.00    +0.046 C 
ATOM     18  C   LIG    1       25.717 -30.471   9.798  0.00  0.00    +0.149 C 
ATOM     19  F   LIG    1       24.585 -29.783   9.429  0.00  0.00    -0.238 F 
ATOM     20  C   LIG    1       26.834 -29.409   9.953  0.00  0.00    +0.153 C 
ATOM     21  C   LIG    1       26.517 -28.371  11.043  0.00  0.00    +0.044 C 
ENDROOT
BRANCH   3  22
ATOM     22  O   LIG    1       25.343 -28.659  14.701  0.00  0.00    -0.380 OA
ATOM     23  H   LIG    1       26.182 -29.148  14.845  0.00  0.00    +0.211 HD
ENDBRANCH   3  22
BRANCH   3  24
ATOM     24  C   LIG    1       26.021 -26.589  13.771  0.00  0.00    +0.190 C 
ATOM     25  O   LIG    1       25.626 -25.598  13.135  0.00  0.00    -0.292 OA
BRANCH  24  26
ATOM     26  C   LIG    1       27.041 -26.396  14.871  0.00  0.00    +0.233 C 
BRANCH  26  27
ATOM     27  O   LIG    1       28.331 -26.180  14.329  0.00  0.00    -0.387 OA
ATOM     28  H   LIG    1       28.348 -25.262  13.999  0.00  0.00    +0.210 HD
ENDBRANCH  26  27
ENDBRANCH  24  26
ENDBRANCH   3  24
BRANCH  20  29
ATOM     29  O   LIG    1       27.031 -28.670   8.746  0.00  0.00    -0.389 OA
ATOM     30  H   LIG    1       27.705 -27.989   8.935  0.00  0.00    +0.210 HD
ENDBRANCH  20  29
TORSDOF 5
ENDMDL
MODEL 8
REMARK VINA RESULT:      -5.2      2.025      3.400
REMARK  Name = *****
REMARK                            x       y       z     vdW  Elec       q    Type
REMARK                         _______ _______ _______ _____ _____    ______ ____
ROOT
ATOM      1  C   LIG    1       24.805 -29.298   7.437  0.00  0.00    +0.015 C 
ATOM      2  C   LIG    1       24.690 -30.758   7.907  0.00  0.00    +0.009 C 
ATOM      3  C   LIG    1       24.626 -31.744   6.696  0.00  0.00    +0.132 C 
ATOM      4  C   LIG    1       24.074 -33.034   7.307  0.00  0.00    +0.043 C 
ATOM      5  C   LIG    1       23.128 -32.571   8.429  0.00  0.00    +0.008 C 
ATOM      6  C   LIG    1       23.305 -31.041   8.554  0.00  0.00    +0.005 C 
ATOM      7  C   LIG    1       23.107 -30.432   9.958  0.00  0.00    +0.034 C 
ATOM      8  C   LIG    1       21.697 -30.755  10.492  0.00  0.00    +0.011 C 
ATOM      9  C   LIG    1       21.438 -30.115  11.853  0.00  0.00    +0.032 C 
ATOM     10  C   LIG    1       22.520 -30.576  12.794  0.00  0.00    -0.057 C 
ATOM     11  C   LIG    1       23.957 -30.172  12.408  0.00  0.00    +0.026 C 
ATOM     12  C   LIG    1       24.084 -28.626  12.380  0.00  0.00    +0.019 C 
ATOM     13  C   LIG    1       24.923 -30.636  13.541  0.00  0.00    +0.022 C 
ATOM     14  C   LIG    1       24.665 -32.041  14.059  0.00  0.00    +0.080 C 
ATOM     15  C   LIG    1       23.248 -32.137  14.560  0.00  0.00    +0.156 C 
ATOM     16  O   LIG    1       22.925 -32.854  15.500  0.00  0.00    -0.293 OA
ATOM     17  C   LIG    1       22.204 -31.414  13.799  0.00  0.00    +0.046 C 
ATOM     18  C   LIG    1       24.241 -30.787  10.973  0.00  0.00    +0.149 C 
ATOM     19  F   LIG    1       24.250 -32.154  11.126  0.00  0.00    -0.238 F 
ATOM     20  C   LIG    1       25.600 -30.417  10.328  0.00  0.00    +0.153 C 
ATOM     21  C   LIG    1       25.795 -31.062   8.945  0.00  0.00    +0.044 C 
ENDROOT
BRANCH   3  22
ATOM     22  O   LIG    1       23.585 -31.272   5.796  0.00  0.00    -0.380 OA
ATOM     23  H   LIG    1       22.758 -31.731   6.056  0.00  0.00    +0.211 HD
ENDBRANCH   3  22
BRANCH   3  24
ATOM     24  C   LIG    1       25.843 -31.989   5.783  0.00  0.00    +0.190 C 
ATOM     25  O   LIG    1       26.921 -32.345   6.285  0.00  0.00    -0.292 OA
BRANCH  24  26
ATOM     26  C   LIG    1       25.759 -31.798   4.285  0.00  0.00    +0.233 C 
BRANCH  26  27
ATOM     27  O   LIG    1       24.774 -32.646   3.723  0.00  0.00    -0.387 OA
ATOM     28  H   LIG    1       24.185 -32.080   3.189  0.00  0.00    +0.210 HD
ENDBRANCH  26  27
ENDBRANCH  24  26
ENDBRANCH   3  24
BRANCH  20  29
ATOM     29  O   LIG    1       26.700 -30.853  11.128  0.00  0.00    -0.389 OA
ATOM     30  H   LIG    1       26.806 -30.203  11.848  0.00  0.00    +0.210 HD
ENDBRANCH  20  29
TORSDOF 5
ENDMDL
MODEL 9
REMARK VINA RESULT:      -5.1      2.547      3.966
REMARK  Name = *****
REMARK                            x       y       z     vdW  Elec       q    Type
REMARK                         _______ _______ _______ _____ _____    ______ ____
ROOT
ATOM      1  C   LIG    1       23.405 -30.119   8.981  0.00  0.00    +0.015 C 
ATOM      2  C   LIG    1       24.868 -30.593   8.955  0.00  0.00    +0.009 C 
ATOM      3  C   LIG    1       25.196 -31.359   7.632  0.00  0.00    +0.132 C 
ATOM      4  C   LIG    1       26.483 -32.118   7.962  0.00  0.00    +0.043 C 
ATOM      5  C   LIG    1       26.372 -32.459   9.458  0.00  0.00    +0.008 C 
ATOM      6  C   LIG    1       25.118 -31.727   9.988  0.00  0.00    +0.005 C 
ATOM      7  C   LIG    1       25.152 -31.270  11.461  0.00  0.00    +0.034 C 
ATOM      8  C   LIG    1       25.383 -32.474  12.395  0.00  0.00    +0.011 C 
ATOM      9  C   LIG    1       25.359 -32.072  13.867  0.00  0.00    +0.032 C 
ATOM     10  C   LIG    1       26.390 -30.993  14.069  0.00  0.00    -0.057 C 
ATOM     11  C   LIG    1       26.157 -29.692  13.275  0.00  0.00    +0.026 C 
ATOM     12  C   LIG    1       24.812 -29.044  13.700  0.00  0.00    +0.019 C 
ATOM     13  C   LIG    1       27.251 -28.659  13.687  0.00  0.00    +0.022 C 
ATOM     14  C   LIG    1       28.657 -29.226  13.779  0.00  0.00    +0.080 C 
ATOM     15  C   LIG    1       28.673 -30.367  14.761  0.00  0.00    +0.156 C 
ATOM     16  O   LIG    1       29.646 -30.625  15.461  0.00  0.00    -0.293 OA
ATOM     17  C   LIG    1       27.497 -31.268  14.782  0.00  0.00    +0.046 C 
ATOM     18  C   LIG    1       26.133 -30.085  11.738  0.00  0.00    +0.149 C 
ATOM     19  F   LIG    1       27.401 -30.511  11.421  0.00  0.00    -0.238 F 
ATOM     20  C   LIG    1       25.801 -28.942  10.746  0.00  0.00    +0.153 C 
ATOM     21  C   LIG    1       25.808 -29.409   9.281  0.00  0.00    +0.044 C 
ENDROOT
BRANCH   3  22
ATOM     22  O   LIG    1       24.181 -32.385   7.452  0.00  0.00    -0.380 OA
ATOM     23  H   LIG    1       23.795 -32.557   8.337  0.00  0.00    +0.211 HD
ENDBRANCH   3  22
BRANCH   3  24
ATOM     24  C   LIG    1       25.260 -30.637   6.271  0.00  0.00    +0.190 C 
ATOM     25  O   LIG    1       25.999 -31.083   5.379  0.00  0.00    -0.292 OA
BRANCH  24  26
ATOM     26  C   LIG    1       24.447 -29.392   5.998  0.00  0.00    +0.233 C 
BRANCH  26  27
ATOM     27  O   LIG    1       23.165 -29.726   5.501  0.00  0.00    -0.387 OA
ATOM     28  H   LIG    1       22.673 -28.889   5.401  0.00  0.00    +0.210 HD
ENDBRANCH  26  27
ENDBRANCH  24  26
ENDBRANCH   3  24
BRANCH  20  29
ATOM     29  O   LIG    1       26.753 -27.880  10.828  0.00  0.00    -0.389 OA
ATOM     30  H   LIG    1       27.199 -27.828   9.961  0.00  0.00    +0.210 HD
ENDBRANCH  20  29
TORSDOF 5
ENDMDL
