MODEL 1
REMARK VINA RESULT:      -9.7      0.000      0.000
REMARK  Name = *****
REMARK                            x       y       z     vdW  Elec       q    Type
REMARK                         _______ _______ _______ _____ _____    ______ ____
ROOT
ATOM      1  N   LIG    1       23.447 -23.762   6.433  0.00  0.00    -0.311 NA
ATOM      2  H   LIG    1       23.403 -23.543   5.437  0.00  0.00    +0.122 HD
ENDROOT
BRANCH   1   3
ATOM      3  C   LIG    1       23.098 -22.556   7.200  0.00  0.00    +0.115 C 
BRANCH   3   4
ATOM      4  C   LIG    1       22.867 -21.341   6.276  0.00  0.00    +0.169 C 
BRANCH   4   5
ATOM      5  C   LIG    1       24.167 -20.546   6.024  0.00  0.00    +0.203 C 
ATOM      6  O   LIG    1       25.111 -20.899   7.047  0.00  0.00    -0.486 OA
ATOM      7  C   LIG    1       26.398 -20.497   6.835  0.00  0.00    +0.124 A 
ATOM      8  C   LIG    1       26.870 -20.034   5.599  0.00  0.00    -0.003 A 
ATOM      9  C   LIG    1       28.212 -19.656   5.483  0.00  0.00    +0.045 A 
ATOM     10  C   LIG    1       29.066 -19.761   6.580  0.00  0.00    +0.124 A 
ATOM     11  C   LIG    1       28.600 -20.239   7.801  0.00  0.00    +0.042 A 
ATOM     12  F   LIG    1       30.346 -19.403   6.456  0.00  0.00    -0.205 F 
ATOM     13  C   LIG    1       25.957 -19.921   4.418  0.00  0.00    +0.042 C 
ATOM     14  C   LIG    1       27.264 -20.609   7.925  0.00  0.00    +0.049 A 
ATOM     15  C   LIG    1       24.731 -20.791   4.621  0.00  0.00    +0.052 C 
ENDBRANCH   4   5
BRANCH   4  16
ATOM     16  O   LIG    1       22.318 -21.772   5.022  0.00  0.00    -0.387 OA
ATOM     17  H   LIG    1       23.005 -21.589   4.354  0.00  0.00    +0.210 HD
ENDBRANCH   4  16
ENDBRANCH   3   4
ENDBRANCH   1   3
BRANCH   1  18
ATOM     18  C   LIG    1       24.809 -24.209   6.775  0.00  0.00    +0.115 C 
BRANCH  18  19
ATOM     19  C   LIG    1       25.490 -24.950   5.600  0.00  0.00    +0.169 C 
BRANCH  19  20
ATOM     20  C   LIG    1       25.557 -26.472   5.861  0.00  0.00    +0.203 C 
ATOM     21  O   LIG    1       25.957 -26.667   7.233  0.00  0.00    -0.486 OA
ATOM     22  C   LIG    1       25.838 -27.947   7.700  0.00  0.00    +0.124 A 
ATOM     23  C   LIG    1       25.082 -28.937   7.059  0.00  0.00    -0.003 A 
ATOM     24  C   LIG    1       25.025 -30.219   7.620  0.00  0.00    +0.045 A 
ATOM     25  C   LIG    1       25.689 -30.486   8.813  0.00  0.00    +0.124 A 
ATOM     26  C   LIG    1       26.419 -29.496   9.463  0.00  0.00    +0.042 A 
ATOM     27  F   LIG    1       25.621 -31.711   9.346  0.00  0.00    -0.205 F 
ATOM     28  C   LIG    1       24.360 -28.641   5.777  0.00  0.00    +0.042 C 
ATOM     29  C   LIG    1       26.491 -28.222   8.904  0.00  0.00    +0.049 A 
ATOM     30  C   LIG    1       24.209 -27.139   5.589  0.00  0.00    +0.052 C 
ENDBRANCH  19  20
BRANCH  19  31
ATOM     31  O   LIG    1       24.777 -24.707   4.379  0.00  0.00    -0.387 OA
ATOM     32  H   LIG    1       24.363 -25.557   4.137  0.00  0.00    +0.210 HD
ENDBRANCH  19  31
ENDBRANCH  18  19
ENDBRANCH   1  18
TORSDOF 8
ENDMDL
MODEL 2
REMARK VINA RESULT:      -9.7      2.938      4.292
REMARK  Name = *****
REMARK                            x       y       z     vdW  Elec       q    Type
REMARK                         _______ _______ _______ _____ _____    ______ ____
ROOT
ATOM      1  N   LIG    1       24.316 -27.048   6.053  0.00  0.00    -0.311 NA
ATOM      2  H   LIG    1       23.353 -27.377   6.118  0.00  0.00    +0.122 HD
ENDROOT
BRANCH   1   3
ATOM      3  C   LIG    1       24.330 -25.755   5.352  0.00  0.00    +0.115 C 
BRANCH   3   4
ATOM      4  C   LIG    1       25.410 -24.810   5.923  0.00  0.00    +0.169 C 
BRANCH   4   5
ATOM      5  C   LIG    1       24.864 -23.388   6.176  0.00  0.00    +0.203 C 
ATOM      6  O   LIG    1       24.904 -22.667   4.935  0.00  0.00    -0.486 OA
ATOM      7  C   LIG    1       24.218 -21.487   4.909  0.00  0.00    +0.124 A 
ATOM      8  C   LIG    1       23.292 -21.108   5.889  0.00  0.00    -0.003 A 
ATOM      9  C   LIG    1       22.633 -19.880   5.764  0.00  0.00    +0.045 A 
ATOM     10  C   LIG    1       22.885 -19.060   4.665  0.00  0.00    +0.124 A 
ATOM     11  C   LIG    1       23.791 -19.446   3.682  0.00  0.00    +0.042 A 
ATOM     12  F   LIG    1       22.246 -17.893   4.552  0.00  0.00    -0.205 F 
ATOM     13  C   LIG    1       23.016 -21.987   7.070  0.00  0.00    +0.042 C 
ATOM     14  C   LIG    1       24.456 -20.663   3.805  0.00  0.00    +0.049 A 
ATOM     15  C   LIG    1       23.454 -23.409   6.776  0.00  0.00    +0.052 C 
ENDBRANCH   4   5
BRANCH   4  16
ATOM     16  O   LIG    1       25.937 -25.345   7.146  0.00  0.00    -0.387 OA
ATOM     17  H   LIG    1       25.430 -26.159   7.321  0.00  0.00    +0.210 HD
ENDBRANCH   4  16
ENDBRANCH   3   4
ENDBRANCH   1   3
BRANCH   1  18
ATOM     18  C   LIG    1       25.121 -28.038   5.314  0.00  0.00    +0.115 C 
BRANCH  18  19
ATOM     19  C   LIG    1       24.610 -29.481   5.532  0.00  0.00    +0.169 C 
BRANCH  19  20
ATOM     20  C   LIG    1       25.111 -30.057   6.876  0.00  0.00    +0.203 C 
ATOM     21  O   LIG    1       25.609 -28.959   7.668  0.00  0.00    -0.486 OA
ATOM     22  C   LIG    1       25.873 -29.254   8.977  0.00  0.00    +0.124 A 
ATOM     23  C   LIG    1       25.396 -30.402   9.622  0.00  0.00    -0.003 A 
ATOM     24  C   LIG    1       25.723 -30.612  10.967  0.00  0.00    +0.045 A 
ATOM     25  C   LIG    1       26.487 -29.671  11.652  0.00  0.00    +0.124 A 
ATOM     26  C   LIG    1       26.940 -28.519  11.018  0.00  0.00    +0.042 A 
ATOM     27  F   LIG    1       26.787 -29.876  12.940  0.00  0.00    -0.205 F 
ATOM     28  C   LIG    1       24.565 -31.408   8.882  0.00  0.00    +0.042 C 
ATOM     29  C   LIG    1       26.629 -28.310   9.677  0.00  0.00    +0.049 A 
ATOM     30  C   LIG    1       23.992 -30.792   7.614  0.00  0.00    +0.052 C 
ENDBRANCH  19  20
BRANCH  19  31
ATOM     31  O   LIG    1       23.176 -29.510   5.508  0.00  0.00    -0.387 OA
ATOM     32  H   LIG    1       22.918 -30.351   5.929  0.00  0.00    +0.210 HD
ENDBRANCH  19  31
ENDBRANCH  18  19
ENDBRANCH   1  18
TORSDOF 8
ENDMDL
MODEL 3
REMARK VINA RESULT:      -9.7      2.969      8.991
REMARK  Name = *****
REMARK                            x       y       z     vdW  Elec       q    Type
REMARK                         _______ _______ _______ _____ _____    ______ ____
ROOT
ATOM      1  N   LIG    1       24.316 -27.103   6.085  0.00  0.00    -0.311 NA
ATOM      2  H   LIG    1       24.723 -26.976   7.012  0.00  0.00    +0.122 HD
ENDROOT
BRANCH   1   3
ATOM      3  C   LIG    1       25.116 -28.093   5.348  0.00  0.00    +0.115 C 
BRANCH   3   4
ATOM      4  C   LIG    1       24.620 -29.532   5.604  0.00  0.00    +0.169 C 
BRANCH   4   5
ATOM      5  C   LIG    1       25.096 -30.077   6.969  0.00  0.00    +0.203 C 
ATOM      6  O   LIG    1       25.661 -28.986   7.712  0.00  0.00    -0.486 OA
ATOM      7  C   LIG    1       25.892 -29.223   9.036  0.00  0.00    +0.124 A 
ATOM      8  C   LIG    1       25.367 -30.322   9.729  0.00  0.00    -0.003 A 
ATOM      9  C   LIG    1       25.655 -30.469  11.090  0.00  0.00    +0.045 A 
ATOM     10  C   LIG    1       26.438 -29.520  11.745  0.00  0.00    +0.124 A 
ATOM     11  C   LIG    1       26.943 -28.419  11.061  0.00  0.00    +0.042 A 
ATOM     12  F   LIG    1       26.701 -29.666  13.046  0.00  0.00    -0.205 F 
ATOM     13  C   LIG    1       24.523 -31.343   9.029  0.00  0.00    +0.042 C 
ATOM     14  C   LIG    1       26.667 -28.271   9.705  0.00  0.00    +0.049 A 
ATOM     15  C   LIG    1       23.967 -30.766   7.742  0.00  0.00    +0.052 C 
ENDBRANCH   4   5
BRANCH   4  16
ATOM     16  O   LIG    1       23.186 -29.577   5.545  0.00  0.00    -0.387 OA
ATOM     17  H   LIG    1       22.910 -30.197   6.244  0.00  0.00    +0.210 HD
ENDBRANCH   4  16
ENDBRANCH   3   4
ENDBRANCH   1   3
BRANCH   1  18
ATOM     18  C   LIG    1       24.313 -25.814   5.371  0.00  0.00    +0.115 C 
BRANCH  18  19
ATOM     19  C   LIG    1       25.424 -24.866   5.881  0.00  0.00    +0.169 C 
BRANCH  19  20
ATOM     20  C   LIG    1       24.875 -23.444   6.136  0.00  0.00    +0.203 C 
ATOM     21  O   LIG    1       24.855 -22.746   4.874  0.00  0.00    -0.486 OA
ATOM     22  C   LIG    1       24.179 -21.558   4.873  0.00  0.00    +0.124 A 
ATOM     23  C   LIG    1       23.280 -21.179   5.879  0.00  0.00    -0.003 A 
ATOM     24  C   LIG    1       22.637 -19.938   5.784  0.00  0.00    +0.045 A 
ATOM     25  C   LIG    1       22.872 -19.115   4.687  0.00  0.00    +0.124 A 
ATOM     26  C   LIG    1       23.745 -19.503   3.676  0.00  0.00    +0.042 A 
ATOM     27  F   LIG    1       22.246 -17.936   4.601  0.00  0.00    -0.205 F 
ATOM     28  C   LIG    1       23.024 -22.074   7.055  0.00  0.00    +0.042 C 
ATOM     29  C   LIG    1       24.398 -20.730   3.769  0.00  0.00    +0.049 A 
ATOM     30  C   LIG    1       23.474 -23.494   6.747  0.00  0.00    +0.052 C 
ENDBRANCH  19  20
BRANCH  19  31
ATOM     31  O   LIG    1       25.998 -25.378   7.092  0.00  0.00    -0.387 OA
ATOM     32  H   LIG    1       25.981 -26.350   7.007  0.00  0.00    +0.210 HD
ENDBRANCH  19  31
ENDBRANCH  18  19
ENDBRANCH   1  18
TORSDOF 8
ENDMDL
MODEL 4
REMARK VINA RESULT:      -9.7      0.072      8.205
REMARK  Name = *****
REMARK                            x       y       z     vdW  Elec       q    Type
REMARK                         _______ _______ _______ _____ _____    ______ ____
ROOT
ATOM      1  N   LIG    1       23.457 -23.746   6.481  0.00  0.00    -0.311 NA
ATOM      2  H   LIG    1       22.797 -24.473   6.758  0.00  0.00    +0.122 HD
ENDROOT
BRANCH   1   3
ATOM      3  C   LIG    1       24.821 -24.203   6.787  0.00  0.00    +0.115 C 
BRANCH   3   4
ATOM      4  C   LIG    1       25.444 -24.970   5.601  0.00  0.00    +0.169 C 
BRANCH   4   5
ATOM      5  C   LIG    1       25.521 -26.489   5.867  0.00  0.00    +0.203 C 
ATOM      6  O   LIG    1       25.968 -26.684   7.218  0.00  0.00    -0.486 OA
ATOM      7  C   LIG    1       25.842 -27.950   7.711  0.00  0.00    +0.124 A 
ATOM      8  C   LIG    1       25.075 -28.948   7.095  0.00  0.00    -0.003 A 
ATOM      9  C   LIG    1       25.003 -30.213   7.688  0.00  0.00    +0.045 A 
ATOM     10  C   LIG    1       25.670 -30.463   8.886  0.00  0.00    +0.124 A 
ATOM     11  C   LIG    1       26.416 -29.466   9.507  0.00  0.00    +0.042 A 
ATOM     12  F   LIG    1       25.589 -31.673   9.446  0.00  0.00    -0.205 F 
ATOM     13  C   LIG    1       24.354 -28.683   5.810  0.00  0.00    +0.042 C 
ATOM     14  C   LIG    1       26.499 -28.208   8.917  0.00  0.00    +0.049 A 
ATOM     15  C   LIG    1       24.184 -27.190   5.605  0.00  0.00    +0.052 C 
ENDBRANCH   4   5
BRANCH   4  16
ATOM     16  O   LIG    1       24.686 -24.731   4.406  0.00  0.00    -0.387 OA
ATOM     17  H   LIG    1       24.588 -25.599   3.975  0.00  0.00    +0.210 HD
ENDBRANCH   4  16
ENDBRANCH   3   4
ENDBRANCH   1   3
BRANCH   1  18
ATOM     18  C   LIG    1       23.156 -22.505   7.217  0.00  0.00    +0.115 C 
BRANCH  18  19
ATOM     19  C   LIG    1       22.905 -21.312   6.266  0.00  0.00    +0.169 C 
BRANCH  19  20
ATOM     20  C   LIG    1       24.203 -20.510   6.018  0.00  0.00    +0.203 C 
ATOM     21  O   LIG    1       25.156 -20.888   7.032  0.00  0.00    -0.486 OA
ATOM     22  C   LIG    1       26.435 -20.452   6.824  0.00  0.00    +0.124 A 
ATOM     23  C   LIG    1       26.900 -19.980   5.590  0.00  0.00    -0.003 A 
ATOM     24  C   LIG    1       28.231 -19.557   5.481  0.00  0.00    +0.045 A 
ATOM     25  C   LIG    1       29.078 -19.637   6.582  0.00  0.00    +0.124 A 
ATOM     26  C   LIG    1       28.623 -20.128   7.801  0.00  0.00    +0.042 A 
ATOM     27  F   LIG    1       30.350 -19.238   6.466  0.00  0.00    -0.205 F 
ATOM     28  C   LIG    1       25.985 -19.905   4.403  0.00  0.00    +0.042 C 
ATOM     29  C   LIG    1       27.297 -20.540   7.920  0.00  0.00    +0.049 A 
ATOM     30  C   LIG    1       24.763 -20.784   4.621  0.00  0.00    +0.052 C 
ENDBRANCH  19  20
BRANCH  19  31
ATOM     31  O   LIG    1       22.385 -21.776   5.012  0.00  0.00    -0.387 OA
ATOM     32  H   LIG    1       22.741 -21.171   4.334  0.00  0.00    +0.210 HD
ENDBRANCH  19  31
ENDBRANCH  18  19
ENDBRANCH   1  18
TORSDOF 8
ENDMDL
MODEL 5
REMARK VINA RESULT:      -9.5      0.959      8.491
REMARK  Name = *****
REMARK                            x       y       z     vdW  Elec       q    Type
REMARK                         _______ _______ _______ _____ _____    ______ ____
ROOT
ATOM      1  N   LIG    1       23.267 -23.728   6.066  0.00  0.00    -0.311 NA
ATOM      2  H   LIG    1       22.382 -24.164   6.321  0.00  0.00    +0.122 HD
ENDROOT
BRANCH   1   3
ATOM      3  C   LIG    1       24.362 -24.445   6.738  0.00  0.00    +0.115 C 
BRANCH   3   4
ATOM      4  C   LIG    1       25.330 -25.089   5.723  0.00  0.00    +0.169 C 
BRANCH   4   5
ATOM      5  C   LIG    1       25.497 -26.605   5.960  0.00  0.00    +0.203 C 
ATOM      6  O   LIG    1       25.922 -26.801   7.317  0.00  0.00    -0.486 OA
ATOM      7  C   LIG    1       25.866 -28.083   7.781  0.00  0.00    +0.124 A 
ATOM      8  C   LIG    1       25.181 -29.114   7.125  0.00  0.00    -0.003 A 
ATOM      9  C   LIG    1       25.175 -30.394   7.689  0.00  0.00    +0.045 A 
ATOM     10  C   LIG    1       25.828 -30.628   8.899  0.00  0.00    +0.124 A 
ATOM     11  C   LIG    1       26.492 -29.599   9.559  0.00  0.00    +0.042 A 
ATOM     12  F   LIG    1       25.811 -31.852   9.432  0.00  0.00    -0.205 F 
ATOM     13  C   LIG    1       24.477 -28.868   5.826  0.00  0.00    +0.042 C 
ATOM     14  C   LIG    1       26.508 -28.325   8.998  0.00  0.00    +0.049 A 
ATOM     15  C   LIG    1       24.215 -27.384   5.648  0.00  0.00    +0.052 C 
ENDBRANCH   4   5
BRANCH   4  16
ATOM     16  O   LIG    1       24.863 -24.862   4.384  0.00  0.00    -0.387 OA
ATOM     17  H   LIG    1       24.342 -24.039   4.420  0.00  0.00    +0.210 HD
ENDBRANCH   4  16
ENDBRANCH   3   4
ENDBRANCH   1   3
BRANCH   1  18
ATOM     18  C   LIG    1       23.253 -22.313   6.480  0.00  0.00    +0.115 C 
BRANCH  18  19
ATOM     19  C   LIG    1       24.182 -21.442   5.602  0.00  0.00    +0.169 C 
BRANCH  19  20
ATOM     20  C   LIG    1       25.593 -21.325   6.221  0.00  0.00    +0.203 C 
ATOM     21  O   LIG    1       26.302 -20.289   5.510  0.00  0.00    -0.486 OA
ATOM     22  C   LIG    1       27.480 -19.891   6.079  0.00  0.00    +0.124 A 
ATOM     23  C   LIG    1       27.837 -20.181   7.402  0.00  0.00    -0.003 A 
ATOM     24  C   LIG    1       29.068 -19.726   7.890  0.00  0.00    +0.045 A 
ATOM     25  C   LIG    1       29.904 -18.972   7.072  0.00  0.00    +0.124 A 
ATOM     26  C   LIG    1       29.539 -18.663   5.766  0.00  0.00    +0.042 A 
ATOM     27  F   LIG    1       31.075 -18.535   7.550  0.00  0.00    -0.205 F 
ATOM     28  C   LIG    1       26.927 -20.986   8.283  0.00  0.00    +0.042 C 
ATOM     29  C   LIG    1       28.321 -19.123   5.270  0.00  0.00    +0.049 A 
ATOM     30  C   LIG    1       25.516 -21.002   7.714  0.00  0.00    +0.052 C 
ENDBRANCH  19  20
BRANCH  19  31
ATOM     31  O   LIG    1       24.285 -21.998   4.283  0.00  0.00    -0.387 OA
ATOM     32  H   LIG    1       24.959 -22.700   4.341  0.00  0.00    +0.210 HD
ENDBRANCH  19  31
ENDBRANCH  18  19
ENDBRANCH   1  18
TORSDOF 8
ENDMDL
MODEL 6
REMARK VINA RESULT:      -9.5      3.018      4.510
REMARK  Name = *****
REMARK                            x       y       z     vdW  Elec       q    Type
REMARK                         _______ _______ _______ _____ _____    ______ ____
ROOT
ATOM      1  N   LIG    1       24.324 -27.024   6.046  0.00  0.00    -0.311 NA
ATOM      2  H   LIG    1       23.367 -27.331   6.217  0.00  0.00    +0.122 HD
ENDROOT
BRANCH   1   3
ATOM      3  C   LIG    1       24.290 -25.729   5.349  0.00  0.00    +0.115 C 
BRANCH   3   4
ATOM      4  C   LIG    1       25.391 -24.776   5.863  0.00  0.00    +0.169 C 
BRANCH   4   5
ATOM      5  C   LIG    1       24.853 -23.351   6.119  0.00  0.00    +0.203 C 
ATOM      6  O   LIG    1       24.858 -22.641   4.871  0.00  0.00    -0.486 OA
ATOM      7  C   LIG    1       24.173 -21.461   4.853  0.00  0.00    +0.124 A 
ATOM      8  C   LIG    1       23.276 -21.072   5.856  0.00  0.00    -0.003 A 
ATOM      9  C   LIG    1       22.615 -19.845   5.739  0.00  0.00    +0.045 A 
ATOM     10  C   LIG    1       22.836 -19.035   4.626  0.00  0.00    +0.124 A 
ATOM     11  C   LIG    1       23.713 -19.431   3.621  0.00  0.00    +0.042 A 
ATOM     12  F   LIG    1       22.195 -17.868   4.521  0.00  0.00    -0.205 F 
ATOM     13  C   LIG    1       23.033 -21.940   7.053  0.00  0.00    +0.042 C 
ATOM     14  C   LIG    1       24.380 -20.647   3.736  0.00  0.00    +0.049 A 
ATOM     15  C   LIG    1       23.462 -23.365   6.759  0.00  0.00    +0.052 C 
ENDBRANCH   4   5
BRANCH   4  16
ATOM     16  O   LIG    1       25.967 -25.295   7.071  0.00  0.00    -0.387 OA
ATOM     17  H   LIG    1       26.150 -26.236   6.896  0.00  0.00    +0.210 HD
ENDBRANCH   4  16
ENDBRANCH   3   4
ENDBRANCH   1   3
BRANCH   1  18
ATOM     18  C   LIG    1       25.021 -28.029   5.224  0.00  0.00    +0.115 C 
BRANCH  18  19
ATOM     19  C   LIG    1       24.587 -29.471   5.578  0.00  0.00    +0.169 C 
BRANCH  19  20
ATOM     20  C   LIG    1       25.020 -29.850   7.012  0.00  0.00    +0.203 C 
ATOM     21  O   LIG    1       23.836 -29.886   7.835  0.00  0.00    -0.486 OA
ATOM     22  C   LIG    1       24.003 -30.434   9.077  0.00  0.00    +0.124 A 
ATOM     23  C   LIG    1       25.110 -31.215   9.435  0.00  0.00    -0.003 A 
ATOM     24  C   LIG    1       25.186 -31.731  10.735  0.00  0.00    +0.045 A 
ATOM     25  C   LIG    1       24.157 -31.491  11.640  0.00  0.00    +0.124 A 
ATOM     26  C   LIG    1       23.046 -30.736  11.277  0.00  0.00    +0.042 A 
ATOM     27  F   LIG    1       24.235 -31.996  12.877  0.00  0.00    -0.205 F 
ATOM     28  C   LIG    1       26.212 -31.479   8.452  0.00  0.00    +0.042 C 
ATOM     29  C   LIG    1       22.969 -30.209   9.990  0.00  0.00    +0.049 A 
ATOM     30  C   LIG    1       25.735 -31.202   7.034  0.00  0.00    +0.052 C 
ENDBRANCH  19  20
BRANCH  19  31
ATOM     31  O   LIG    1       23.164 -29.606   5.459  0.00  0.00    -0.387 OA
ATOM     32  H   LIG    1       22.923 -30.389   5.989  0.00  0.00    +0.210 HD
ENDBRANCH  19  31
ENDBRANCH  18  19
ENDBRANCH   1  18
TORSDOF 8
ENDMDL
MODEL 7
REMARK VINA RESULT:      -9.0      2.899      8.430
REMARK  Name = *****
REMARK                            x       y       z     vdW  Elec       q    Type
REMARK                         _______ _______ _______ _____ _____    ______ ____
ROOT
ATOM      1  N   LIG    1       25.775 -28.782   5.319  0.00  0.00    -0.311 NA
ATOM      2  H   LIG    1       25.997 -29.337   4.493  0.00  0.00    +0.122 HD
ENDROOT
BRANCH   1   3
ATOM      3  C   LIG    1       24.461 -29.199   5.832  0.00  0.00    +0.115 C 
BRANCH   3   4
ATOM      4  C   LIG    1       24.496 -30.638   6.388  0.00  0.00    +0.169 C 
BRANCH   4   5
ATOM      5  C   LIG    1       24.681 -30.665   7.920  0.00  0.00    +0.203 C 
ATOM      6  O   LIG    1       25.625 -29.643   8.274  0.00  0.00    -0.486 OA
ATOM      7  C   LIG    1       25.712 -29.346   9.604  0.00  0.00    +0.124 A 
ATOM      8  C   LIG    1       24.770 -29.763  10.554  0.00  0.00    -0.003 A 
ATOM      9  C   LIG    1       24.945 -29.396  11.892  0.00  0.00    +0.045 A 
ATOM     10  C   LIG    1       26.032 -28.607  12.264  0.00  0.00    +0.124 A 
ATOM     11  C   LIG    1       26.957 -28.177  11.317  0.00  0.00    +0.042 A 
ATOM     12  F   LIG    1       26.186 -28.257  13.543  0.00  0.00    -0.205 F 
ATOM     13  C   LIG    1       23.599 -30.609  10.158  0.00  0.00    +0.042 C 
ATOM     14  C   LIG    1       26.793 -28.546   9.985  0.00  0.00    +0.049 A 
ATOM     15  C   LIG    1       23.353 -30.493   8.665  0.00  0.00    +0.052 C 
ENDBRANCH   4   5
BRANCH   4  16
ATOM     16  O   LIG    1       23.289 -31.332   6.038  0.00  0.00    -0.387 OA
ATOM     17  H   LIG    1       23.418 -32.253   6.328  0.00  0.00    +0.210 HD
ENDBRANCH   4  16
ENDBRANCH   3   4
ENDBRANCH   1   3
BRANCH   1  18
ATOM     18  C   LIG    1       25.753 -27.353   4.958  0.00  0.00    +0.115 C 
BRANCH  18  19
ATOM     19  C   LIG    1       26.462 -26.476   6.016  0.00  0.00    +0.169 C 
BRANCH  19  20
ATOM     20  C   LIG    1       25.496 -25.430   6.617  0.00  0.00    +0.203 C 
ATOM     21  O   LIG    1       26.119 -24.135   6.502  0.00  0.00    -0.486 OA
ATOM     22  C   LIG    1       25.306 -23.069   6.768  0.00  0.00    +0.124 A 
ATOM     23  C   LIG    1       23.909 -23.154   6.813  0.00  0.00    -0.003 A 
ATOM     24  C   LIG    1       23.166 -22.000   7.094  0.00  0.00    +0.045 A 
ATOM     25  C   LIG    1       23.815 -20.786   7.295  0.00  0.00    +0.124 A 
ATOM     26  C   LIG    1       25.201 -20.697   7.226  0.00  0.00    +0.042 A 
ATOM     27  F   LIG    1       23.096 -19.688   7.554  0.00  0.00    -0.205 F 
ATOM     28  C   LIG    1       23.212 -24.464   6.586  0.00  0.00    +0.042 C 
ATOM     29  C   LIG    1       25.948 -21.842   6.959  0.00  0.00    +0.049 A 
ATOM     30  C   LIG    1       24.146 -25.447   5.897  0.00  0.00    +0.052 C 
ENDBRANCH  19  20
BRANCH  19  31
ATOM     31  O   LIG    1       26.991 -27.295   7.069  0.00  0.00    -0.387 OA
ATOM     32  H   LIG    1       27.088 -28.189   6.689  0.00  0.00    +0.210 HD
ENDBRANCH  19  31
ENDBRANCH  18  19
ENDBRANCH   1  18
TORSDOF 8
ENDMDL
MODEL 8
REMARK VINA RESULT:      -9.0      3.013      9.301
REMARK  Name = *****
REMARK                            x       y       z     vdW  Elec       q    Type
REMARK                         _______ _______ _______ _____ _____    ______ ____
ROOT
ATOM      1  N   LIG    1       25.563 -27.926   5.192  0.00  0.00    -0.311 NA
ATOM      2  H   LIG    1       26.027 -28.320   4.374  0.00  0.00    +0.122 HD
ENDROOT
BRANCH   1   3
ATOM      3  C   LIG    1       24.263 -28.593   5.369  0.00  0.00    +0.115 C 
BRANCH   3   4
ATOM      4  C   LIG    1       24.389 -29.864   6.236  0.00  0.00    +0.169 C 
BRANCH   4   5
ATOM      5  C   LIG    1       24.380 -29.540   7.746  0.00  0.00    +0.203 C 
ATOM      6  O   LIG    1       23.296 -30.262   8.351  0.00  0.00    -0.486 OA
ATOM      7  C   LIG    1       23.296 -30.305   9.715  0.00  0.00    +0.124 A 
ATOM      8  C   LIG    1       24.398 -29.943  10.501  0.00  0.00    -0.003 A 
ATOM      9  C   LIG    1       24.300 -30.034  11.894  0.00  0.00    +0.045 A 
ATOM     10  C   LIG    1       23.125 -30.498  12.483  0.00  0.00    +0.124 A 
ATOM     11  C   LIG    1       22.038 -30.876  11.701  0.00  0.00    +0.042 A 
ATOM     12  F   LIG    1       23.044 -30.586  13.813  0.00  0.00    -0.205 F 
ATOM     13  C   LIG    1       25.663 -29.446   9.872  0.00  0.00    +0.042 C 
ATOM     14  C   LIG    1       22.127 -30.780  10.315  0.00  0.00    +0.049 A 
ATOM     15  C   LIG    1       25.720 -29.861   8.415  0.00  0.00    +0.052 C 
ENDBRANCH   4   5
BRANCH   4  16
ATOM     16  O   LIG    1       23.321 -30.774   5.936  0.00  0.00    -0.387 OA
ATOM     17  H   LIG    1       23.726 -31.502   5.430  0.00  0.00    +0.210 HD
ENDBRANCH   4  16
ENDBRANCH   3   4
ENDBRANCH   1   3
BRANCH   1  18
ATOM     18  C   LIG    1       25.371 -26.478   4.996  0.00  0.00    +0.115 C 
BRANCH  18  19
ATOM     19  C   LIG    1       25.992 -25.649   6.145  0.00  0.00    +0.169 C 
BRANCH  19  20
ATOM     20  C   LIG    1       25.130 -24.408   6.471  0.00  0.00    +0.203 C 
ATOM     21  O   LIG    1       25.461 -23.378   5.518  0.00  0.00    -0.486 OA
ATOM     22  C   LIG    1       24.625 -22.296   5.512  0.00  0.00    +0.124 A 
ATOM     23  C   LIG    1       23.358 -22.295   6.109  0.00  0.00    -0.003 A 
ATOM     24  C   LIG    1       22.578 -21.133   6.047  0.00  0.00    +0.045 A 
ATOM     25  C   LIG    1       23.053 -20.012   5.373  0.00  0.00    +0.124 A 
ATOM     26  C   LIG    1       24.301 -20.021   4.759  0.00  0.00    +0.042 A 
ATOM     27  F   LIG    1       22.297 -18.910   5.312  0.00  0.00    -0.205 F 
ATOM     28  C   LIG    1       22.847 -23.510   6.826  0.00  0.00    +0.042 C 
ATOM     29  C   LIG    1       25.087 -21.169   4.827  0.00  0.00    +0.049 A 
ATOM     30  C   LIG    1       23.639 -24.741   6.412  0.00  0.00    +0.052 C 
ENDBRANCH  19  20
BRANCH  19  31
ATOM     31  O   LIG    1       26.130 -26.456   7.323  0.00  0.00    -0.387 OA
ATOM     32  H   LIG    1       25.229 -26.564   7.681  0.00  0.00    +0.210 HD
ENDBRANCH  19  31
ENDBRANCH  18  19
ENDBRANCH   1  18
TORSDOF 8
ENDMDL
MODEL 9
REMARK VINA RESULT:      -8.9      1.797      2.726
REMARK  Name = *****
REMARK                            x       y       z     vdW  Elec       q    Type
REMARK                         _______ _______ _______ _____ _____    ______ ____
ROOT
ATOM      1  N   LIG    1       24.032 -26.649   5.811  0.00  0.00    -0.311 NA
ATOM      2  H   LIG    1       23.223 -26.856   5.226  0.00  0.00    +0.122 HD
ENDROOT
BRANCH   1   3
ATOM      3  C   LIG    1       24.442 -25.255   5.579  0.00  0.00    +0.115 C 
BRANCH   3   4
ATOM      4  C   LIG    1       23.940 -24.319   6.699  0.00  0.00    +0.169 C 
BRANCH   4   5
ATOM      5  C   LIG    1       24.574 -22.914   6.610  0.00  0.00    +0.203 C 
ATOM      6  O   LIG    1       25.896 -22.984   7.165  0.00  0.00    -0.486 OA
ATOM      7  C   LIG    1       26.699 -21.906   6.932  0.00  0.00    +0.124 A 
ATOM      8  C   LIG    1       26.409 -20.914   5.986  0.00  0.00    -0.003 A 
ATOM      9  C   LIG    1       27.304 -19.853   5.816  0.00  0.00    +0.045 A 
ATOM     10  C   LIG    1       28.478 -19.801   6.566  0.00  0.00    +0.124 A 
ATOM     11  C   LIG    1       28.775 -20.797   7.492  0.00  0.00    +0.042 A 
ATOM     12  F   LIG    1       29.329 -18.787   6.391  0.00  0.00    -0.205 F 
ATOM     13  C   LIG    1       25.150 -20.967   5.176  0.00  0.00    +0.042 C 
ATOM     14  C   LIG    1       27.884 -21.851   7.672  0.00  0.00    +0.049 A 
ATOM     15  C   LIG    1       24.588 -22.376   5.175  0.00  0.00    +0.052 C 
ENDBRANCH   4   5
BRANCH   4  16
ATOM     16  O   LIG    1       22.510 -24.204   6.641  0.00  0.00    -0.387 OA
ATOM     17  H   LIG    1       22.260 -23.625   7.384  0.00  0.00    +0.210 HD
ENDBRANCH   4  16
ENDBRANCH   3   4
ENDBRANCH   1   3
BRANCH   1  18
ATOM     18  C   LIG    1       25.132 -27.568   5.470  0.00  0.00    +0.115 C 
BRANCH  18  19
ATOM     19  C   LIG    1       24.681 -29.048   5.496  0.00  0.00    +0.169 C 
BRANCH  19  20
ATOM     20  C   LIG    1       25.158 -29.757   6.784  0.00  0.00    +0.203 C 
ATOM     21  O   LIG    1       25.655 -28.747   7.685  0.00  0.00    -0.486 OA
ATOM     22  C   LIG    1       25.898 -29.171   8.962  0.00  0.00    +0.124 A 
ATOM     23  C   LIG    1       25.401 -30.372   9.486  0.00  0.00    -0.003 A 
ATOM     24  C   LIG    1       25.708 -30.715  10.809  0.00  0.00    +0.045 A 
ATOM     25  C   LIG    1       26.472 -29.854  11.592  0.00  0.00    +0.124 A 
ATOM     26  C   LIG    1       26.944 -28.651  11.079  0.00  0.00    +0.042 A 
ATOM     27  F   LIG    1       26.752 -30.187  12.857  0.00  0.00    -0.205 F 
ATOM     28  C   LIG    1       24.571 -31.292   8.641  0.00  0.00    +0.042 C 
ATOM     29  C   LIG    1       26.654 -28.308   9.760  0.00  0.00    +0.049 A 
ATOM     30  C   LIG    1       24.021 -30.548   7.432  0.00  0.00    +0.052 C 
ENDBRANCH  19  20
BRANCH  19  31
ATOM     31  O   LIG    1       23.251 -29.133   5.408  0.00  0.00    -0.387 OA
ATOM     32  H   LIG    1       22.933 -28.216   5.311  0.00  0.00    +0.210 HD
ENDBRANCH  19  31
ENDBRANCH  18  19
ENDBRANCH   1  18
TORSDOF 8
ENDMDL
