MODEL 1
REMARK VINA RESULT:      -6.3      0.000      0.000
REMARK  Name = *****
REMARK                            x       y       z     vdW  Elec       q    Type
REMARK                         _______ _______ _______ _____ _____    ______ ____
ROOT
ATOM      1  C   LIG    1       23.216 -22.612   7.331  0.00  0.00    +0.059 C 
ATOM      2  C   LIG    1       23.613 -21.153   7.236  0.00  0.00    +0.037 C 
ATOM      3  C   LIG    1       24.639 -22.211   7.572  0.00  0.00    +0.029 C 
ENDROOT
BRANCH   2   4
ATOM      4  C   LIG    1       23.692 -20.414   5.919  0.00  0.00    -0.043 A 
ATOM      5  C   LIG    1       24.860 -20.433   5.136  0.00  0.00    +0.004 A 
ATOM      6  C   LIG    1       24.940 -19.733   3.929  0.00  0.00    +0.000 A 
ATOM      7  C   LIG    1       23.853 -18.989   3.481  0.00  0.00    +0.000 A 
ATOM      8  C   LIG    1       22.689 -18.942   4.242  0.00  0.00    +0.000 A 
ATOM      9  C   LIG    1       22.616 -19.643   5.449  0.00  0.00    +0.004 A 
ENDBRANCH   2   4
BRANCH   1  10
ATOM     10  N   LIG    1       22.899 -23.418   6.151  0.00  0.00    -0.327 NA
ATOM     11  H   LIG    1       23.728 -23.907   5.811  0.00  0.00    +0.118 HD
ATOM     12  H   LIG    1       22.223 -24.144   6.384  0.00  0.00    +0.118 HD
ENDBRANCH   1  10
TORSDOF 2
ENDMDL
MODEL 2
REMARK VINA RESULT:      -6.2      0.033      1.520
REMARK  Name = *****
REMARK                            x       y       z     vdW  Elec       q    Type
REMARK                         _______ _______ _______ _____ _____    ______ ____
ROOT
ATOM      1  C   LIG    1       23.204 -22.607   7.342  0.00  0.00    +0.059 C 
ATOM      2  C   LIG    1       23.619 -21.152   7.266  0.00  0.00    +0.037 C 
ATOM      3  C   LIG    1       24.632 -22.229   7.581  0.00  0.00    +0.029 C 
ENDROOT
BRANCH   2   4
ATOM      4  C   LIG    1       23.701 -20.395   5.960  0.00  0.00    -0.043 A 
ATOM      5  C   LIG    1       22.616 -19.641   5.480  0.00  0.00    +0.004 A 
ATOM      6  C   LIG    1       22.684 -18.957   4.263  0.00  0.00    +0.000 A 
ATOM      7  C   LIG    1       23.840 -19.022   3.491  0.00  0.00    +0.000 A 
ATOM      8  C   LIG    1       24.924 -19.772   3.935  0.00  0.00    +0.000 A 
ATOM      9  C   LIG    1       24.849 -20.454   5.153  0.00  0.00    +0.004 A 
ENDBRANCH   2   4
BRANCH   1  10
ATOM     10  N   LIG    1       22.869 -23.391   6.152  0.00  0.00    -0.327 NA
ATOM     11  H   LIG    1       21.899 -23.708   6.185  0.00  0.00    +0.118 HD
ATOM     12  H   LIG    1       22.948 -22.820   5.312  0.00  0.00    +0.118 HD
ENDBRANCH   1  10
TORSDOF 2
ENDMDL
MODEL 3
REMARK VINA RESULT:      -6.2      3.087      4.320
REMARK  Name = *****
REMARK                            x       y       z     vdW  Elec       q    Type
REMARK                         _______ _______ _______ _____ _____    ______ ____
ROOT
ATOM      1  C   LIG    1       25.938 -20.385   8.171  0.00  0.00    +0.059 C 
ATOM      2  C   LIG    1       25.498 -20.990   6.854  0.00  0.00    +0.037 C 
ATOM      3  C   LIG    1       26.965 -20.799   7.162  0.00  0.00    +0.029 C 
ENDROOT
BRANCH   2   4
ATOM      4  C   LIG    1       24.922 -22.385   6.750  0.00  0.00    -0.043 A 
ATOM      5  C   LIG    1       25.750 -23.510   6.585  0.00  0.00    +0.004 A 
ATOM      6  C   LIG    1       25.217 -24.796   6.469  0.00  0.00    +0.000 A 
ATOM      7  C   LIG    1       23.838 -24.985   6.504  0.00  0.00    +0.000 A 
ATOM      8  C   LIG    1       22.996 -23.888   6.653  0.00  0.00    +0.000 A 
ATOM      9  C   LIG    1       23.535 -22.604   6.768  0.00  0.00    +0.004 A 
ENDBRANCH   2   4
BRANCH   1  10
ATOM     10  N   LIG    1       25.856 -21.115   9.437  0.00  0.00    -0.327 NA
ATOM     11  H   LIG    1       26.406 -21.974   9.398  0.00  0.00    +0.118 HD
ATOM     12  H   LIG    1       26.255 -20.563  10.195  0.00  0.00    +0.118 HD
ENDBRANCH   1  10
TORSDOF 2
ENDMDL
MODEL 4
REMARK VINA RESULT:      -6.2      3.529      4.760
REMARK  Name = *****
REMARK                            x       y       z     vdW  Elec       q    Type
REMARK                         _______ _______ _______ _____ _____    ______ ____
ROOT
ATOM      1  C   LIG    1       27.145 -20.781   7.099  0.00  0.00    +0.059 C 
ATOM      2  C   LIG    1       26.550 -21.898   7.930  0.00  0.00    +0.037 C 
ATOM      3  C   LIG    1       26.159 -20.460   8.179  0.00  0.00    +0.029 C 
ENDROOT
BRANCH   2   4
ATOM      4  C   LIG    1       25.535 -22.874   7.378  0.00  0.00    -0.043 A 
ATOM      5  C   LIG    1       24.172 -22.541   7.287  0.00  0.00    +0.004 A 
ATOM      6  C   LIG    1       23.230 -23.450   6.795  0.00  0.00    +0.000 A 
ATOM      7  C   LIG    1       23.633 -24.719   6.391  0.00  0.00    +0.000 A 
ATOM      8  C   LIG    1       24.973 -25.079   6.482  0.00  0.00    +0.000 A 
ATOM      9  C   LIG    1       25.909 -24.167   6.976  0.00  0.00    +0.004 A 
ENDBRANCH   2   4
BRANCH   1  10
ATOM     10  N   LIG    1       26.765 -20.552   5.704  0.00  0.00    -0.327 NA
ATOM     11  H   LIG    1       26.699 -19.553   5.504  0.00  0.00    +0.118 HD
ATOM     12  H   LIG    1       27.479 -20.915   5.074  0.00  0.00    +0.118 HD
ENDBRANCH   1  10
TORSDOF 2
ENDMDL
MODEL 5
REMARK VINA RESULT:      -6.2      1.156      1.252
REMARK  Name = *****
REMARK                            x       y       z     vdW  Elec       q    Type
REMARK                         _______ _______ _______ _____ _____    ______ ____
ROOT
ATOM      1  C   LIG    1       24.883 -23.309   6.385  0.00  0.00    +0.059 C 
ATOM      2  C   LIG    1       24.548 -21.879   6.757  0.00  0.00    +0.037 C 
ATOM      3  C   LIG    1       25.976 -22.374   6.800  0.00  0.00    +0.029 C 
ENDROOT
BRANCH   2   4
ATOM      4  C   LIG    1       24.136 -20.845   5.733  0.00  0.00    -0.043 A 
ATOM      5  C   LIG    1       25.040 -20.368   4.768  0.00  0.00    +0.004 A 
ATOM      6  C   LIG    1       24.666 -19.397   3.834  0.00  0.00    +0.000 A 
ATOM      7  C   LIG    1       23.376 -18.875   3.852  0.00  0.00    +0.000 A 
ATOM      8  C   LIG    1       22.465 -19.320   4.804  0.00  0.00    +0.000 A 
ATOM      9  C   LIG    1       22.846 -20.289   5.736  0.00  0.00    +0.004 A 
ENDBRANCH   2   4
BRANCH   1  10
ATOM     10  N   LIG    1       24.850 -23.789   5.002  0.00  0.00    -0.327 NA
ATOM     11  H   LIG    1       24.626 -23.029   4.358  0.00  0.00    +0.118 HD
ATOM     12  H   LIG    1       25.766 -24.132   4.720  0.00  0.00    +0.118 HD
ENDBRANCH   1  10
TORSDOF 2
ENDMDL
MODEL 6
REMARK VINA RESULT:      -6.1      1.396      2.130
REMARK  Name = *****
REMARK                            x       y       z     vdW  Elec       q    Type
REMARK                         _______ _______ _______ _____ _____    ______ ____
ROOT
ATOM      1  C   LIG    1       24.663 -22.487   7.285  0.00  0.00    +0.059 C 
ATOM      2  C   LIG    1       24.239 -22.389   5.834  0.00  0.00    +0.037 C 
ATOM      3  C   LIG    1       23.302 -22.956   6.875  0.00  0.00    +0.029 C 
ENDROOT
BRANCH   2   4
ATOM      4  C   LIG    1       23.919 -21.070   5.166  0.00  0.00    -0.043 A 
ATOM      5  C   LIG    1       22.691 -20.419   5.378  0.00  0.00    +0.004 A 
ATOM      6  C   LIG    1       22.388 -19.211   4.745  0.00  0.00    +0.000 A 
ATOM      7  C   LIG    1       23.306 -18.630   3.875  0.00  0.00    +0.000 A 
ATOM      8  C   LIG    1       24.524 -19.259   3.637  0.00  0.00    +0.000 A 
ATOM      9  C   LIG    1       24.821 -20.468   4.272  0.00  0.00    +0.004 A 
ENDBRANCH   2   4
BRANCH   1  10
ATOM     10  N   LIG    1       24.777 -21.313   8.152  0.00  0.00    -0.327 NA
ATOM     11  H   LIG    1       24.555 -20.459   7.638  0.00  0.00    +0.118 HD
ATOM     12  H   LIG    1       24.102 -21.364   8.913  0.00  0.00    +0.118 HD
ENDBRANCH   1  10
TORSDOF 2
ENDMDL
MODEL 7
REMARK VINA RESULT:      -6.0      2.713      3.875
REMARK  Name = *****
REMARK                            x       y       z     vdW  Elec       q    Type
REMARK                         _______ _______ _______ _____ _____    ______ ____
ROOT
ATOM      1  C   LIG    1       24.134 -25.126   6.357  0.00  0.00    +0.059 C 
ATOM      2  C   LIG    1       25.505 -24.506   6.535  0.00  0.00    +0.037 C 
ATOM      3  C   LIG    1       24.995 -24.870   5.159  0.00  0.00    +0.029 C 
ENDROOT
BRANCH   2   4
ATOM      4  C   LIG    1       25.700 -23.054   6.911  0.00  0.00    -0.043 A 
ATOM      5  C   LIG    1       25.604 -22.030   5.954  0.00  0.00    +0.004 A 
ATOM      6  C   LIG    1       25.805 -20.690   6.297  0.00  0.00    +0.000 A 
ATOM      7  C   LIG    1       26.118 -20.346   7.609  0.00  0.00    +0.000 A 
ATOM      8  C   LIG    1       26.232 -21.341   8.574  0.00  0.00    +0.000 A 
ATOM      9  C   LIG    1       26.031 -22.679   8.224  0.00  0.00    +0.004 A 
ENDBRANCH   2   4
BRANCH   1  10
ATOM     10  N   LIG    1       22.898 -24.358   6.517  0.00  0.00    -0.327 NA
ATOM     11  H   LIG    1       22.839 -23.956   7.454  0.00  0.00    +0.118 HD
ATOM     12  H   LIG    1       22.880 -23.569   5.873  0.00  0.00    +0.118 HD
ENDBRANCH   1  10
TORSDOF 2
ENDMDL
MODEL 8
REMARK VINA RESULT:      -5.9      2.733      3.800
REMARK  Name = *****
REMARK                            x       y       z     vdW  Elec       q    Type
REMARK                         _______ _______ _______ _____ _____    ______ ____
ROOT
ATOM      1  C   LIG    1       24.457 -25.619   5.252  0.00  0.00    +0.059 C 
ATOM      2  C   LIG    1       24.009 -25.013   6.566  0.00  0.00    +0.037 C 
ATOM      3  C   LIG    1       25.197 -25.947   6.512  0.00  0.00    +0.029 C 
ENDROOT
BRANCH   2   4
ATOM      4  C   LIG    1       24.210 -23.552   6.901  0.00  0.00    -0.043 A 
ATOM      5  C   LIG    1       25.447 -23.068   7.360  0.00  0.00    +0.004 A 
ATOM      6  C   LIG    1       25.627 -21.721   7.689  0.00  0.00    +0.000 A 
ATOM      7  C   LIG    1       24.566 -20.828   7.574  0.00  0.00    +0.000 A 
ATOM      8  C   LIG    1       23.327 -21.283   7.134  0.00  0.00    +0.000 A 
ATOM      9  C   LIG    1       23.153 -22.631   6.809  0.00  0.00    +0.004 A 
ENDBRANCH   2   4
BRANCH   1  10
ATOM     10  N   LIG    1       25.135 -24.836   4.217  0.00  0.00    -0.327 NA
ATOM     11  H   LIG    1       26.132 -25.054   4.192  0.00  0.00    +0.118 HD
ATOM     12  H   LIG    1       24.774 -25.073   3.294  0.00  0.00    +0.118 HD
ENDBRANCH   1  10
TORSDOF 2
ENDMDL
MODEL 9
REMARK VINA RESULT:      -5.9      2.409      4.844
REMARK  Name = *****
REMARK                            x       y       z     vdW  Elec       q    Type
REMARK                         _______ _______ _______ _____ _____    ______ ____
ROOT
ATOM      1  C   LIG    1       24.761 -20.600   6.315  0.00  0.00    +0.059 C 
ATOM      2  C   LIG    1       24.509 -21.706   7.318  0.00  0.00    +0.037 C 
ATOM      3  C   LIG    1       23.361 -20.905   6.749  0.00  0.00    +0.029 C 
ENDROOT
BRANCH   2   4
ATOM      4  C   LIG    1       24.656 -23.171   6.970  0.00  0.00    -0.043 A 
ATOM      5  C   LIG    1       23.541 -23.962   6.644  0.00  0.00    +0.004 A 
ATOM      6  C   LIG    1       23.675 -25.321   6.342  0.00  0.00    +0.000 A 
ATOM      7  C   LIG    1       24.930 -25.921   6.371  0.00  0.00    +0.000 A 
ATOM      8  C   LIG    1       26.049 -25.164   6.703  0.00  0.00    +0.000 A 
ATOM      9  C   LIG    1       25.909 -23.806   7.005  0.00  0.00    +0.004 A 
ENDBRANCH   2   4
BRANCH   1  10
ATOM     10  N   LIG    1       25.146 -20.869   4.928  0.00  0.00    -0.327 NA
ATOM     11  H   LIG    1       24.341 -20.790   4.305  0.00  0.00    +0.118 HD
ATOM     12  H   LIG    1       25.820 -20.178   4.602  0.00  0.00    +0.118 HD
ENDBRANCH   1  10
TORSDOF 2
ENDMDL
