MODEL 1
REMARK VINA RESULT:      -5.4      0.000      0.000
REMARK  Name = *****
REMARK                            x       y       z     vdW  Elec       q    Type
REMARK                         _______ _______ _______ _____ _____    ______ ____
ROOT
ATOM      1  C   LIG    1       25.722 -20.600   5.885  0.00  0.00    +0.100 A 
ATOM      2  C   LIG    1       25.336 -20.288   4.577  0.00  0.00    +0.131 A 
ATOM      3  C   LIG    1       23.981 -20.232   4.237  0.00  0.00    +0.049 A 
ATOM      4  C   LIG    1       22.993 -20.507   5.194  0.00  0.00    -0.047 A 
ATOM      5  C   LIG    1       21.545 -20.451   4.808  0.00  0.00    +0.044 C 
ATOM      6  C   LIG    1       23.379 -20.822   6.501  0.00  0.00    +0.004 A 
ATOM      7  C   LIG    1       24.734 -20.875   6.843  0.00  0.00    +0.019 A 
ENDROOT
BRANCH   1   8
ATOM      8  C   LIG    1       27.134 -20.673   6.331  0.00  0.00    +0.343 C 
ATOM      9  O   LIG    1       27.559 -21.559   7.062  0.00  0.00    -0.245 OA
BRANCH   8  11
ATOM     10  C   LIG    1       29.192 -19.553   6.313  0.00  0.00    +0.280 C 
ATOM     11  O   LIG    1       27.821 -19.580   5.922  0.00  0.00    -0.464 OA
ENDBRANCH   8  11
ENDBRANCH   1   8
BRANCH   2  12
ATOM     12  O   LIG    1       26.269 -20.071   3.602  0.00  0.00    -0.506 OA
ATOM     13  H   LIG    1       26.320 -20.847   3.021  0.00  0.00    +0.292 HD
ENDBRANCH   2  12
TORSDOF 3
ENDMDL
MODEL 2
REMARK VINA RESULT:      -5.3      1.565      2.227
REMARK  Name = *****
REMARK                            x       y       z     vdW  Elec       q    Type
REMARK                         _______ _______ _______ _____ _____    ______ ____
ROOT
ATOM      1  C   LIG    1       25.122 -20.150   5.324  0.00  0.00    +0.100 A 
ATOM      2  C   LIG    1       23.898 -20.461   5.928  0.00  0.00    +0.131 A 
ATOM      3  C   LIG    1       22.704 -19.960   5.398  0.00  0.00    +0.049 A 
ATOM      4  C   LIG    1       22.719 -19.126   4.271  0.00  0.00    -0.047 A 
ATOM      5  C   LIG    1       21.429 -18.591   3.723  0.00  0.00    +0.044 C 
ATOM      6  C   LIG    1       23.942 -18.812   3.670  0.00  0.00    +0.004 A 
ATOM      7  C   LIG    1       25.136 -19.316   4.195  0.00  0.00    +0.019 A 
ENDROOT
BRANCH   1   8
ATOM      8  C   LIG    1       26.430 -20.644   5.815  0.00  0.00    +0.343 C 
ATOM      9  O   LIG    1       26.540 -21.570   6.608  0.00  0.00    -0.245 OA
BRANCH   8  11
ATOM     10  C   LIG    1       28.653 -19.960   6.101  0.00  0.00    +0.280 C 
ATOM     11  O   LIG    1       27.436 -19.858   5.364  0.00  0.00    -0.464 OA
ENDBRANCH   8  11
ENDBRANCH   1   8
BRANCH   2  12
ATOM     12  O   LIG    1       23.847 -21.222   7.062  0.00  0.00    -0.506 OA
ATOM     13  H   LIG    1       24.680 -21.132   7.552  0.00  0.00    +0.292 HD
ENDBRANCH   2  12
TORSDOF 3
ENDMDL
MODEL 3
REMARK VINA RESULT:      -5.3      2.002      4.325
REMARK  Name = *****
REMARK                            x       y       z     vdW  Elec       q    Type
REMARK                         _______ _______ _______ _____ _____    ______ ____
ROOT
ATOM      1  C   LIG    1       24.352 -20.324   5.205  0.00  0.00    +0.100 A 
ATOM      2  C   LIG    1       25.491 -19.994   4.462  0.00  0.00    +0.131 A 
ATOM      3  C   LIG    1       26.765 -20.167   5.011  0.00  0.00    +0.049 A 
ATOM      4  C   LIG    1       26.918 -20.653   6.317  0.00  0.00    -0.047 A 
ATOM      5  C   LIG    1       28.293 -20.823   6.893  0.00  0.00    +0.044 C 
ATOM      6  C   LIG    1       25.780 -20.980   7.062  0.00  0.00    +0.004 A 
ATOM      7  C   LIG    1       24.505 -20.811   6.512  0.00  0.00    +0.019 A 
ENDROOT
BRANCH   1   8
ATOM      8  C   LIG    1       22.967 -20.179   4.696  0.00  0.00    +0.343 C 
ATOM      9  O   LIG    1       22.100 -21.027   4.867  0.00  0.00    -0.245 OA
BRANCH   8  11
ATOM     10  C   LIG    1       22.145 -17.989   4.554  0.00  0.00    +0.280 C 
ATOM     11  O   LIG    1       22.852 -19.064   3.937  0.00  0.00    -0.464 OA
ENDBRANCH   8  11
ENDBRANCH   1   8
BRANCH   2  12
ATOM     12  O   LIG    1       25.381 -19.462   3.207  0.00  0.00    -0.506 OA
ATOM     13  H   LIG    1       26.266 -19.339   2.827  0.00  0.00    +0.292 HD
ENDBRANCH   2  12
TORSDOF 3
ENDMDL
MODEL 4
REMARK VINA RESULT:      -4.4      2.441      3.410
REMARK  Name = *****
REMARK                            x       y       z     vdW  Elec       q    Type
REMARK                         _______ _______ _______ _____ _____    ______ ____
ROOT
ATOM      1  C   LIG    1       25.251 -18.564   3.919  0.00  0.00    +0.100 A 
ATOM      2  C   LIG    1       25.513 -19.862   4.371  0.00  0.00    +0.131 A 
ATOM      3  C   LIG    1       24.458 -20.720   4.699  0.00  0.00    +0.049 A 
ATOM      4  C   LIG    1       23.128 -20.287   4.598  0.00  0.00    -0.047 A 
ATOM      5  C   LIG    1       22.011 -21.219   4.963  0.00  0.00    +0.044 C 
ATOM      6  C   LIG    1       22.866 -18.988   4.149  0.00  0.00    +0.004 A 
ATOM      7  C   LIG    1       23.919 -18.131   3.817  0.00  0.00    +0.019 A 
ENDROOT
BRANCH   1   8
ATOM      8  C   LIG    1       26.307 -17.594   3.544  0.00  0.00    +0.343 C 
ATOM      9  O   LIG    1       27.476 -17.715   3.885  0.00  0.00    -0.245 OA
BRANCH   8  11
ATOM     10  C   LIG    1       26.270 -15.263   3.314  0.00  0.00    +0.280 C 
ATOM     11  O   LIG    1       25.772 -16.532   2.897  0.00  0.00    -0.464 OA
ENDBRANCH   8  11
ENDBRANCH   1   8
BRANCH   2  12
ATOM     12  O   LIG    1       26.796 -20.302   4.538  0.00  0.00    -0.506 OA
ATOM     13  H   LIG    1       26.867 -21.222   4.235  0.00  0.00    +0.292 HD
ENDBRANCH   2  12
TORSDOF 3
ENDMDL
MODEL 5
REMARK VINA RESULT:      -4.3      1.212      2.192
REMARK  Name = *****
REMARK                            x       y       z     vdW  Elec       q    Type
REMARK                         _______ _______ _______ _____ _____    ______ ____
ROOT
ATOM      1  C   LIG    1       26.149 -20.042   5.193  0.00  0.00    +0.100 A 
ATOM      2  C   LIG    1       25.486 -20.951   6.026  0.00  0.00    +0.131 A 
ATOM      3  C   LIG    1       24.127 -21.222   5.832  0.00  0.00    +0.049 A 
ATOM      4  C   LIG    1       23.408 -20.573   4.818  0.00  0.00    -0.047 A 
ATOM      5  C   LIG    1       21.950 -20.870   4.632  0.00  0.00    +0.044 C 
ATOM      6  C   LIG    1       24.070 -19.662   3.988  0.00  0.00    +0.004 A 
ATOM      7  C   LIG    1       25.429 -19.394   4.177  0.00  0.00    +0.019 A 
ENDROOT
BRANCH   1   8
ATOM      8  C   LIG    1       27.586 -19.703   5.324  0.00  0.00    +0.343 C 
ATOM      9  O   LIG    1       28.086 -18.706   4.820  0.00  0.00    -0.245 OA
BRANCH   8  11
ATOM     10  C   LIG    1       29.390 -20.272   6.707  0.00  0.00    +0.280 C 
ATOM     11  O   LIG    1       28.254 -20.697   5.955  0.00  0.00    -0.464 OA
ENDBRANCH   8  11
ENDBRANCH   1   8
BRANCH   2  12
ATOM     12  O   LIG    1       26.138 -21.559   7.062  0.00  0.00    -0.506 OA
ATOM     13  H   LIG    1       25.830 -22.476   7.147  0.00  0.00    +0.292 HD
ENDBRANCH   2  12
TORSDOF 3
ENDMDL
MODEL 6
REMARK VINA RESULT:      -3.8      5.306      6.019
REMARK  Name = *****
REMARK                            x       y       z     vdW  Elec       q    Type
REMARK                         _______ _______ _______ _____ _____    ______ ____
ROOT
ATOM      1  C   LIG    1       25.368 -15.148   3.481  0.00  0.00    +0.100 A 
ATOM      2  C   LIG    1       24.174 -14.672   4.034  0.00  0.00    +0.131 A 
ATOM      3  C   LIG    1       23.164 -15.564   4.406  0.00  0.00    +0.049 A 
ATOM      4  C   LIG    1       23.324 -16.944   4.212  0.00  0.00    -0.047 A 
ATOM      5  C   LIG    1       22.226 -17.885   4.608  0.00  0.00    +0.044 C 
ATOM      6  C   LIG    1       24.516 -17.421   3.656  0.00  0.00    +0.004 A 
ATOM      7  C   LIG    1       25.528 -16.529   3.287  0.00  0.00    +0.019 A 
ENDROOT
BRANCH   1   8
ATOM      8  C   LIG    1       26.490 -14.273   3.067  0.00  0.00    +0.343 C 
ATOM      9  O   LIG    1       26.918 -14.233   1.921  0.00  0.00    -0.245 OA
BRANCH   8  11
ATOM     10  C   LIG    1       28.364 -13.185   3.959  0.00  0.00    +0.280 C 
ATOM     11  O   LIG    1       27.026 -13.646   4.140  0.00  0.00    -0.464 OA
ENDBRANCH   8  11
ENDBRANCH   1   8
BRANCH   2  12
ATOM     12  O   LIG    1       23.956 -13.330   4.185  0.00  0.00    -0.506 OA
ATOM     13  H   LIG    1       24.765 -12.842   3.964  0.00  0.00    +0.292 HD
ENDBRANCH   2  12
TORSDOF 3
ENDMDL
MODEL 7
REMARK VINA RESULT:      -3.8      4.745      5.478
REMARK  Name = *****
REMARK                            x       y       z     vdW  Elec       q    Type
REMARK                         _______ _______ _______ _____ _____    ______ ____
ROOT
ATOM      1  C   LIG    1       25.353 -15.465   3.502  0.00  0.00    +0.100 A 
ATOM      2  C   LIG    1       25.441 -16.858   3.401  0.00  0.00    +0.131 A 
ATOM      3  C   LIG    1       24.355 -17.660   3.766  0.00  0.00    +0.049 A 
ATOM      4  C   LIG    1       23.175 -17.083   4.256  0.00  0.00    -0.047 A 
ATOM      5  C   LIG    1       22.025 -17.961   4.652  0.00  0.00    +0.044 C 
ATOM      6  C   LIG    1       23.088 -15.691   4.361  0.00  0.00    +0.004 A 
ATOM      7  C   LIG    1       24.171 -14.887   3.992  0.00  0.00    +0.019 A 
ENDROOT
BRANCH   1   8
ATOM      8  C   LIG    1       26.451 -14.541   3.129  0.00  0.00    +0.343 C 
ATOM      9  O   LIG    1       26.772 -14.318   1.969  0.00  0.00    -0.245 OA
BRANCH   8  11
ATOM     10  C   LIG    1       28.250 -13.300   3.974  0.00  0.00    +0.280 C 
ATOM     11  O   LIG    1       27.099 -14.101   4.234  0.00  0.00    -0.464 OA
ENDBRANCH   8  11
ENDBRANCH   1   8
BRANCH   2  12
ATOM     12  O   LIG    1       26.594 -17.460   2.983  0.00  0.00    -0.506 OA
ATOM     13  H   LIG    1       26.982 -16.950   2.254  0.00  0.00    +0.292 HD
ENDBRANCH   2  12
TORSDOF 3
ENDMDL
MODEL 8
REMARK VINA RESULT:      -3.7      1.492      2.212
REMARK  Name = *****
REMARK                            x       y       z     vdW  Elec       q    Type
REMARK                         _______ _______ _______ _____ _____    ______ ____
ROOT
ATOM      1  C   LIG    1       24.532 -19.894   4.864  0.00  0.00    +0.100 A 
ATOM      2  C   LIG    1       24.341 -18.853   3.949  0.00  0.00    +0.131 A 
ATOM      3  C   LIG    1       23.049 -18.482   3.563  0.00  0.00    +0.049 A 
ATOM      4  C   LIG    1       21.931 -19.160   4.071  0.00  0.00    -0.047 A 
ATOM      5  C   LIG    1       20.554 -18.754   3.637  0.00  0.00    +0.044 C 
ATOM      6  C   LIG    1       22.122 -20.204   4.982  0.00  0.00    +0.004 A 
ATOM      7  C   LIG    1       23.413 -20.573   5.372  0.00  0.00    +0.019 A 
ENDROOT
BRANCH   1   8
ATOM      8  C   LIG    1       25.865 -20.345   5.331  0.00  0.00    +0.343 C 
ATOM      9  O   LIG    1       26.859 -20.341   4.618  0.00  0.00    -0.245 OA
BRANCH   8  11
ATOM     10  C   LIG    1       26.983 -21.462   7.061  0.00  0.00    +0.280 C 
ATOM     11  O   LIG    1       25.783 -20.859   6.581  0.00  0.00    -0.464 OA
ENDBRANCH   8  11
ENDBRANCH   1   8
BRANCH   2  12
ATOM     12  O   LIG    1       25.407 -18.206   3.387  0.00  0.00    -0.506 OA
ATOM     13  H   LIG    1       25.179 -17.275   3.235  0.00  0.00    +0.292 HD
ENDBRANCH   2  12
TORSDOF 3
ENDMDL
MODEL 9
REMARK VINA RESULT:      -3.7      3.675      4.741
REMARK  Name = *****
REMARK                            x       y       z     vdW  Elec       q    Type
REMARK                         _______ _______ _______ _____ _____    ______ ____
ROOT
ATOM      1  C   LIG    1       24.216 -17.013   3.839  0.00  0.00    +0.100 A 
ATOM      2  C   LIG    1       24.833 -18.255   3.652  0.00  0.00    +0.131 A 
ATOM      3  C   LIG    1       24.144 -19.435   3.946  0.00  0.00    +0.049 A 
ATOM      4  C   LIG    1       22.836 -19.391   4.448  0.00  0.00    -0.047 A 
ATOM      5  C   LIG    1       22.116 -20.668   4.766  0.00  0.00    +0.044 C 
ATOM      6  C   LIG    1       22.219 -18.150   4.638  0.00  0.00    +0.004 A 
ATOM      7  C   LIG    1       22.906 -16.969   4.341  0.00  0.00    +0.019 A 
ENDROOT
BRANCH   1   8
ATOM      8  C   LIG    1       24.871 -15.715   3.546  0.00  0.00    +0.343 C 
ATOM      9  O   LIG    1       26.014 -15.626   3.119  0.00  0.00    -0.245 OA
BRANCH   8  11
ATOM     10  C   LIG    1       24.367 -13.441   3.295  0.00  0.00    +0.280 C 
ATOM     11  O   LIG    1       24.081 -14.685   3.930  0.00  0.00    -0.464 OA
ENDBRANCH   8  11
ENDBRANCH   1   8
BRANCH   2  12
ATOM     12  O   LIG    1       26.127 -18.338   3.219  0.00  0.00    -0.506 OA
ATOM     13  H   LIG    1       26.698 -18.618   3.953  0.00  0.00    +0.292 HD
ENDBRANCH   2  12
TORSDOF 3
ENDMDL
