MODEL 1
REMARK VINA RESULT:      -5.0      0.000      0.000
REMARK  Name = *****
REMARK                            x       y       z     vdW  Elec       q    Type
REMARK                         _______ _______ _______ _____ _____    ______ ____
ROOT
ATOM      1  C   LIG    1       25.250 -15.915   3.580  0.00  0.00    -0.024 C 
ATOM      2  C   LIG    1       25.163 -17.320   3.540  0.00  0.00    +0.015 C 
ATOM      3  C   LIG    1       23.975 -17.964   3.937  0.00  0.00    +0.003 C 
ATOM      4  C   LIG    1       22.907 -17.181   4.374  0.00  0.00    +0.047 C 
ATOM      5  N   LIG    1       21.886 -18.040   4.706  0.00  0.00    -0.360 NA
ATOM      6  H   LIG    1       20.983 -17.749   5.055  0.00  0.00    +0.165 HD
ATOM      7  C   LIG    1       22.269 -19.336   4.490  0.00  0.00    +0.087 C 
ATOM      8  C   LIG    1       22.962 -15.784   4.418  0.00  0.00    +0.026 C 
ATOM      9  C   LIG    1       23.560 -19.331   3.999  0.00  0.00    -0.021 C 
ATOM     10  C   LIG    1       24.149 -15.167   4.013  0.00  0.00    +0.007 C 
ENDROOT
BRANCH   1  11
ATOM     11  C   LIG    1       26.525 -15.233   3.162  0.00  0.00    +0.220 C 
BRANCH  11  12
ATOM     12  S   LIG    1       26.380 -13.460   3.435  0.00  0.00    +0.033 S 
ATOM     13  O   LIG    1       25.487 -12.866   2.468  0.00  0.00    -0.158 OA
ATOM     14  O   LIG    1       26.256 -13.189   4.855  0.00  0.00    -0.158 OA
BRANCH  12  16
ATOM     15  C   LIG    1       28.925 -12.866   4.117  0.00  0.00    +0.127 C 
ATOM     16  N   LIG    1       27.940 -12.930   3.035  0.00  0.00    -0.197 NA
ATOM     17  H   LIG    1       28.253 -13.411   2.189  0.00  0.00    +0.147 HD
ENDBRANCH  12  16
ENDBRANCH  11  12
ENDBRANCH   1  11
BRANCH   9  18
ATOM     18  C   LIG    1       24.360 -20.532   3.593  0.00  0.00    +0.052 C 
BRANCH  18  19
ATOM     19  C   LIG    1       24.799 -21.379   4.799  0.00  0.00    +0.088 C 
BRANCH  19  20
ATOM     20  N   LIG    1       25.478 -20.616   5.870  0.00  0.00    -0.308 NA
ATOM     21  C   LIG    1       26.795 -20.130   5.454  0.00  0.00    +0.104 C 
ATOM     22  C   LIG    1       25.619 -21.459   7.061  0.00  0.00    +0.104 C 
ENDBRANCH  19  20
ENDBRANCH  18  19
ENDBRANCH   9  18
TORSDOF 6
ENDMDL
MODEL 2
REMARK VINA RESULT:      -4.3      2.134      3.291
REMARK  Name = *****
REMARK                            x       y       z     vdW  Elec       q    Type
REMARK                         _______ _______ _______ _____ _____    ______ ____
ROOT
ATOM      1  C   LIG    1       26.311 -15.593   3.366  0.00  0.00    -0.024 C 
ATOM      2  C   LIG    1       25.563 -16.783   3.272  0.00  0.00    +0.015 C 
ATOM      3  C   LIG    1       26.079 -17.983   3.799  0.00  0.00    +0.003 C 
ATOM      4  C   LIG    1       27.336 -17.961   4.400  0.00  0.00    +0.047 C 
ATOM      5  N   LIG    1       27.607 -19.242   4.819  0.00  0.00    -0.360 NA
ATOM      6  H   LIG    1       28.455 -19.523   5.291  0.00  0.00    +0.165 HD
ATOM      7  C   LIG    1       26.563 -20.071   4.509  0.00  0.00    +0.087 C 
ATOM      8  C   LIG    1       28.099 -16.794   4.514  0.00  0.00    +0.026 C 
ATOM      9  C   LIG    1       25.585 -19.323   3.883  0.00  0.00    -0.021 C 
ATOM     10  C   LIG    1       27.564 -15.613   3.989  0.00  0.00    +0.007 C 
ENDROOT
BRANCH   1  11
ATOM     11  C   LIG    1       25.758 -14.316   2.794  0.00  0.00    +0.220 C 
BRANCH  11  12
ATOM     12  S   LIG    1       24.605 -13.578   3.963  0.00  0.00    +0.033 S 
ATOM     13  O   LIG    1       23.528 -14.491   4.263  0.00  0.00    -0.158 OA
ATOM     14  O   LIG    1       25.339 -12.892   5.011  0.00  0.00    -0.158 OA
BRANCH  12  16
ATOM     15  C   LIG    1       24.648 -11.944   1.812  0.00  0.00    +0.127 C 
ATOM     16  N   LIG    1       23.932 -12.333   3.030  0.00  0.00    -0.197 NA
ATOM     17  H   LIG    1       22.931 -12.504   2.911  0.00  0.00    +0.147 HD
ENDBRANCH  12  16
ENDBRANCH  11  12
ENDBRANCH   1  11
BRANCH   9  18
ATOM     18  C   LIG    1       24.255 -19.822   3.406  0.00  0.00    +0.052 C 
BRANCH  18  19
ATOM     19  C   LIG    1       23.743 -21.011   4.237  0.00  0.00    +0.088 C 
BRANCH  19  20
ATOM     20  N   LIG    1       22.742 -20.654   5.266  0.00  0.00    -0.308 NA
ATOM     21  C   LIG    1       22.283 -19.270   5.136  0.00  0.00    +0.104 C 
ATOM     22  C   LIG    1       23.315 -20.858   6.601  0.00  0.00    +0.104 C 
ENDBRANCH  19  20
ENDBRANCH  18  19
ENDBRANCH   9  18
TORSDOF 6
ENDMDL
MODEL 3
REMARK VINA RESULT:      -4.2      3.794      6.779
REMARK  Name = *****
REMARK                            x       y       z     vdW  Elec       q    Type
REMARK                         _______ _______ _______ _____ _____    ______ ____
ROOT
ATOM      1  C   LIG    1       25.359 -20.706   4.970  0.00  0.00    -0.024 C 
ATOM      2  C   LIG    1       26.139 -19.584   4.632  0.00  0.00    +0.015 C 
ATOM      3  C   LIG    1       27.348 -19.335   5.310  0.00  0.00    +0.003 C 
ATOM      4  C   LIG    1       27.739 -20.215   6.318  0.00  0.00    +0.047 C 
ATOM      5  N   LIG    1       28.932 -19.751   6.819  0.00  0.00    -0.360 NA
ATOM      6  H   LIG    1       29.452 -20.193   7.564  0.00  0.00    +0.165 HD
ATOM      7  C   LIG    1       29.311 -18.612   6.161  0.00  0.00    +0.087 C 
ATOM      8  C   LIG    1       26.989 -21.342   6.671  0.00  0.00    +0.026 C 
ATOM      9  C   LIG    1       28.356 -18.326   5.204  0.00  0.00    -0.021 C 
ATOM     10  C   LIG    1       25.796 -21.572   5.980  0.00  0.00    +0.007 C 
ENDROOT
BRANCH   1  11
ATOM     11  C   LIG    1       24.064 -20.962   4.247  0.00  0.00    +0.220 C 
BRANCH  11  12
ATOM     12  S   LIG    1       22.680 -20.587   5.335  0.00  0.00    +0.033 S 
ATOM     13  O   LIG    1       21.466 -21.200   4.847  0.00  0.00    -0.158 OA
ATOM     14  O   LIG    1       23.094 -20.713   6.720  0.00  0.00    -0.158 OA
BRANCH  12  16
ATOM     15  C   LIG    1       21.642 -18.487   3.990  0.00  0.00    +0.127 C 
ATOM     16  N   LIG    1       22.505 -18.919   5.093  0.00  0.00    -0.197 NA
ATOM     17  H   LIG    1       22.323 -18.465   5.991  0.00  0.00    +0.147 HD
ENDBRANCH  12  16
ENDBRANCH  11  12
ENDBRANCH   1  11
BRANCH   9  18
ATOM     18  C   LIG    1       28.388 -17.186   4.231  0.00  0.00    +0.052 C 
BRANCH  18  19
ATOM     19  C   LIG    1       26.997 -16.868   3.657  0.00  0.00    +0.088 C 
BRANCH  19  20
ATOM     20  N   LIG    1       26.794 -15.448   3.293  0.00  0.00    -0.308 NA
ATOM     21  C   LIG    1       27.767 -14.566   3.939  0.00  0.00    +0.104 C 
ATOM     22  C   LIG    1       25.436 -15.035   3.662  0.00  0.00    +0.104 C 
ENDBRANCH  19  20
ENDBRANCH  18  19
ENDBRANCH   9  18
TORSDOF 6
ENDMDL
MODEL 4
REMARK VINA RESULT:      -3.6      3.786      6.832
REMARK  Name = *****
REMARK                            x       y       z     vdW  Elec       q    Type
REMARK                         _______ _______ _______ _____ _____    ______ ____
ROOT
ATOM      1  C   LIG    1       25.135 -19.956   4.072  0.00  0.00    -0.024 C 
ATOM      2  C   LIG    1       25.304 -18.619   3.667  0.00  0.00    +0.015 C 
ATOM      3  C   LIG    1       26.496 -17.934   3.976  0.00  0.00    +0.003 C 
ATOM      4  C   LIG    1       27.484 -18.607   4.691  0.00  0.00    +0.047 C 
ATOM      5  N   LIG    1       28.526 -17.727   4.867  0.00  0.00    -0.360 NA
ATOM      6  H   LIG    1       29.384 -17.945   5.354  0.00  0.00    +0.165 HD
ATOM      7  C   LIG    1       28.234 -16.525   4.282  0.00  0.00    +0.087 C 
ATOM      8  C   LIG    1       27.348 -19.937   5.102  0.00  0.00    +0.026 C 
ATOM      9  C   LIG    1       26.981 -16.616   3.706  0.00  0.00    -0.021 C 
ATOM     10  C   LIG    1       26.159 -20.599   4.778  0.00  0.00    +0.007 C 
ENDROOT
BRANCH   1  11
ATOM     11  C   LIG    1       23.857 -20.680   3.747  0.00  0.00    +0.220 C 
BRANCH  11  12
ATOM     12  S   LIG    1       22.764 -20.652   5.177  0.00  0.00    +0.033 S 
ATOM     13  O   LIG    1       21.519 -21.322   4.882  0.00  0.00    -0.158 OA
ATOM     14  O   LIG    1       23.522 -20.944   6.380  0.00  0.00    -0.158 OA
BRANCH  12  16
ATOM     15  C   LIG    1       21.740 -18.376   4.144  0.00  0.00    +0.127 C 
ATOM     16  N   LIG    1       22.404 -19.000   5.292  0.00  0.00    -0.197 NA
ATOM     17  H   LIG    1       21.972 -18.811   6.199  0.00  0.00    +0.147 HD
ENDBRANCH  12  16
ENDBRANCH  11  12
ENDBRANCH   1  11
BRANCH   9  18
ATOM     18  C   LIG    1       26.282 -15.542   2.929  0.00  0.00    +0.052 C 
BRANCH  18  19
ATOM     19  C   LIG    1       26.350 -14.174   3.630  0.00  0.00    +0.088 C 
BRANCH  19  20
ATOM     20  N   LIG    1       25.096 -13.391   3.570  0.00  0.00    -0.308 NA
ATOM     21  C   LIG    1       23.936 -14.168   4.011  0.00  0.00    +0.104 C 
ATOM     22  C   LIG    1       24.877 -12.917   2.200  0.00  0.00    +0.104 C 
ENDBRANCH  19  20
ENDBRANCH  18  19
ENDBRANCH   9  18
TORSDOF 6
ENDMDL
MODEL 5
REMARK VINA RESULT:      -3.2      3.559      6.882
REMARK  Name = *****
REMARK                            x       y       z     vdW  Elec       q    Type
REMARK                         _______ _______ _______ _____ _____    ______ ____
ROOT
ATOM      1  C   LIG    1       24.917 -19.763   3.790  0.00  0.00    -0.024 C 
ATOM      2  C   LIG    1       25.085 -18.406   3.454  0.00  0.00    +0.015 C 
ATOM      3  C   LIG    1       26.284 -17.742   3.782  0.00  0.00    +0.003 C 
ATOM      4  C   LIG    1       27.280 -18.454   4.446  0.00  0.00    +0.047 C 
ATOM      5  N   LIG    1       28.327 -17.588   4.653  0.00  0.00    -0.360 NA
ATOM      6  H   LIG    1       29.191 -17.834   5.116  0.00  0.00    +0.165 HD
ATOM      7  C   LIG    1       28.030 -16.355   4.138  0.00  0.00    +0.087 C 
ATOM      8  C   LIG    1       27.145 -19.805   4.787  0.00  0.00    +0.026 C 
ATOM      9  C   LIG    1       26.769 -16.413   3.576  0.00  0.00    -0.021 C 
ATOM     10  C   LIG    1       25.949 -20.445   4.446  0.00  0.00    +0.007 C 
ENDROOT
BRANCH   1  11
ATOM     11  C   LIG    1       23.632 -20.465   3.445  0.00  0.00    +0.220 C 
BRANCH  11  12
ATOM     12  S   LIG    1       22.499 -20.374   4.840  0.00  0.00    +0.033 S 
ATOM     13  O   LIG    1       22.638 -19.113   5.530  0.00  0.00    -0.158 OA
ATOM     14  O   LIG    1       21.200 -20.893   4.454  0.00  0.00    -0.158 OA
BRANCH  12  16
ATOM     15  C   LIG    1       23.858 -21.092   7.061  0.00  0.00    +0.127 C 
ATOM     16  N   LIG    1       23.140 -21.557   5.871  0.00  0.00    -0.197 NA
ATOM     17  H   LIG    1       22.433 -22.275   6.042  0.00  0.00    +0.147 HD
ENDBRANCH  12  16
ENDBRANCH  11  12
ENDBRANCH   1  11
BRANCH   9  18
ATOM     18  C   LIG    1       26.062 -15.297   2.868  0.00  0.00    +0.052 C 
BRANCH  18  19
ATOM     19  C   LIG    1       27.001 -14.123   2.539  0.00  0.00    +0.088 C 
BRANCH  19  20
ATOM     20  N   LIG    1       27.016 -13.047   3.555  0.00  0.00    -0.308 NA
ATOM     21  C   LIG    1       28.330 -12.897   4.183  0.00  0.00    +0.104 C 
ATOM     22  C   LIG    1       26.009 -13.326   4.583  0.00  0.00    +0.104 C 
ENDBRANCH  19  20
ENDBRANCH  18  19
ENDBRANCH   9  18
TORSDOF 6
ENDMDL
MODEL 6
REMARK VINA RESULT:      -3.0      3.408      6.712
REMARK  Name = *****
REMARK                            x       y       z     vdW  Elec       q    Type
REMARK                         _______ _______ _______ _____ _____    ______ ____
ROOT
ATOM      1  C   LIG    1       25.958 -18.694   3.615  0.00  0.00    -0.024 C 
ATOM      2  C   LIG    1       25.675 -17.407   3.120  0.00  0.00    +0.015 C 
ATOM      3  C   LIG    1       26.528 -16.329   3.428  0.00  0.00    +0.003 C 
ATOM      4  C   LIG    1       27.640 -16.570   4.233  0.00  0.00    +0.047 C 
ATOM      5  N   LIG    1       28.294 -15.370   4.387  0.00  0.00    -0.360 NA
ATOM      6  H   LIG    1       29.140 -15.244   4.925  0.00  0.00    +0.165 HD
ATOM      7  C   LIG    1       27.638 -14.382   3.704  0.00  0.00    +0.087 C 
ATOM      8  C   LIG    1       27.951 -17.838   4.734  0.00  0.00    +0.026 C 
ATOM      9  C   LIG    1       26.538 -14.942   3.082  0.00  0.00    -0.021 C 
ATOM     10  C   LIG    1       27.093 -18.894   4.410  0.00  0.00    +0.007 C 
ENDROOT
BRANCH   1  11
ATOM     11  C   LIG    1       25.038 -19.839   3.289  0.00  0.00    +0.220 C 
BRANCH  11  12
ATOM     12  S   LIG    1       23.738 -19.943   4.529  0.00  0.00    +0.033 S 
ATOM     13  O   LIG    1       23.105 -18.658   4.714  0.00  0.00    -0.158 OA
ATOM     14  O   LIG    1       22.963 -21.153   4.330  0.00  0.00    -0.158 OA
BRANCH  12  16
ATOM     15  C   LIG    1       23.955 -20.927   7.035  0.00  0.00    +0.127 C 
ATOM     16  N   LIG    1       24.637 -20.240   5.935  0.00  0.00    -0.197 NA
ATOM     17  H   LIG    1       25.547 -20.627   5.678  0.00  0.00    +0.147 HD
ENDBRANCH  12  16
ENDBRANCH  11  12
ENDBRANCH   1  11
BRANCH   9  18
ATOM     18  C   LIG    1       25.560 -14.228   2.199  0.00  0.00    +0.052 C 
BRANCH  18  19
ATOM     19  C   LIG    1       24.897 -13.033   2.906  0.00  0.00    +0.088 C 
BRANCH  19  20
ATOM     20  N   LIG    1       24.524 -13.283   4.316  0.00  0.00    -0.308 NA
ATOM     21  C   LIG    1       23.571 -14.387   4.448  0.00  0.00    +0.104 C 
ATOM     22  C   LIG    1       23.949 -12.066   4.896  0.00  0.00    +0.104 C 
ENDBRANCH  19  20
ENDBRANCH  18  19
ENDBRANCH   9  18
TORSDOF 6
ENDMDL
MODEL 7
REMARK VINA RESULT:      -3.0      1.745      2.292
REMARK  Name = *****
REMARK                            x       y       z     vdW  Elec       q    Type
REMARK                         _______ _______ _______ _____ _____    ______ ____
ROOT
ATOM      1  C   LIG    1       24.337 -17.266   3.788  0.00  0.00    -0.024 C 
ATOM      2  C   LIG    1       24.930 -18.433   4.306  0.00  0.00    +0.015 C 
ATOM      3  C   LIG    1       24.123 -19.508   4.726  0.00  0.00    +0.003 C 
ATOM      4  C   LIG    1       22.739 -19.381   4.624  0.00  0.00    +0.047 C 
ATOM      5  N   LIG    1       22.189 -20.548   5.101  0.00  0.00    -0.360 NA
ATOM      6  H   LIG    1       21.198 -20.737   5.147  0.00  0.00    +0.165 HD
ATOM      7  C   LIG    1       23.177 -21.409   5.495  0.00  0.00    +0.087 C 
ATOM      8  C   LIG    1       22.120 -18.237   4.108  0.00  0.00    +0.026 C 
ATOM      9  C   LIG    1       24.398 -20.804   5.267  0.00  0.00    -0.021 C 
ATOM     10  C   LIG    1       22.943 -17.186   3.691  0.00  0.00    +0.007 C 
ENDROOT
BRANCH   1  11
ATOM     11  C   LIG    1       25.204 -16.119   3.348  0.00  0.00    +0.220 C 
BRANCH  11  12
ATOM     12  S   LIG    1       24.500 -14.569   3.933  0.00  0.00    +0.033 S 
ATOM     13  O   LIG    1       24.171 -13.706   2.823  0.00  0.00    -0.158 OA
ATOM     14  O   LIG    1       23.554 -14.831   5.002  0.00  0.00    -0.158 OA
BRANCH  12  16
ATOM     15  C   LIG    1       27.157 -14.127   4.136  0.00  0.00    +0.127 C 
ATOM     16  N   LIG    1       25.833 -13.865   4.708  0.00  0.00    -0.197 NA
ATOM     17  H   LIG    1       25.630 -12.883   4.904  0.00  0.00    +0.147 HD
ENDBRANCH  12  16
ENDBRANCH  11  12
ENDBRANCH   1  11
BRANCH   9  18
ATOM     18  C   LIG    1       25.747 -21.404   5.521  0.00  0.00    +0.052 C 
BRANCH  18  19
ATOM     19  C   LIG    1       26.334 -20.975   6.877  0.00  0.00    +0.088 C 
BRANCH  19  20
ATOM     20  N   LIG    1       27.687 -20.381   6.800  0.00  0.00    -0.308 NA
ATOM     21  C   LIG    1       27.946 -19.761   5.500  0.00  0.00    +0.104 C 
ATOM     22  C   LIG    1       28.693 -21.415   7.060  0.00  0.00    +0.104 C 
ENDBRANCH  19  20
ENDBRANCH  18  19
ENDBRANCH   9  18
TORSDOF 6
ENDMDL
MODEL 8
REMARK VINA RESULT:      -2.5      3.417      5.902
REMARK  Name = *****
REMARK                            x       y       z     vdW  Elec       q    Type
REMARK                         _______ _______ _______ _____ _____    ______ ____
ROOT
ATOM      1  C   LIG    1       24.807 -20.674   4.877  0.00  0.00    -0.024 C 
ATOM      2  C   LIG    1       24.801 -19.316   4.505  0.00  0.00    +0.015 C 
ATOM      3  C   LIG    1       23.579 -18.625   4.376  0.00  0.00    +0.003 C 
ATOM      4  C   LIG    1       22.394 -19.318   4.617  0.00  0.00    +0.047 C 
ATOM      5  N   LIG    1       21.361 -18.433   4.419  0.00  0.00    -0.360 NA
ATOM      6  H   LIG    1       20.383 -18.661   4.524  0.00  0.00    +0.165 HD
ATOM      7  C   LIG    1       21.852 -17.204   4.068  0.00  0.00    +0.087 C 
ATOM      8  C   LIG    1       22.369 -20.665   4.995  0.00  0.00    +0.026 C 
ATOM      9  C   LIG    1       23.231 -17.279   4.041  0.00  0.00    -0.021 C 
ATOM     10  C   LIG    1       23.593 -21.328   5.122  0.00  0.00    +0.007 C 
ENDROOT
BRANCH   1  11
ATOM     11  C   LIG    1       26.113 -21.408   5.005  0.00  0.00    +0.220 C 
BRANCH  11  12
ATOM     12  S   LIG    1       27.140 -20.605   6.246  0.00  0.00    +0.033 S 
ATOM     13  O   LIG    1       26.352 -19.712   7.062  0.00  0.00    -0.158 OA
ATOM     14  O   LIG    1       28.050 -21.572   6.833  0.00  0.00    -0.158 OA
BRANCH  12  16
ATOM     15  C   LIG    1       29.102 -18.769   5.966  0.00  0.00    +0.127 C 
ATOM     16  N   LIG    1       28.129 -19.623   5.280  0.00  0.00    -0.197 NA
ATOM     17  H   LIG    1       28.505 -20.178   4.508  0.00  0.00    +0.147 HD
ENDBRANCH  12  16
ENDBRANCH  11  12
ENDBRANCH   1  11
BRANCH   9  18
ATOM     18  C   LIG    1       24.175 -16.155   3.739  0.00  0.00    +0.052 C 
BRANCH  18  19
ATOM     19  C   LIG    1       23.695 -14.814   4.321  0.00  0.00    +0.088 C 
BRANCH  19  20
ATOM     20  N   LIG    1       24.630 -13.686   4.115  0.00  0.00    -0.308 NA
ATOM     21  C   LIG    1       23.994 -12.557   3.435  0.00  0.00    +0.104 C 
ATOM     22  C   LIG    1       25.786 -14.141   3.337  0.00  0.00    +0.104 C 
ENDBRANCH  19  20
ENDBRANCH  18  19
ENDBRANCH   9  18
TORSDOF 6
ENDMDL
