MODEL 1
REMARK VINA RESULT:      -8.8      0.000      0.000
REMARK  Name = *****
REMARK                            x       y       z     vdW  Elec       q    Type
REMARK                         _______ _______ _______ _____ _____    ______ ____
ROOT
ATOM      1  C   LIG    1       26.190 -22.585   6.579  0.00  0.00    +0.051 C 
ATOM      2  C   LIG    1       26.857 -22.065   7.868  0.00  0.00    +0.065 C 
ATOM      3  C   LIG    1       25.864 -21.015   8.327  0.00  0.00    +0.140 C 
ATOM      4  O   LIG    1       25.872 -20.513   9.446  0.00  0.00    -0.297 OA
ATOM      5  C   LIG    1       24.795 -20.711   7.317  0.00  0.00    +0.106 C 
ATOM      6  C   LIG    1       25.290 -21.436   6.077  0.00  0.00    +0.129 C 
ENDROOT
BRANCH   6   7
ATOM      7  O   LIG    1       26.024 -20.527   5.263  0.00  0.00    -0.391 OA
ATOM      8  H   LIG    1       26.336 -19.801   5.833  0.00  0.00    +0.210 HD
ENDBRANCH   6   7
BRANCH   1  10
ATOM      9  C   LIG    1       25.525 -24.990   6.260  0.00  0.00    -0.000 C 
ATOM     10  C   LIG    1       25.354 -23.810   6.877  0.00  0.00    -0.022 C 
BRANCH   9  11
ATOM     11  C   LIG    1       24.604 -26.164   6.449  0.00  0.00    +0.137 C 
BRANCH  11  12
ATOM     12  O   LIG    1       23.640 -26.069   5.408  0.00  0.00    -0.388 OA
ATOM     13  H   LIG    1       24.109 -25.723   4.628  0.00  0.00    +0.210 HD
ENDBRANCH  11  12
BRANCH  11  14
ATOM     14  C   LIG    1       25.336 -27.514   6.373  0.00  0.00    +0.039 C 
BRANCH  14  15
ATOM     15  C   LIG    1       24.607 -28.709   7.041  0.00  0.00    -0.011 C 
ATOM     16  C   LIG    1       24.262 -29.767   5.978  0.00  0.00    +0.007 C 
BRANCH  15  17
ATOM     17  C   LIG    1       25.370 -29.344   8.232  0.00  0.00    +0.003 C 
BRANCH  17  18
ATOM     18  C   LIG    1       26.324 -28.384   8.952  0.00  0.00    -0.000 C 
BRANCH  18  20
ATOM     19  C   LIG    1       26.986 -27.818  11.314  0.00  0.00    +0.004 C 
ATOM     20  C   LIG    1       26.861 -28.932  10.277  0.00  0.00    -0.003 C 
ENDBRANCH  18  20
ENDBRANCH  17  18
ENDBRANCH  15  17
ENDBRANCH  14  15
ENDBRANCH  11  14
ENDBRANCH   9  11
ENDBRANCH   1  10
BRANCH   2  21
ATOM     21  C   LIG    1       28.273 -21.512   7.648  0.00  0.00    +0.011 C 
BRANCH  21  22
ATOM     22  C   LIG    1       28.282 -19.978   7.637  0.00  0.00    +0.001 C 
BRANCH  22  23
ATOM     23  C   LIG    1       29.169 -19.327   6.575  0.00  0.00    +0.004 C 
BRANCH  23  24
ATOM     24  C   LIG    1       30.600 -19.060   7.046  0.00  0.00    +0.027 C 
BRANCH  24  25
ATOM     25  C   LIG    1       30.766 -18.715   8.503  0.00  0.00    -0.020 C 
ATOM     26  C   LIG    1       30.266 -17.644   9.145  0.00  0.00    +0.087 C 
BRANCH  26  27
ATOM     27  C   LIG    1       30.388 -17.440  10.594  0.00  0.00    +0.329 C 
ATOM     28  O   LIG    1       30.245 -16.358  11.155  0.00  0.00    -0.246 OA
BRANCH  27  29
ATOM     29  O   LIG    1       30.705 -18.550  11.269  0.00  0.00    -0.477 OA
ATOM     30  H   LIG    1       31.480 -18.291  11.808  0.00  0.00    +0.295 HD
ENDBRANCH  27  29
ENDBRANCH  26  27
ENDBRANCH  24  25
ENDBRANCH  23  24
ENDBRANCH  22  23
ENDBRANCH  21  22
ENDBRANCH   2  21
TORSDOF 16
ENDMDL
MODEL 2
REMARK VINA RESULT:      -8.7      3.831      7.670
REMARK  Name = *****
REMARK                            x       y       z     vdW  Elec       q    Type
REMARK                         _______ _______ _______ _____ _____    ______ ____
ROOT
ATOM      1  C   LIG    1       25.484 -21.257   5.834  0.00  0.00    +0.051 C 
ATOM      2  C   LIG    1       24.163 -20.704   6.404  0.00  0.00    +0.065 C 
ATOM      3  C   LIG    1       23.723 -21.833   7.317  0.00  0.00    +0.140 C 
ATOM      4  O   LIG    1       22.840 -21.722   8.160  0.00  0.00    -0.297 OA
ATOM      5  C   LIG    1       24.540 -23.084   7.166  0.00  0.00    +0.106 C 
ATOM      6  C   LIG    1       25.374 -22.794   5.930  0.00  0.00    +0.129 C 
ENDROOT
BRANCH   6   7
ATOM      7  O   LIG    1       24.721 -23.333   4.785  0.00  0.00    -0.391 OA
ATOM      8  H   LIG    1       25.401 -23.729   4.212  0.00  0.00    +0.210 HD
ENDBRANCH   6   7
BRANCH   1  10
ATOM      9  C   LIG    1       27.619 -21.576   7.128  0.00  0.00    -0.000 C 
ATOM     10  C   LIG    1       26.656 -20.767   6.656  0.00  0.00    -0.022 C 
BRANCH   9  11
ATOM     11  C   LIG    1       28.702 -21.116   8.063  0.00  0.00    +0.137 C 
BRANCH  11  12
ATOM     12  O   LIG    1       29.836 -21.923   7.768  0.00  0.00    -0.388 OA
ATOM     13  H   LIG    1       30.368 -21.426   7.121  0.00  0.00    +0.210 HD
ENDBRANCH  11  12
BRANCH  11  14
ATOM     14  C   LIG    1       29.049 -19.629   7.889  0.00  0.00    +0.039 C 
BRANCH  14  15
ATOM     15  C   LIG    1       30.147 -19.316   6.838  0.00  0.00    -0.011 C 
ATOM     16  C   LIG    1       29.588 -18.357   5.773  0.00  0.00    +0.007 C 
BRANCH  15  17
ATOM     17  C   LIG    1       31.473 -18.778   7.433  0.00  0.00    +0.003 C 
BRANCH  17  18
ATOM     18  C   LIG    1       31.553 -18.851   8.962  0.00  0.00    -0.000 C 
BRANCH  18  20
ATOM     19  C   LIG    1       30.372 -17.251  10.506  0.00  0.00    +0.004 C 
ATOM     20  C   LIG    1       31.609 -17.480   9.640  0.00  0.00    -0.003 C 
ENDBRANCH  18  20
ENDBRANCH  17  18
ENDBRANCH  15  17
ENDBRANCH  14  15
ENDBRANCH  11  14
ENDBRANCH   9  11
ENDBRANCH   1  10
BRANCH   2  21
ATOM     21  C   LIG    1       23.127 -20.353   5.325  0.00  0.00    +0.011 C 
BRANCH  21  22
ATOM     22  C   LIG    1       23.794 -20.103   3.966  0.00  0.00    +0.001 C 
BRANCH  22  23
ATOM     23  C   LIG    1       23.986 -18.636   3.581  0.00  0.00    +0.004 C 
BRANCH  23  24
ATOM     24  C   LIG    1       25.453 -18.221   3.443  0.00  0.00    +0.027 C 
BRANCH  24  25
ATOM     25  C   LIG    1       25.714 -16.745   3.298  0.00  0.00    -0.020 C 
ATOM     26  C   LIG    1       26.882 -16.106   3.487  0.00  0.00    +0.087 C 
BRANCH  26  27
ATOM     27  C   LIG    1       27.072 -14.674   3.220  0.00  0.00    +0.329 C 
ATOM     28  O   LIG    1       27.468 -13.861   4.051  0.00  0.00    -0.246 OA
BRANCH  27  29
ATOM     29  O   LIG    1       26.744 -14.310   1.976  0.00  0.00    -0.477 OA
ATOM     30  H   LIG    1       26.357 -15.119   1.583  0.00  0.00    +0.295 HD
ENDBRANCH  27  29
ENDBRANCH  26  27
ENDBRANCH  24  25
ENDBRANCH  23  24
ENDBRANCH  22  23
ENDBRANCH  21  22
ENDBRANCH   2  21
TORSDOF 16
ENDMDL
MODEL 3
REMARK VINA RESULT:      -8.6      2.728      9.262
REMARK  Name = *****
REMARK                            x       y       z     vdW  Elec       q    Type
REMARK                         _______ _______ _______ _____ _____    ______ ____
ROOT
ATOM      1  C   LIG    1       25.403 -21.508   7.022  0.00  0.00    +0.051 C 
ATOM      2  C   LIG    1       25.200 -22.171   5.645  0.00  0.00    +0.065 C 
ATOM      3  C   LIG    1       24.137 -21.281   5.029  0.00  0.00    +0.140 C 
ATOM      4  O   LIG    1       23.844 -21.296   3.838  0.00  0.00    -0.297 OA
ATOM      5  C   LIG    1       23.538 -20.299   5.993  0.00  0.00    +0.106 C 
ATOM      6  C   LIG    1       24.087 -20.764   7.331  0.00  0.00    +0.129 C 
ENDROOT
BRANCH   6   7
ATOM      7  O   LIG    1       23.142 -21.630   7.951  0.00  0.00    -0.391 OA
ATOM      8  H   LIG    1       22.803 -22.238   7.270  0.00  0.00    +0.210 HD
ENDBRANCH   6   7
BRANCH   1  10
ATOM      9  C   LIG    1       27.692 -20.761   6.292  0.00  0.00    -0.000 C 
ATOM     10  C   LIG    1       26.555 -20.529   6.968  0.00  0.00    -0.022 C 
BRANCH   9  11
ATOM     11  C   LIG    1       28.892 -19.857   6.355  0.00  0.00    +0.137 C 
BRANCH  11  12
ATOM     12  O   LIG    1       28.726 -18.922   5.295  0.00  0.00    -0.388 OA
ATOM     13  H   LIG    1       27.842 -18.529   5.410  0.00  0.00    +0.210 HD
ENDBRANCH  11  12
BRANCH  11  14
ATOM     14  C   LIG    1       29.014 -19.121   7.698  0.00  0.00    +0.039 C 
BRANCH  14  15
ATOM     15  C   LIG    1       30.317 -19.394   8.496  0.00  0.00    -0.011 C 
ATOM     16  C   LIG    1       30.681 -20.886   8.397  0.00  0.00    +0.007 C 
BRANCH  15  17
ATOM     17  C   LIG    1       31.517 -18.499   8.095  0.00  0.00    +0.003 C 
BRANCH  17  18
ATOM     18  C   LIG    1       31.880 -17.430   9.133  0.00  0.00    -0.000 C 
BRANCH  18  20
ATOM     19  C   LIG    1       31.169 -16.522  11.370  0.00  0.00    +0.004 C 
ATOM     20  C   LIG    1       30.696 -16.984   9.993  0.00  0.00    -0.003 C 
ENDBRANCH  18  20
ENDBRANCH  17  18
ENDBRANCH  15  17
ENDBRANCH  14  15
ENDBRANCH  11  14
ENDBRANCH   9  11
ENDBRANCH   1  10
BRANCH   2  21
ATOM     21  C   LIG    1       24.786 -23.648   5.729  0.00  0.00    +0.011 C 
BRANCH  21  22
ATOM     22  C   LIG    1       25.522 -24.375   6.862  0.00  0.00    +0.001 C 
BRANCH  22  23
ATOM     23  C   LIG    1       26.228 -25.674   6.468  0.00  0.00    +0.004 C 
BRANCH  23  24
ATOM     24  C   LIG    1       25.709 -26.288   5.166  0.00  0.00    +0.027 C 
BRANCH  24  25
ATOM     25  C   LIG    1       25.022 -27.623   5.290  0.00  0.00    -0.020 C 
ATOM     26  C   LIG    1       24.678 -28.256   6.425  0.00  0.00    +0.087 C 
BRANCH  26  27
ATOM     27  C   LIG    1       23.914 -29.509   6.452  0.00  0.00    +0.329 C 
ATOM     28  O   LIG    1       24.036 -30.376   7.312  0.00  0.00    -0.246 OA
BRANCH  27  29
ATOM     29  O   LIG    1       23.072 -29.649   5.422  0.00  0.00    -0.477 OA
ATOM     30  H   LIG    1       23.658 -29.797   4.651  0.00  0.00    +0.295 HD
ENDBRANCH  27  29
ENDBRANCH  26  27
ENDBRANCH  24  25
ENDBRANCH  23  24
ENDBRANCH  22  23
ENDBRANCH  21  22
ENDBRANCH   2  21
TORSDOF 16
ENDMDL
MODEL 4
REMARK VINA RESULT:      -8.5      2.061      2.546
REMARK  Name = *****
REMARK                            x       y       z     vdW  Elec       q    Type
REMARK                         _______ _______ _______ _____ _____    ______ ____
ROOT
ATOM      1  C   LIG    1       24.583 -22.679   5.529  0.00  0.00    +0.051 C 
ATOM      2  C   LIG    1       25.421 -21.564   6.185  0.00  0.00    +0.065 C 
ATOM      3  C   LIG    1       24.657 -21.322   7.474  0.00  0.00    +0.140 C 
ATOM      4  O   LIG    1       25.103 -20.681   8.420  0.00  0.00    -0.297 OA
ATOM      5  C   LIG    1       23.332 -22.026   7.532  0.00  0.00    +0.106 C 
ATOM      6  C   LIG    1       23.161 -22.538   6.112  0.00  0.00    +0.129 C 
ENDROOT
BRANCH   6   7
ATOM      7  O   LIG    1       22.392 -21.599   5.365  0.00  0.00    -0.391 OA
ATOM      8  H   LIG    1       22.360 -20.769   5.873  0.00  0.00    +0.210 HD
ENDBRANCH   6   7
BRANCH   1  10
ATOM      9  C   LIG    1       25.132 -25.084   5.034  0.00  0.00    -0.000 C 
ATOM     10  C   LIG    1       25.154 -24.037   5.875  0.00  0.00    -0.022 C 
BRANCH   9  11
ATOM     11  C   LIG    1       25.567 -26.470   5.427  0.00  0.00    +0.137 C 
BRANCH  11  12
ATOM     12  O   LIG    1       26.914 -26.342   5.863  0.00  0.00    -0.388 OA
ATOM     13  H   LIG    1       26.943 -25.562   6.446  0.00  0.00    +0.210 HD
ENDBRANCH  11  12
BRANCH  11  14
ATOM     14  C   LIG    1       24.701 -27.072   6.545  0.00  0.00    +0.039 C 
BRANCH  14  15
ATOM     15  C   LIG    1       24.322 -28.566   6.368  0.00  0.00    -0.011 C 
ATOM     16  C   LIG    1       25.044 -29.141   5.137  0.00  0.00    +0.007 C 
BRANCH  15  17
ATOM     17  C   LIG    1       24.569 -29.445   7.620  0.00  0.00    +0.003 C 
BRANCH  17  18
ATOM     18  C   LIG    1       25.854 -29.106   8.385  0.00  0.00    -0.000 C 
BRANCH  18  20
ATOM     19  C   LIG    1       26.946 -28.589  10.593  0.00  0.00    +0.004 C 
ATOM     20  C   LIG    1       25.678 -29.088   9.905  0.00  0.00    -0.003 C 
ENDBRANCH  18  20
ENDBRANCH  17  18
ENDBRANCH  15  17
ENDBRANCH  14  15
ENDBRANCH  11  14
ENDBRANCH   9  11
ENDBRANCH   1  10
BRANCH   2  21
ATOM     21  C   LIG    1       25.561 -20.307   5.313  0.00  0.00    +0.011 C 
BRANCH  21  22
ATOM     22  C   LIG    1       27.024 -19.857   5.205  0.00  0.00    +0.001 C 
BRANCH  22  23
ATOM     23  C   LIG    1       27.915 -20.211   6.397  0.00  0.00    +0.004 C 
BRANCH  23  24
ATOM     24  C   LIG    1       29.189 -19.367   6.486  0.00  0.00    +0.027 C 
BRANCH  24  25
ATOM     25  C   LIG    1       30.293 -19.921   7.348  0.00  0.00    -0.020 C 
ATOM     26  C   LIG    1       30.234 -21.003   8.145  0.00  0.00    +0.087 C 
BRANCH  26  27
ATOM     27  C   LIG    1       31.395 -21.534   8.872  0.00  0.00    +0.329 C 
ATOM     28  O   LIG    1       32.274 -20.840   9.375  0.00  0.00    -0.246 OA
BRANCH  27  29
ATOM     29  O   LIG    1       31.435 -22.869   8.919  0.00  0.00    -0.477 OA
ATOM     30  H   LIG    1       32.338 -23.071   9.240  0.00  0.00    +0.295 HD
ENDBRANCH  27  29
ENDBRANCH  26  27
ENDBRANCH  24  25
ENDBRANCH  23  24
ENDBRANCH  22  23
ENDBRANCH  21  22
ENDBRANCH   2  21
TORSDOF 16
ENDMDL
MODEL 5
REMARK VINA RESULT:      -8.5      1.577      1.893
REMARK  Name = *****
REMARK                            x       y       z     vdW  Elec       q    Type
REMARK                         _______ _______ _______ _____ _____    ______ ____
ROOT
ATOM      1  C   LIG    1       25.008 -22.591   5.639  0.00  0.00    +0.051 C 
ATOM      2  C   LIG    1       25.972 -22.121   6.747  0.00  0.00    +0.065 C 
ATOM      3  C   LIG    1       25.033 -21.970   7.929  0.00  0.00    +0.140 C 
ATOM      4  O   LIG    1       25.413 -21.845   9.089  0.00  0.00    -0.297 OA
ATOM      5  C   LIG    1       23.581 -22.089   7.566  0.00  0.00    +0.106 C 
ATOM      6  C   LIG    1       23.612 -22.075   6.047  0.00  0.00    +0.129 C 
ENDROOT
BRANCH   6   7
ATOM      7  O   LIG    1       23.403 -20.744   5.586  0.00  0.00    -0.391 OA
ATOM      8  H   LIG    1       23.526 -20.143   6.343  0.00  0.00    +0.210 HD
ENDBRANCH   6   7
BRANCH   1  10
ATOM      9  C   LIG    1       25.987 -24.874   6.041  0.00  0.00    -0.000 C 
ATOM     10  C   LIG    1       25.001 -24.102   5.556  0.00  0.00    -0.022 C 
BRANCH   9  11
ATOM     11  C   LIG    1       26.053 -26.362   5.832  0.00  0.00    +0.137 C 
BRANCH  11  12
ATOM     12  O   LIG    1       27.422 -26.656   5.586  0.00  0.00    -0.388 OA
ATOM     13  H   LIG    1       27.940 -25.999   6.085  0.00  0.00    +0.210 HD
ENDBRANCH  11  12
BRANCH  11  14
ATOM     14  C   LIG    1       25.548 -27.157   7.046  0.00  0.00    +0.039 C 
BRANCH  14  15
ATOM     15  C   LIG    1       24.634 -28.368   6.720  0.00  0.00    -0.011 C 
ATOM     16  C   LIG    1       24.457 -28.489   5.197  0.00  0.00    +0.007 C 
BRANCH  15  17
ATOM     17  C   LIG    1       25.101 -29.711   7.336  0.00  0.00    +0.003 C 
BRANCH  17  18
ATOM     18  C   LIG    1       24.998 -29.774   8.864  0.00  0.00    -0.000 C 
BRANCH  18  20
ATOM     19  C   LIG    1       23.564 -30.158  10.897  0.00  0.00    +0.004 C 
ATOM     20  C   LIG    1       23.591 -30.099   9.371  0.00  0.00    -0.003 C 
ENDBRANCH  18  20
ENDBRANCH  17  18
ENDBRANCH  15  17
ENDBRANCH  14  15
ENDBRANCH  11  14
ENDBRANCH   9  11
ENDBRANCH   1  10
BRANCH   2  21
ATOM     21  C   LIG    1       26.727 -20.829   6.398  0.00  0.00    +0.011 C 
BRANCH  21  22
ATOM     22  C   LIG    1       27.995 -20.673   7.246  0.00  0.00    +0.001 C 
BRANCH  22  23
ATOM     23  C   LIG    1       29.226 -20.143   6.508  0.00  0.00    +0.004 C 
BRANCH  23  24
ATOM     24  C   LIG    1       29.710 -18.782   7.013  0.00  0.00    +0.027 C 
BRANCH  24  25
ATOM     25  C   LIG    1       29.976 -18.680   8.492  0.00  0.00    -0.020 C 
ATOM     26  C   LIG    1       30.323 -17.577   9.179  0.00  0.00    +0.087 C 
BRANCH  26  27
ATOM     27  C   LIG    1       30.459 -17.546  10.641  0.00  0.00    +0.329 C 
ATOM     28  O   LIG    1       30.747 -18.521  11.330  0.00  0.00    -0.246 OA
BRANCH  27  29
ATOM     29  O   LIG    1       30.210 -16.349  11.181  0.00  0.00    -0.477 OA
ATOM     30  H   LIG    1       30.933 -16.223  11.830  0.00  0.00    +0.295 HD
ENDBRANCH  27  29
ENDBRANCH  26  27
ENDBRANCH  24  25
ENDBRANCH  23  24
ENDBRANCH  22  23
ENDBRANCH  21  22
ENDBRANCH   2  21
TORSDOF 16
ENDMDL
MODEL 6
REMARK VINA RESULT:      -8.4      1.627      2.651
REMARK  Name = *****
REMARK                            x       y       z     vdW  Elec       q    Type
REMARK                         _______ _______ _______ _____ _____    ______ ____
ROOT
ATOM      1  C   LIG    1       25.699 -22.934   6.464  0.00  0.00    +0.051 C 
ATOM      2  C   LIG    1       25.157 -22.290   7.755  0.00  0.00    +0.065 C 
ATOM      3  C   LIG    1       23.807 -21.771   7.297  0.00  0.00    +0.140 C 
ATOM      4  O   LIG    1       22.926 -21.397   8.064  0.00  0.00    -0.297 OA
ATOM      5  C   LIG    1       23.601 -21.850   5.812  0.00  0.00    +0.106 C 
ATOM      6  C   LIG    1       24.984 -22.215   5.301  0.00  0.00    +0.129 C 
ENDROOT
BRANCH   6   7
ATOM      7  O   LIG    1       25.676 -21.026   4.930  0.00  0.00    -0.391 OA
ATOM      8  H   LIG    1       26.491 -21.287   4.465  0.00  0.00    +0.210 HD
ENDBRANCH   6   7
BRANCH   1  10
ATOM      9  C   LIG    1       25.453 -25.167   5.331  0.00  0.00    -0.000 C 
ATOM     10  C   LIG    1       25.376 -24.412   6.439  0.00  0.00    -0.022 C 
BRANCH   9  11
ATOM     11  C   LIG    1       24.995 -26.598   5.271  0.00  0.00    +0.137 C 
BRANCH  11  12
ATOM     12  O   LIG    1       26.099 -27.336   4.761  0.00  0.00    -0.388 OA
ATOM     13  H   LIG    1       26.516 -26.774   4.083  0.00  0.00    +0.210 HD
ENDBRANCH  11  12
BRANCH  11  14
ATOM     14  C   LIG    1       24.578 -27.149   6.644  0.00  0.00    +0.039 C 
BRANCH  14  15
ATOM     15  C   LIG    1       25.308 -28.440   7.098  0.00  0.00    -0.011 C 
ATOM     16  C   LIG    1       26.163 -28.143   8.341  0.00  0.00    +0.007 C 
BRANCH  15  17
ATOM     17  C   LIG    1       24.376 -29.655   7.340  0.00  0.00    +0.003 C 
BRANCH  17  18
ATOM     18  C   LIG    1       24.222 -30.582   6.129  0.00  0.00    -0.000 C 
BRANCH  18  20
ATOM     19  C   LIG    1       26.338 -31.940   6.015  0.00  0.00    +0.004 C 
ATOM     20  C   LIG    1       25.528 -30.819   5.367  0.00  0.00    -0.003 C 
ENDBRANCH  18  20
ENDBRANCH  17  18
ENDBRANCH  15  17
ENDBRANCH  14  15
ENDBRANCH  11  14
ENDBRANCH   9  11
ENDBRANCH   1  10
BRANCH   2  21
ATOM     21  C   LIG    1       26.070 -21.194   8.326  0.00  0.00    +0.011 C 
BRANCH  21  22
ATOM     22  C   LIG    1       27.537 -21.427   7.941  0.00  0.00    +0.001 C 
BRANCH  22  23
ATOM     23  C   LIG    1       28.345 -20.170   7.616  0.00  0.00    +0.004 C 
BRANCH  23  24
ATOM     24  C   LIG    1       29.857 -20.403   7.571  0.00  0.00    +0.027 C 
BRANCH  24  25
ATOM     25  C   LIG    1       30.688 -19.542   8.486  0.00  0.00    -0.020 C 
ATOM     26  C   LIG    1       31.408 -18.458   8.147  0.00  0.00    +0.087 C 
BRANCH  26  27
ATOM     27  C   LIG    1       32.106 -17.613   9.125  0.00  0.00    +0.329 C 
ATOM     28  O   LIG    1       32.253 -17.903  10.309  0.00  0.00    -0.246 OA
BRANCH  27  29
ATOM     29  O   LIG    1       32.554 -16.460   8.618  0.00  0.00    -0.477 OA
ATOM     30  H   LIG    1       32.956 -16.002   9.385  0.00  0.00    +0.295 HD
ENDBRANCH  27  29
ENDBRANCH  26  27
ENDBRANCH  24  25
ENDBRANCH  23  24
ENDBRANCH  22  23
ENDBRANCH  21  22
ENDBRANCH   2  21
TORSDOF 16
ENDMDL
MODEL 7
REMARK VINA RESULT:      -8.2      1.406      2.280
REMARK  Name = *****
REMARK                            x       y       z     vdW  Elec       q    Type
REMARK                         _______ _______ _______ _____ _____    ______ ____
ROOT
ATOM      1  C   LIG    1       25.448 -21.951   6.118  0.00  0.00    +0.051 C 
ATOM      2  C   LIG    1       26.479 -21.323   7.076  0.00  0.00    +0.065 C 
ATOM      3  C   LIG    1       25.584 -20.742   8.155  0.00  0.00    +0.140 C 
ATOM      4  O   LIG    1       25.993 -20.355   9.244  0.00  0.00    -0.297 OA
ATOM      5  C   LIG    1       24.124 -20.772   7.809  0.00  0.00    +0.106 C 
ATOM      6  C   LIG    1       24.134 -21.174   6.343  0.00  0.00    +0.129 C 
ENDROOT
BRANCH   6   7
ATOM      7  O   LIG    1       24.086 -20.003   5.535  0.00  0.00    -0.391 OA
ATOM      8  H   LIG    1       23.642 -19.304   6.048  0.00  0.00    +0.210 HD
ENDBRANCH   6   7
BRANCH   1  10
ATOM      9  C   LIG    1       25.127 -24.372   5.513  0.00  0.00    -0.000 C 
ATOM     10  C   LIG    1       25.251 -23.415   6.447  0.00  0.00    -0.022 C 
BRANCH   9  11
ATOM     11  C   LIG    1       24.786 -25.802   5.833  0.00  0.00    +0.137 C 
BRANCH  11  12
ATOM     12  O   LIG    1       23.416 -25.959   5.482  0.00  0.00    -0.388 OA
ATOM     13  H   LIG    1       23.359 -26.777   4.955  0.00  0.00    +0.210 HD
ENDBRANCH  11  12
BRANCH  11  14
ATOM     14  C   LIG    1       25.652 -26.809   5.060  0.00  0.00    +0.039 C 
BRANCH  14  15
ATOM     15  C   LIG    1       25.899 -28.165   5.772  0.00  0.00    -0.011 C 
ATOM     16  C   LIG    1       25.667 -28.006   7.284  0.00  0.00    +0.007 C 
BRANCH  15  17
ATOM     17  C   LIG    1       25.076 -29.350   5.203  0.00  0.00    +0.003 C 
BRANCH  17  18
ATOM     18  C   LIG    1       24.037 -29.920   6.175  0.00  0.00    -0.000 C 
BRANCH  18  20
ATOM     19  C   LIG    1       25.105 -32.051   5.369  0.00  0.00    +0.004 C 
ATOM     20  C   LIG    1       24.174 -31.426   6.405  0.00  0.00    -0.003 C 
ENDBRANCH  18  20
ENDBRANCH  17  18
ENDBRANCH  15  17
ENDBRANCH  14  15
ENDBRANCH  11  14
ENDBRANCH   9  11
ENDBRANCH   1  10
BRANCH   2  21
ATOM     21  C   LIG    1       27.385 -20.278   6.406  0.00  0.00    +0.011 C 
BRANCH  21  22
ATOM     22  C   LIG    1       28.867 -20.556   6.686  0.00  0.00    +0.001 C 
BRANCH  22  23
ATOM     23  C   LIG    1       29.801 -19.350   6.570  0.00  0.00    +0.004 C 
BRANCH  23  24
ATOM     24  C   LIG    1       31.120 -19.517   7.328  0.00  0.00    +0.027 C 
BRANCH  24  25
ATOM     25  C   LIG    1       31.176 -18.903   8.703  0.00  0.00    -0.020 C 
ATOM     26  C   LIG    1       30.354 -17.966   9.208  0.00  0.00    +0.087 C 
BRANCH  26  27
ATOM     27  C   LIG    1       30.417 -17.500  10.599  0.00  0.00    +0.329 C 
ATOM     28  O   LIG    1       30.193 -16.346  10.953  0.00  0.00    -0.246 OA
BRANCH  27  29
ATOM     29  O   LIG    1       30.776 -18.450  11.469  0.00  0.00    -0.477 OA
ATOM     30  H   LIG    1       31.685 -18.201  11.735  0.00  0.00    +0.295 HD
ENDBRANCH  27  29
ENDBRANCH  26  27
ENDBRANCH  24  25
ENDBRANCH  23  24
ENDBRANCH  22  23
ENDBRANCH  21  22
ENDBRANCH   2  21
TORSDOF 16
ENDMDL
MODEL 8
REMARK VINA RESULT:      -7.9      4.034      8.248
REMARK  Name = *****
REMARK                            x       y       z     vdW  Elec       q    Type
REMARK                         _______ _______ _______ _____ _____    ______ ____
ROOT
ATOM      1  C   LIG    1       26.319 -21.343   6.092  0.00  0.00    +0.051 C 
ATOM      2  C   LIG    1       24.877 -20.814   6.223  0.00  0.00    +0.065 C 
ATOM      3  C   LIG    1       24.524 -21.228   7.639  0.00  0.00    +0.140 C 
ATOM      4  O   LIG    1       23.552 -20.799   8.252  0.00  0.00    -0.297 OA
ATOM      5  C   LIG    1       25.534 -22.141   8.271  0.00  0.00    +0.106 C 
ATOM      6  C   LIG    1       26.438 -22.502   7.104  0.00  0.00    +0.129 C 
ENDROOT
BRANCH   6   7
ATOM      7  O   LIG    1       25.996 -23.729   6.531  0.00  0.00    -0.391 OA
ATOM      8  H   LIG    1       25.910 -24.380   7.251  0.00  0.00    +0.210 HD
ENDBRANCH   6   7
BRANCH   1  10
ATOM      9  C   LIG    1       28.639 -20.445   6.470  0.00  0.00    -0.000 C 
ATOM     10  C   LIG    1       27.311 -20.252   6.432  0.00  0.00    -0.022 C 
BRANCH   9  11
ATOM     11  C   LIG    1       29.614 -19.405   6.947  0.00  0.00    +0.137 C 
BRANCH  11  12
ATOM     12  O   LIG    1       29.450 -18.293   6.075  0.00  0.00    -0.388 OA
ATOM     13  H   LIG    1       29.503 -17.495   6.631  0.00  0.00    +0.210 HD
ENDBRANCH  11  12
BRANCH  11  14
ATOM     14  C   LIG    1       29.365 -18.978   8.403  0.00  0.00    +0.039 C 
BRANCH  14  15
ATOM     15  C   LIG    1       30.592 -18.385   9.146  0.00  0.00    -0.011 C 
ATOM     16  C   LIG    1       31.858 -18.584   8.296  0.00  0.00    +0.007 C 
BRANCH  15  17
ATOM     17  C   LIG    1       30.432 -16.903   9.571  0.00  0.00    +0.003 C 
BRANCH  17  18
ATOM     18  C   LIG    1       30.758 -16.632  11.045  0.00  0.00    -0.000 C 
BRANCH  18  20
ATOM     19  C   LIG    1       32.679 -16.625  12.671  0.00  0.00    +0.004 C 
ATOM     20  C   LIG    1       32.206 -16.199  11.284  0.00  0.00    -0.003 C 
ENDBRANCH  18  20
ENDBRANCH  17  18
ENDBRANCH  15  17
ENDBRANCH  14  15
ENDBRANCH  11  14
ENDBRANCH   9  11
ENDBRANCH   1  10
BRANCH   2  21
ATOM     21  C   LIG    1       23.917 -21.379   5.165  0.00  0.00    +0.011 C 
BRANCH  21  22
ATOM     22  C   LIG    1       22.709 -20.458   4.953  0.00  0.00    +0.001 C 
BRANCH  22  23
ATOM     23  C   LIG    1       23.004 -19.128   4.257  0.00  0.00    +0.004 C 
BRANCH  23  24
ATOM     24  C   LIG    1       24.160 -19.197   3.257  0.00  0.00    +0.027 C 
BRANCH  24  25
ATOM     25  C   LIG    1       25.402 -18.430   3.625  0.00  0.00    -0.020 C 
ATOM     26  C   LIG    1       25.805 -17.249   3.124  0.00  0.00    +0.087 C 
BRANCH  26  27
ATOM     27  C   LIG    1       26.979 -16.519   3.619  0.00  0.00    +0.329 C 
ATOM     28  O   LIG    1       27.078 -15.295   3.633  0.00  0.00    -0.246 OA
BRANCH  27  29
ATOM     29  O   LIG    1       27.970 -17.313   4.038  0.00  0.00    -0.477 OA
ATOM     30  H   LIG    1       27.975 -18.051   3.394  0.00  0.00    +0.295 HD
ENDBRANCH  27  29
ENDBRANCH  26  27
ENDBRANCH  24  25
ENDBRANCH  23  24
ENDBRANCH  22  23
ENDBRANCH  21  22
ENDBRANCH   2  21
TORSDOF 16
ENDMDL
MODEL 9
REMARK VINA RESULT:      -7.9      3.017      4.715
REMARK  Name = *****
REMARK                            x       y       z     vdW  Elec       q    Type
REMARK                         _______ _______ _______ _____ _____    ______ ____
ROOT
ATOM      1  C   LIG    1       25.077 -22.730   7.257  0.00  0.00    +0.051 C 
ATOM      2  C   LIG    1       24.951 -21.539   6.287  0.00  0.00    +0.065 C 
ATOM      3  C   LIG    1       26.320 -20.896   6.408  0.00  0.00    +0.140 C 
ATOM      4  O   LIG    1       26.747 -20.052   5.628  0.00  0.00    -0.297 OA
ATOM      5  C   LIG    1       27.156 -21.461   7.519  0.00  0.00    +0.106 C 
ATOM      6  C   LIG    1       26.167 -22.332   8.275  0.00  0.00    +0.129 C 
ENDROOT
BRANCH   6   7
ATOM      7  O   LIG    1       25.613 -21.585   9.354  0.00  0.00    -0.391 OA
ATOM      8  H   LIG    1       25.078 -20.865   8.975  0.00  0.00    +0.210 HD
ENDBRANCH   6   7
BRANCH   1  10
ATOM      9  C   LIG    1       25.061 -25.208   6.820  0.00  0.00    -0.000 C 
ATOM     10  C   LIG    1       25.495 -23.976   6.507  0.00  0.00    -0.022 C 
BRANCH   9  11
ATOM     11  C   LIG    1       25.586 -26.459   6.172  0.00  0.00    +0.137 C 
BRANCH  11  12
ATOM     12  O   LIG    1       26.883 -26.129   5.690  0.00  0.00    -0.388 OA
ATOM     13  H   LIG    1       27.149 -25.314   6.151  0.00  0.00    +0.210 HD
ENDBRANCH  11  12
BRANCH  11  14
ATOM     14  C   LIG    1       25.667 -27.646   7.145  0.00  0.00    +0.039 C 
BRANCH  14  15
ATOM     15  C   LIG    1       24.531 -28.695   7.018  0.00  0.00    -0.011 C 
ATOM     16  C   LIG    1       24.240 -28.967   5.532  0.00  0.00    +0.007 C 
BRANCH  15  17
ATOM     17  C   LIG    1       24.787 -30.017   7.786  0.00  0.00    +0.003 C 
BRANCH  17  18
ATOM     18  C   LIG    1       25.180 -29.826   9.256  0.00  0.00    -0.000 C 
BRANCH  18  20
ATOM     19  C   LIG    1       26.923 -31.581   8.793  0.00  0.00    +0.004 C 
ATOM     20  C   LIG    1       26.592 -30.316   9.582  0.00  0.00    -0.003 C 
ENDBRANCH  18  20
ENDBRANCH  17  18
ENDBRANCH  15  17
ENDBRANCH  14  15
ENDBRANCH  11  14
ENDBRANCH   9  11
ENDBRANCH   1  10
BRANCH   2  21
ATOM     21  C   LIG    1       23.796 -20.585   6.631  0.00  0.00    +0.011 C 
BRANCH  21  22
ATOM     22  C   LIG    1       22.678 -20.655   5.583  0.00  0.00    +0.001 C 
BRANCH  22  23
ATOM     23  C   LIG    1       22.434 -19.373   4.786  0.00  0.00    +0.004 C 
BRANCH  23  24
ATOM     24  C   LIG    1       23.406 -19.177   3.621  0.00  0.00    +0.027 C 
BRANCH  24  25
ATOM     25  C   LIG    1       24.441 -18.096   3.796  0.00  0.00    -0.020 C 
ATOM     26  C   LIG    1       25.677 -18.064   3.266  0.00  0.00    +0.087 C 
BRANCH  26  27
ATOM     27  C   LIG    1       26.585 -16.917   3.403  0.00  0.00    +0.329 C 
ATOM     28  O   LIG    1       26.303 -15.769   3.070  0.00  0.00    -0.246 OA
BRANCH  27  29
ATOM     29  O   LIG    1       27.783 -17.234   3.904  0.00  0.00    -0.477 OA
ATOM     30  H   LIG    1       27.641 -17.250   4.873  0.00  0.00    +0.295 HD
ENDBRANCH  27  29
ENDBRANCH  26  27
ENDBRANCH  24  25
ENDBRANCH  23  24
ENDBRANCH  22  23
ENDBRANCH  21  22
ENDBRANCH   2  21
TORSDOF 16
ENDMDL
