MODEL 1
REMARK VINA RESULT:       2.3      0.000      0.000
REMARK  Name = *****
REMARK                            x       y       z     vdW  Elec       q    Type
REMARK                         _______ _______ _______ _____ _____    ______ ____
ROOT
ATOM      1  C   LIG    1       24.675 -20.688   4.291  0.00  0.00    -0.002 C 
ATOM      2  C   LIG    1       24.966 -19.147   4.434  0.00  0.00    -0.026 C 
ATOM      3  C   LIG    1       25.060 -18.639   5.885  0.00  0.00    +0.012 C 
ATOM      4  C   LIG    1       23.827 -18.516   3.599  0.00  0.00    -0.001 C 
ATOM      5  C   LIG    1       23.943 -16.998   3.343  0.00  0.00    +0.000 C 
ATOM      6  C   LIG    1       25.375 -16.481   3.000  0.00  0.00    +0.003 C 
ATOM      7  C   LIG    1       26.523 -17.273   3.671  0.00  0.00    +0.005 C 
ATOM      8  C   LIG    1       25.520 -14.893   3.137  0.00  0.00    -0.008 C 
ATOM      9  C   LIG    1       24.852 -14.252   1.894  0.00  0.00    +0.016 C 
ATOM     10  C   LIG    1       24.800 -14.328   4.358  0.00  0.00    -0.065 C 
ATOM     11  C   LIG    1       25.137 -12.929   4.837  0.00  0.00    +0.062 C 
ATOM     12  C   LIG    1       26.634 -12.627   4.849  0.00  0.00    +0.119 C 
ATOM     13  C   LIG    1       27.279 -13.003   3.520  0.00  0.00    +0.032 C 
ATOM     14  C   LIG    1       23.781 -14.980   4.956  0.00  0.00    -0.027 C 
ATOM     15  C   LIG    1       27.024 -14.471   3.170  0.00  0.00    +0.013 C 
ATOM     16  C   LIG    1       23.223 -16.274   4.503  0.00  0.00    +0.031 C 
ATOM     17  C   LIG    1       23.781 -19.399   2.352  0.00  0.00    +0.004 C 
ATOM     18  C   LIG    1       26.311 -18.783   3.748  0.00  0.00    +0.007 C 
ATOM     19  C   LIG    1       23.981 -20.817   2.902  0.00  0.00    +0.004 C 
ENDROOT
BRANCH   1  20
ATOM     20  C   LIG    1       23.866 -21.392   5.452  0.00  0.00    -0.010 C 
ATOM     21  C   LIG    1       22.400 -20.917   5.469  0.00  0.00    +0.008 C 
BRANCH  20  22
ATOM     22  C   LIG    1       24.508 -21.229   6.854  0.00  0.00    +0.003 C 
BRANCH  22  23
ATOM     23  C   LIG    1       25.999 -21.572   6.955  0.00  0.00    +0.000 C 
BRANCH  23  24
ATOM     24  C   LIG    1       26.889 -20.316   7.061  0.00  0.00    +0.003 C 
BRANCH  24  26
ATOM     25  C   LIG    1       28.777 -18.919   6.118  0.00  0.00    +0.007 C 
ATOM     26  C   LIG    1       28.187 -20.330   6.225  0.00  0.00    -0.017 C 
ATOM     27  C   LIG    1       29.239 -21.272   6.811  0.00  0.00    +0.007 C 
ENDBRANCH  24  26
ENDBRANCH  23  24
ENDBRANCH  22  23
ENDBRANCH  20  22
ENDBRANCH   1  20
BRANCH  12  28
ATOM     28  O   LIG    1       27.276 -13.311   5.927  0.00  0.00    -0.392 OA
ATOM     29  H   LIG    1       27.725 -14.092   5.559  0.00  0.00    +0.210 HD
ENDBRANCH  12  28
TORSDOF 6
ENDMDL
