MODEL 1
REMARK VINA RESULT:      -2.8      0.000      0.000
REMARK  Name = *****
REMARK                            x       y       z     vdW  Elec       q    Type
REMARK                         _______ _______ _______ _____ _____    ______ ____
ROOT
ATOM      1 CL   LIG    1       28.817 -20.772   7.062  0.00  0.00    -0.084 Cl
ATOM      2  C   LIG    1       28.232 -19.657   5.890  0.00  0.00    +0.042 A 
ATOM      3  C   LIG    1       26.914 -19.747   5.447  0.00  0.00    +0.039 A 
ATOM      4  C   LIG    1       26.440 -18.845   4.485  0.00  0.00    +0.109 A 
ATOM      5  C   LIG    1       25.042 -19.007   3.970  0.00  0.00    +0.325 C 
ATOM      6  N   LIG    1       24.242 -18.003   3.733  0.00  0.00    -0.038 NA
ATOM      7  C   LIG    1       24.605 -16.658   3.883  0.00  0.00    +0.218 A 
ATOM      8  C   LIG    1       25.850 -16.125   3.526  0.00  0.00    +0.179 A 
ATOM      9  O   LIG    1       26.878 -16.920   3.074  0.00  0.00    -0.451 OA
ATOM     10  C   LIG    1       26.097 -14.749   3.593  0.00  0.00    +0.051 A 
ATOM     11  C   LIG    1       25.102 -13.887   4.047  0.00  0.00    +0.004 A 
ATOM     12  C   LIG    1       23.860 -14.400   4.420  0.00  0.00    +0.004 A 
ATOM     13  C   LIG    1       23.615 -15.773   4.327  0.00  0.00    +0.059 A 
ATOM     14  C   LIG    1       27.284 -17.846   4.001  0.00  0.00    +0.144 A 
ATOM     15  C   LIG    1       28.613 -17.773   4.430  0.00  0.00    +0.048 A 
ATOM     16  C   LIG    1       29.086 -18.680   5.380  0.00  0.00    +0.023 A 
ENDROOT
BRANCH   5  17
ATOM     17  N   LIG    1       24.568 -20.313   3.776  0.00  0.00    -0.217 N 
ATOM     18  C   LIG    1       24.875 -21.334   4.805  0.00  0.00    +0.241 C 
ATOM     19  C   LIG    1       23.795 -21.355   5.910  0.00  0.00    +0.124 C 
ATOM     20  N   LIG    1       22.429 -21.572   5.379  0.00  0.00    -0.309 NA
ATOM     21  H   LIG    1       22.405 -22.487   4.930  0.00  0.00    +0.122 HD
ATOM     22  C   LIG    1       22.155 -20.542   4.354  0.00  0.00    +0.124 C 
ATOM     23  C   LIG    1       23.208 -20.509   3.223  0.00  0.00    +0.241 C 
ENDBRANCH   5  17
TORSDOF 1
ENDMDL
