MODEL 1
REMARK VINA RESULT:      -5.4      0.000      0.000
REMARK  Name = *****
REMARK                            x       y       z     vdW  Elec       q    Type
REMARK                         _______ _______ _______ _____ _____    ______ ____
ROOT
ATOM      1  C   LIG    1       27.426 -31.859   9.039  0.00  0.00    +0.011 C 
ATOM      2  C   LIG    1       26.229 -31.058   8.513  0.00  0.00    +0.026 C 
ATOM      3  C   LIG    1       24.836 -31.710   8.756  0.00  0.00    +0.134 C 
ATOM      4  C   LIG    1       24.215 -30.960  10.020  0.00  0.00    +0.009 C 
ATOM      5  C   LIG    1       22.889 -30.231   9.658  0.00  0.00    +0.015 C 
ATOM      6  C   LIG    1       25.245 -29.836  10.396  0.00  0.00    +0.002 C 
ATOM      7  C   LIG    1       26.125 -30.013  11.668  0.00  0.00    +0.002 C 
ATOM      8  C   LIG    1       25.452 -30.799  12.821  0.00  0.00    +0.035 C 
ATOM      9  C   LIG    1       24.944 -32.121  12.217  0.00  0.00    +0.120 C 
ATOM     10  C   LIG    1       24.501 -29.911  13.752  0.00  0.00    +0.016 C 
ATOM     11  C   LIG    1       25.186 -29.740  15.136  0.00  0.00    +0.020 C 
ATOM     12  C   LIG    1       24.312 -28.508  13.168  0.00  0.00    -0.023 C 
ATOM     13  C   LIG    1       23.107 -27.943  12.962  0.00  0.00    +0.053 C 
ATOM     14  C   LIG    1       21.851 -28.641  13.290  0.00  0.00    +0.179 C 
ATOM     15  O   LIG    1       20.755 -28.127  13.054  0.00  0.00    -0.288 OA
ATOM     16  C   LIG    1       21.957 -29.978  13.882  0.00  0.00    +0.047 C 
ATOM     17  C   LIG    1       25.558 -27.763  12.753  0.00  0.00    +0.193 C 
ATOM     18  F   LIG    1       26.065 -27.069  13.811  0.00  0.00    -0.241 F 
ATOM     19  C   LIG    1       23.158 -30.546  14.089  0.00  0.00    -0.012 C 
ATOM     20  C   LIG    1       26.655 -28.672  12.207  0.00  0.00    +0.045 C 
ATOM     21  C   LIG    1       23.847 -31.915  11.185  0.00  0.00    +0.042 C 
ATOM     22  C   LIG    1       26.111 -29.670   9.138  0.00  0.00    +0.011 C 
ENDROOT
BRANCH   3  23
ATOM     23  C   LIG    1       23.970 -31.579   7.459  0.00  0.00    +0.190 C 
ATOM     24  O   LIG    1       23.030 -32.343   7.213  0.00  0.00    -0.292 OA
BRANCH  23  25
ATOM     25  C   LIG    1       24.360 -30.504   6.438  0.00  0.00    +0.233 C 
BRANCH  25  26
ATOM     26  O   LIG    1       23.232 -30.005   5.733  0.00  0.00    -0.387 OA
ATOM     27  H   LIG    1       22.834 -30.767   5.267  0.00  0.00    +0.210 HD
ENDBRANCH  25  26
ENDBRANCH  23  25
ENDBRANCH   3  23
BRANCH   3  28
ATOM     28  O   LIG    1       25.020 -33.100   9.025  0.00  0.00    -0.380 OA
ATOM     29  H   LIG    1       25.975 -33.295   8.984  0.00  0.00    +0.211 HD
ENDBRANCH   3  28
BRANCH   9  30
ATOM     30  O   LIG    1       24.513 -33.010  13.242  0.00  0.00    -0.391 OA
ATOM     31  H   LIG    1       23.855 -33.609  12.846  0.00  0.00    +0.210 HD
ENDBRANCH   9  30
TORSDOF 5
ENDMDL
MODEL 2
REMARK VINA RESULT:      -5.2      1.971      3.038
REMARK  Name = *****
REMARK                            x       y       z     vdW  Elec       q    Type
REMARK                         _______ _______ _______ _____ _____    ______ ____
ROOT
ATOM      1  C   LIG    1       23.639 -33.809   9.508  0.00  0.00    +0.011 C 
ATOM      2  C   LIG    1       24.777 -32.883   9.063  0.00  0.00    +0.026 C 
ATOM      3  C   LIG    1       24.341 -31.446   8.651  0.00  0.00    +0.134 C 
ATOM      4  C   LIG    1       24.668 -30.513   9.903  0.00  0.00    +0.009 C 
ATOM      5  C   LIG    1       25.704 -29.410   9.539  0.00  0.00    +0.015 C 
ATOM      6  C   LIG    1       25.371 -31.443  10.955  0.00  0.00    +0.002 C 
ATOM      7  C   LIG    1       24.582 -31.875  12.225  0.00  0.00    +0.002 C 
ATOM      8  C   LIG    1       23.560 -30.833  12.743  0.00  0.00    +0.035 C 
ATOM      9  C   LIG    1       22.667 -30.457  11.545  0.00  0.00    +0.120 C 
ATOM     10  C   LIG    1       24.194 -29.698  13.673  0.00  0.00    +0.016 C 
ATOM     11  C   LIG    1       23.716 -29.932  15.133  0.00  0.00    +0.020 C 
ATOM     12  C   LIG    1       25.724 -29.783  13.683  0.00  0.00    -0.023 C 
ATOM     13  C   LIG    1       26.530 -28.737  13.419  0.00  0.00    +0.053 C 
ATOM     14  C   LIG    1       25.996 -27.401  13.099  0.00  0.00    +0.179 C 
ATOM     15  O   LIG    1       26.747 -26.465  12.817  0.00  0.00    -0.288 OA
ATOM     16  C   LIG    1       24.539 -27.238  13.102  0.00  0.00    +0.047 C 
ATOM     17  C   LIG    1       26.334 -31.139  13.944  0.00  0.00    +0.193 C 
ATOM     18  F   LIG    1       26.485 -31.337  15.284  0.00  0.00    -0.241 F 
ATOM     19  C   LIG    1       23.731 -28.280  13.364  0.00  0.00    -0.012 C 
ATOM     20  C   LIG    1       25.511 -32.294  13.379  0.00  0.00    +0.045 C 
ATOM     21  C   LIG    1       23.432 -29.746  10.441  0.00  0.00    +0.042 C 
ATOM     22  C   LIG    1       25.834 -32.663  10.144  0.00  0.00    +0.011 C 
ENDROOT
BRANCH   3  23
ATOM     23  C   LIG    1       25.095 -31.032   7.343  0.00  0.00    +0.190 C 
ATOM     24  O   LIG    1       26.187 -31.520   7.028  0.00  0.00    -0.292 OA
BRANCH  23  25
ATOM     25  C   LIG    1       24.476 -29.934   6.472  0.00  0.00    +0.233 C 
BRANCH  25  26
ATOM     26  O   LIG    1       23.362 -30.408   5.729  0.00  0.00    -0.387 OA
ATOM     27  H   LIG    1       23.475 -30.078   4.815  0.00  0.00    +0.210 HD
ENDBRANCH  25  26
ENDBRANCH  23  25
ENDBRANCH   3  23
BRANCH   3  28
ATOM     28  O   LIG    1       22.942 -31.453   8.370  0.00  0.00    -0.380 OA
ATOM     29  H   LIG    1       22.713 -30.607   7.941  0.00  0.00    +0.211 HD
ENDBRANCH   3  28
BRANCH   9  30
ATOM     30  O   LIG    1       21.556 -29.678  11.972  0.00  0.00    -0.391 OA
ATOM     31  H   LIG    1       21.844 -28.748  11.985  0.00  0.00    +0.210 HD
ENDBRANCH   9  30
TORSDOF 5
ENDMDL
MODEL 3
REMARK VINA RESULT:      -4.8      2.864      6.164
REMARK  Name = *****
REMARK                            x       y       z     vdW  Elec       q    Type
REMARK                         _______ _______ _______ _____ _____    ______ ____
ROOT
ATOM      1  C   LIG    1       23.053 -27.044  15.500  0.00  0.00    +0.011 C 
ATOM      2  C   LIG    1       23.842 -26.543  14.285  0.00  0.00    +0.026 C 
ATOM      3  C   LIG    1       25.285 -27.111  14.150  0.00  0.00    +0.134 C 
ATOM      4  C   LIG    1       25.202 -28.271  13.059  0.00  0.00    +0.009 C 
ATOM      5  C   LIG    1       26.097 -27.962  11.825  0.00  0.00    +0.015 C 
ATOM      6  C   LIG    1       23.720 -28.259  12.538  0.00  0.00    +0.002 C 
ATOM      7  C   LIG    1       22.757 -29.401  12.977  0.00  0.00    +0.002 C 
ATOM      8  C   LIG    1       23.437 -30.774  13.206  0.00  0.00    +0.035 C 
ATOM      9  C   LIG    1       24.608 -30.530  14.176  0.00  0.00    +0.120 C 
ATOM     10  C   LIG    1       23.649 -31.631  11.872  0.00  0.00    +0.016 C 
ATOM     11  C   LIG    1       22.672 -32.839  11.901  0.00  0.00    +0.020 C 
ATOM     12  C   LIG    1       23.308 -30.807  10.627  0.00  0.00    -0.023 C 
ATOM     13  C   LIG    1       24.140 -30.665   9.577  0.00  0.00    +0.053 C 
ATOM     14  C   LIG    1       25.466 -31.304   9.540  0.00  0.00    +0.179 C 
ATOM     15  O   LIG    1       26.233 -31.128   8.590  0.00  0.00    -0.288 OA
ATOM     16  C   LIG    1       25.848 -32.135  10.686  0.00  0.00    +0.047 C 
ATOM     17  C   LIG    1       21.987 -30.076  10.628  0.00  0.00    +0.193 C 
ATOM     18  F   LIG    1       21.000 -30.887  10.154  0.00  0.00    -0.241 F 
ATOM     19  C   LIG    1       25.021 -32.279  11.736  0.00  0.00    -0.012 C 
ATOM     20  C   LIG    1       21.573 -29.574  12.009  0.00  0.00    +0.045 C 
ATOM     21  C   LIG    1       25.692 -29.647  13.581  0.00  0.00    +0.042 C 
ATOM     22  C   LIG    1       23.177 -26.883  12.952  0.00  0.00    +0.011 C 
ENDROOT
BRANCH   3  23
ATOM     23  C   LIG    1       26.263 -25.951  13.762  0.00  0.00    +0.190 C 
ATOM     24  O   LIG    1       25.974 -25.102  12.911  0.00  0.00    -0.292 OA
BRANCH  23  25
ATOM     25  C   LIG    1       27.646 -25.924  14.420  0.00  0.00    +0.233 C 
BRANCH  25  26
ATOM     26  O   LIG    1       28.267 -27.202  14.409  0.00  0.00    -0.387 OA
ATOM     27  H   LIG    1       27.719 -27.783  14.973  0.00  0.00    +0.210 HD
ENDBRANCH  25  26
ENDBRANCH  23  25
ENDBRANCH   3  23
BRANCH   3  28
ATOM     28  O   LIG    1       25.696 -27.627  15.417  0.00  0.00    -0.380 OA
ATOM     29  H   LIG    1       26.229 -26.945  15.866  0.00  0.00    +0.211 HD
ENDBRANCH   3  28
BRANCH   9  30
ATOM     30  O   LIG    1       25.154 -31.766  14.625  0.00  0.00    -0.391 OA
ATOM     31  H   LIG    1       25.728 -31.567  15.386  0.00  0.00    +0.210 HD
ENDBRANCH   9  30
TORSDOF 5
ENDMDL
MODEL 4
REMARK VINA RESULT:      -4.8      1.646      2.277
REMARK  Name = *****
REMARK                            x       y       z     vdW  Elec       q    Type
REMARK                         _______ _______ _______ _____ _____    ______ ____
ROOT
ATOM      1  C   LIG    1       28.017 -29.707  10.687  0.00  0.00    +0.011 C 
ATOM      2  C   LIG    1       26.892 -29.639   9.648  0.00  0.00    +0.026 C 
ATOM      3  C   LIG    1       26.131 -30.975   9.405  0.00  0.00    +0.134 C 
ATOM      4  C   LIG    1       24.771 -30.863  10.231  0.00  0.00    +0.009 C 
ATOM      5  C   LIG    1       23.528 -30.946   9.299  0.00  0.00    +0.015 C 
ATOM      6  C   LIG    1       24.763 -29.416  10.843  0.00  0.00    +0.002 C 
ATOM      7  C   LIG    1       25.021 -29.241  12.368  0.00  0.00    +0.002 C 
ATOM      8  C   LIG    1       24.516 -30.408  13.252  0.00  0.00    +0.035 C 
ATOM      9  C   LIG    1       25.106 -31.700  12.658  0.00  0.00    +0.120 C 
ATOM     10  C   LIG    1       22.964 -30.321  13.629  0.00  0.00    +0.016 C 
ATOM     11  C   LIG    1       22.842 -29.980  15.140  0.00  0.00    +0.020 C 
ATOM     12  C   LIG    1       22.271 -29.193  12.857  0.00  0.00    -0.023 C 
ATOM     13  C   LIG    1       21.149 -29.366  12.134  0.00  0.00    +0.053 C 
ATOM     14  C   LIG    1       20.482 -30.675  12.027  0.00  0.00    +0.179 C 
ATOM     15  O   LIG    1       19.480 -30.826  11.325  0.00  0.00    -0.288 OA
ATOM     16  C   LIG    1       21.073 -31.795  12.767  0.00  0.00    +0.047 C 
ATOM     17  C   LIG    1       22.938 -27.838  12.875  0.00  0.00    +0.193 C 
ATOM     18  F   LIG    1       22.521 -27.123  13.958  0.00  0.00    -0.241 F 
ATOM     19  C   LIG    1       22.194 -31.628  13.489  0.00  0.00    -0.012 C 
ATOM     20  C   LIG    1       24.462 -27.913  12.909  0.00  0.00    +0.045 C 
ATOM     21  C   LIG    1       24.580 -32.002  11.265  0.00  0.00    +0.042 C 
ATOM     22  C   LIG    1       25.795 -28.640  10.010  0.00  0.00    +0.011 C 
ENDROOT
BRANCH   3  23
ATOM     23  C   LIG    1       25.919 -31.177   7.867  0.00  0.00    +0.190 C 
ATOM     24  O   LIG    1       25.524 -30.267   7.130  0.00  0.00    -0.292 OA
BRANCH  23  25
ATOM     25  C   LIG    1       26.149 -32.577   7.286  0.00  0.00    +0.233 C 
BRANCH  25  26
ATOM     26  O   LIG    1       25.361 -33.562   7.940  0.00  0.00    -0.387 OA
ATOM     27  H   LIG    1       25.378 -33.345   8.893  0.00  0.00    +0.210 HD
ENDBRANCH  25  26
ENDBRANCH  23  25
ENDBRANCH   3  23
BRANCH   3  28
ATOM     28  O   LIG    1       26.934 -32.055   9.885  0.00  0.00    -0.380 OA
ATOM     29  H   LIG    1       27.871 -31.795   9.810  0.00  0.00    +0.211 HD
ENDBRANCH   3  28
BRANCH   9  30
ATOM     30  O   LIG    1       24.885 -32.802  13.531  0.00  0.00    -0.391 OA
ATOM     31  H   LIG    1       25.354 -33.568  13.153  0.00  0.00    +0.210 HD
ENDBRANCH   9  30
TORSDOF 5
ENDMDL
MODEL 5
REMARK VINA RESULT:      -4.8      2.442      3.668
REMARK  Name = *****
REMARK                            x       y       z     vdW  Elec       q    Type
REMARK                         _______ _______ _______ _____ _____    ______ ____
ROOT
ATOM      1  C   LIG    1       23.305 -33.004   9.930  0.00  0.00    +0.011 C 
ATOM      2  C   LIG    1       22.403 -31.768  10.022  0.00  0.00    +0.026 C 
ATOM      3  C   LIG    1       21.668 -31.583  11.382  0.00  0.00    +0.134 C 
ATOM      4  C   LIG    1       22.501 -30.486  12.187  0.00  0.00    +0.009 C 
ATOM      5  C   LIG    1       21.641 -29.226  12.495  0.00  0.00    +0.015 C 
ATOM      6  C   LIG    1       23.637 -30.014  11.210  0.00  0.00    +0.002 C 
ATOM      7  C   LIG    1       25.100 -30.474  11.476  0.00  0.00    +0.002 C 
ATOM      8  C   LIG    1       25.459 -30.671  12.970  0.00  0.00    +0.035 C 
ATOM      9  C   LIG    1       24.388 -31.605  13.562  0.00  0.00    +0.120 C 
ATOM     10  C   LIG    1       25.876 -29.325  13.727  0.00  0.00    +0.016 C 
ATOM     11  C   LIG    1       27.400 -29.377  14.023  0.00  0.00    +0.020 C 
ATOM     12  C   LIG    1       25.631 -28.097  12.844  0.00  0.00    -0.023 C 
ATOM     13  C   LIG    1       24.924 -27.022  13.243  0.00  0.00    +0.053 C 
ATOM     14  C   LIG    1       24.322 -26.938  14.585  0.00  0.00    +0.179 C 
ATOM     15  O   LIG    1       23.641 -25.965  14.919  0.00  0.00    -0.288 OA
ATOM     16  C   LIG    1       24.542 -28.066  15.496  0.00  0.00    +0.047 C 
ATOM     17  C   LIG    1       26.169 -28.146  11.435  0.00  0.00    +0.193 C 
ATOM     18  F   LIG    1       27.456 -27.698  11.407  0.00  0.00    -0.241 F 
ATOM     19  C   LIG    1       25.246 -29.140  15.102  0.00  0.00    -0.012 C 
ATOM     20  C   LIG    1       26.136 -29.543  10.821  0.00  0.00    +0.045 C 
ATOM     21  C   LIG    1       23.002 -30.982  13.568  0.00  0.00    +0.042 C 
ATOM     22  C   LIG    1       23.157 -30.455   9.819  0.00  0.00    +0.011 C 
ENDROOT
BRANCH   3  23
ATOM     23  C   LIG    1       20.181 -31.172  11.114  0.00  0.00    +0.190 C 
ATOM     24  O   LIG    1       19.847 -30.514  10.121  0.00  0.00    -0.292 OA
BRANCH  23  25
ATOM     25  C   LIG    1       19.129 -31.547  12.163  0.00  0.00    +0.233 C 
BRANCH  25  26
ATOM     26  O   LIG    1       18.195 -30.500  12.379  0.00  0.00    -0.387 OA
ATOM     27  H   LIG    1       17.596 -30.496  11.606  0.00  0.00    +0.210 HD
ENDBRANCH  25  26
ENDBRANCH  23  25
ENDBRANCH   3  23
BRANCH   3  28
ATOM     28  O   LIG    1       21.662 -32.831  12.075  0.00  0.00    -0.380 OA
ATOM     29  H   LIG    1       21.941 -32.670  12.996  0.00  0.00    +0.211 HD
ENDBRANCH   3  28
BRANCH   9  30
ATOM     30  O   LIG    1       24.757 -32.027  14.871  0.00  0.00    -0.391 OA
ATOM     31  H   LIG    1       25.328 -31.333  15.247  0.00  0.00    +0.210 HD
ENDBRANCH   9  30
TORSDOF 5
ENDMDL
MODEL 6
REMARK VINA RESULT:      -4.8      2.741      4.198
REMARK  Name = *****
REMARK                            x       y       z     vdW  Elec       q    Type
REMARK                         _______ _______ _______ _____ _____    ______ ____
ROOT
ATOM      1  C   LIG    1       27.016 -28.103  14.590  0.00  0.00    +0.011 C 
ATOM      2  C   LIG    1       26.661 -28.075  13.099  0.00  0.00    +0.026 C 
ATOM      3  C   LIG    1       26.498 -29.470  12.429  0.00  0.00    +0.134 C 
ATOM      4  C   LIG    1       24.928 -29.736  12.342  0.00  0.00    +0.009 C 
ATOM      5  C   LIG    1       24.454 -29.893  10.868  0.00  0.00    +0.015 C 
ATOM      6  C   LIG    1       24.245 -28.431  12.885  0.00  0.00    +0.002 C 
ATOM      7  C   LIG    1       23.581 -28.456  14.293  0.00  0.00    +0.002 C 
ATOM      8  C   LIG    1       22.971 -29.821  14.700  0.00  0.00    +0.035 C 
ATOM      9  C   LIG    1       24.077 -30.875  14.506  0.00  0.00    +0.120 C 
ATOM     10  C   LIG    1       21.496 -30.074  14.135  0.00  0.00    +0.016 C 
ATOM     11  C   LIG    1       20.494 -30.006  15.321  0.00  0.00    +0.020 C 
ATOM     12  C   LIG    1       21.091 -28.981  13.141  0.00  0.00    -0.023 C 
ATOM     13  C   LIG    1       20.622 -29.236  11.905  0.00  0.00    +0.053 C 
ATOM     14  C   LIG    1       20.455 -30.610  11.400  0.00  0.00    +0.179 C 
ATOM     15  O   LIG    1       20.066 -30.825  10.250  0.00  0.00    -0.288 OA
ATOM     16  C   LIG    1       20.795 -31.709  12.310  0.00  0.00    +0.047 C 
ATOM     17  C   LIG    1       21.295 -27.549  13.574  0.00  0.00    +0.193 C 
ATOM     18  F   LIG    1       20.200 -27.102  14.251  0.00  0.00    -0.241 F 
ATOM     19  C   LIG    1       21.264 -31.459  13.545  0.00  0.00    -0.012 C 
ATOM     20  C   LIG    1       22.521 -27.353  14.462  0.00  0.00    +0.045 C 
ATOM     21  C   LIG    1       24.483 -31.041  13.051  0.00  0.00    +0.042 C 
ATOM     22  C   LIG    1       25.343 -27.359  12.806  0.00  0.00    +0.011 C 
ENDROOT
BRANCH   3  23
ATOM     23  C   LIG    1       27.213 -29.460  11.036  0.00  0.00    +0.190 C 
ATOM     24  O   LIG    1       27.957 -30.377  10.669  0.00  0.00    -0.292 OA
BRANCH  23  25
ATOM     25  C   LIG    1       27.025 -28.233  10.138  0.00  0.00    +0.233 C 
BRANCH  25  26
ATOM     26  O   LIG    1       27.025 -28.575   8.759  0.00  0.00    -0.387 OA
ATOM     27  H   LIG    1       26.123 -28.398   8.428  0.00  0.00    +0.210 HD
ENDBRANCH  25  26
ENDBRANCH  23  25
ENDBRANCH   3  23
BRANCH   3  28
ATOM     28  O   LIG    1       27.139 -30.450  13.246  0.00  0.00    -0.380 OA
ATOM     29  H   LIG    1       28.023 -30.114  13.489  0.00  0.00    +0.211 HD
ENDBRANCH   3  28
BRANCH   9  30
ATOM     30  O   LIG    1       23.686 -32.123  15.067  0.00  0.00    -0.391 OA
ATOM     31  H   LIG    1       22.795 -32.325  14.728  0.00  0.00    +0.210 HD
ENDBRANCH   9  30
TORSDOF 5
ENDMDL
MODEL 7
REMARK VINA RESULT:      -4.7      1.589      2.005
REMARK  Name = *****
REMARK                            x       y       z     vdW  Elec       q    Type
REMARK                         _______ _______ _______ _____ _____    ______ ____
ROOT
ATOM      1  C   LIG    1       27.765 -30.058  10.630  0.00  0.00    +0.011 C 
ATOM      2  C   LIG    1       26.571 -30.075   9.668  0.00  0.00    +0.026 C 
ATOM      3  C   LIG    1       25.764 -31.405   9.635  0.00  0.00    +0.134 C 
ATOM      4  C   LIG    1       24.468 -31.155  10.532  0.00  0.00    +0.009 C 
ATOM      5  C   LIG    1       23.160 -31.306   9.702  0.00  0.00    +0.015 C 
ATOM      6  C   LIG    1       24.538 -29.649  10.969  0.00  0.00    +0.002 C 
ATOM      7  C   LIG    1       24.908 -29.308  12.443  0.00  0.00    +0.002 C 
ATOM      8  C   LIG    1       24.439 -30.349  13.489  0.00  0.00    +0.035 C 
ATOM      9  C   LIG    1       24.955 -31.719  13.012  0.00  0.00    +0.120 C 
ATOM     10  C   LIG    1       22.920 -30.169  13.958  0.00  0.00    +0.016 C 
ATOM     11  C   LIG    1       22.913 -29.654  15.424  0.00  0.00    +0.020 C 
ATOM     12  C   LIG    1       22.202 -29.116  13.108  0.00  0.00    -0.023 C 
ATOM     13  C   LIG    1       21.027 -29.335  12.487  0.00  0.00    +0.053 C 
ATOM     14  C   LIG    1       20.323 -30.626  12.580  0.00  0.00    +0.179 C 
ATOM     15  O   LIG    1       19.270 -30.825  11.970  0.00  0.00    -0.288 OA
ATOM     16  C   LIG    1       20.938 -31.672  13.404  0.00  0.00    +0.047 C 
ATOM     17  C   LIG    1       22.900 -27.790  12.922  0.00  0.00    +0.193 C 
ATOM     18  F   LIG    1       22.578 -26.943  13.940  0.00  0.00    -0.241 F 
ATOM     19  C   LIG    1       22.111 -31.458  14.024  0.00  0.00    -0.012 C 
ATOM     20  C   LIG    1       24.420 -27.909  12.861  0.00  0.00    +0.045 C 
ATOM     21  C   LIG    1       24.324 -32.162  11.702  0.00  0.00    +0.042 C 
ATOM     22  C   LIG    1       25.527 -29.006   9.984  0.00  0.00    +0.011 C 
ENDROOT
BRANCH   3  23
ATOM     23  C   LIG    1       25.438 -31.776   8.149  0.00  0.00    +0.190 C 
ATOM     24  O   LIG    1       25.300 -32.947   7.776  0.00  0.00    -0.292 OA
BRANCH  23  25
ATOM     25  C   LIG    1       25.361 -30.640   7.123  0.00  0.00    +0.233 C 
BRANCH  25  26
ATOM     26  O   LIG    1       26.275 -30.826   6.052  0.00  0.00    -0.387 OA
ATOM     27  H   LIG    1       25.989 -30.228   5.334  0.00  0.00    +0.210 HD
ENDBRANCH  25  26
ENDBRANCH  23  25
ENDBRANCH   3  23
BRANCH   3  28
ATOM     28  O   LIG    1       26.572 -32.447  10.182  0.00  0.00    -0.380 OA
ATOM     29  H   LIG    1       25.987 -33.074  10.648  0.00  0.00    +0.211 HD
ENDBRANCH   3  28
BRANCH   9  30
ATOM     30  O   LIG    1       24.770 -32.705  14.021  0.00  0.00    -0.391 OA
ATOM     31  H   LIG    1       25.218 -32.384  14.824  0.00  0.00    +0.210 HD
ENDBRANCH   9  30
TORSDOF 5
ENDMDL
MODEL 8
REMARK VINA RESULT:      -4.7      3.239      5.316
REMARK  Name = *****
REMARK                            x       y       z     vdW  Elec       q    Type
REMARK                         _______ _______ _______ _____ _____    ______ ____
ROOT
ATOM      1  C   LIG    1       22.251 -32.029  12.568  0.00  0.00    +0.011 C 
ATOM      2  C   LIG    1       21.856 -30.548  12.614  0.00  0.00    +0.026 C 
ATOM      3  C   LIG    1       22.134 -29.829  13.967  0.00  0.00    +0.134 C 
ATOM      4  C   LIG    1       23.483 -29.004  13.757  0.00  0.00    +0.009 C 
ATOM      5  C   LIG    1       23.254 -27.476  13.941  0.00  0.00    +0.015 C 
ATOM      6  C   LIG    1       23.878 -29.210  12.251  0.00  0.00    +0.002 C 
ATOM      7  C   LIG    1       25.079 -30.138  11.906  0.00  0.00    +0.002 C 
ATOM      8  C   LIG    1       26.210 -30.160  12.964  0.00  0.00    +0.035 C 
ATOM      9  C   LIG    1       25.543 -30.470  14.317  0.00  0.00    +0.120 C 
ATOM     10  C   LIG    1       27.257 -28.959  12.829  0.00  0.00    +0.016 C 
ATOM     11  C   LIG    1       28.607 -29.536  12.320  0.00  0.00    +0.020 C 
ATOM     12  C   LIG    1       26.789 -27.932  11.793  0.00  0.00    -0.023 C 
ATOM     13  C   LIG    1       26.696 -26.612  12.043  0.00  0.00    +0.053 C 
ATOM     14  C   LIG    1       27.046 -26.038  13.354  0.00  0.00    +0.179 C 
ATOM     15  O   LIG    1       26.914 -24.833  13.579  0.00  0.00    -0.288 OA
ATOM     16  C   LIG    1       27.533 -26.960  14.385  0.00  0.00    +0.047 C 
ATOM     17  C   LIG    1       26.356 -28.462  10.448  0.00  0.00    +0.193 C 
ATOM     18  F   LIG    1       27.429 -28.561   9.614  0.00  0.00    -0.241 F 
ATOM     19  C   LIG    1       27.627 -28.278  14.141  0.00  0.00    -0.012 C 
ATOM     20  C   LIG    1       25.681 -29.829  10.523  0.00  0.00    +0.045 C 
ATOM     21  C   LIG    1       24.596 -29.372  14.772  0.00  0.00    +0.042 C 
ATOM     22  C   LIG    1       22.586 -29.696  11.577  0.00  0.00    +0.011 C 
ENDROOT
BRANCH   3  23
ATOM     23  C   LIG    1       20.903 -28.937  14.341  0.00  0.00    +0.190 C 
ATOM     24  O   LIG    1       20.683 -28.569  15.500  0.00  0.00    -0.292 OA
BRANCH  23  25
ATOM     25  C   LIG    1       19.911 -28.575  13.230  0.00  0.00    +0.233 C 
BRANCH  25  26
ATOM     26  O   LIG    1       20.295 -27.397  12.535  0.00  0.00    -0.387 OA
ATOM     27  H   LIG    1       19.767 -27.373  11.713  0.00  0.00    +0.210 HD
ENDBRANCH  25  26
ENDBRANCH  23  25
ENDBRANCH   3  23
BRANCH   3  28
ATOM     28  O   LIG    1       22.290 -30.815  14.988  0.00  0.00    -0.380 OA
ATOM     29  H   LIG    1       23.182 -30.717  15.373  0.00  0.00    +0.211 HD
ENDBRANCH   3  28
BRANCH   9  30
ATOM     30  O   LIG    1       26.525 -30.735  15.312  0.00  0.00    -0.391 OA
ATOM     31  H   LIG    1       27.274 -31.173  14.869  0.00  0.00    +0.210 HD
ENDBRANCH   9  30
TORSDOF 5
ENDMDL
MODEL 9
REMARK VINA RESULT:      -4.6      2.242      3.702
REMARK  Name = *****
REMARK                            x       y       z     vdW  Elec       q    Type
REMARK                         _______ _______ _______ _____ _____    ______ ____
ROOT
ATOM      1  C   LIG    1       24.226 -29.304   7.709  0.00  0.00    +0.011 C 
ATOM      2  C   LIG    1       24.200 -30.764   8.174  0.00  0.00    +0.026 C 
ATOM      3  C   LIG    1       25.582 -31.358   8.576  0.00  0.00    +0.134 C 
ATOM      4  C   LIG    1       25.632 -31.316  10.169  0.00  0.00    +0.009 C 
ATOM      5  C   LIG    1       25.772 -32.743  10.775  0.00  0.00    +0.015 C 
ATOM      6  C   LIG    1       24.227 -30.782  10.625  0.00  0.00    +0.002 C 
ATOM      7  C   LIG    1       24.113 -29.330  11.173  0.00  0.00    +0.002 C 
ATOM      8  C   LIG    1       25.366 -28.818  11.927  0.00  0.00    +0.035 C 
ATOM      9  C   LIG    1       26.568 -29.046  10.992  0.00  0.00    +0.120 C 
ATOM     10  C   LIG    1       25.433 -29.260  13.462  0.00  0.00    +0.016 C 
ATOM     11  C   LIG    1       25.187 -28.008  14.348  0.00  0.00    +0.020 C 
ATOM     12  C   LIG    1       24.329 -30.269  13.794  0.00  0.00    -0.023 C 
ATOM     13  C   LIG    1       24.559 -31.455  14.390  0.00  0.00    +0.053 C 
ATOM     14  C   LIG    1       25.913 -31.884  14.780  0.00  0.00    +0.179 C 
ATOM     15  O   LIG    1       26.111 -32.992  15.284  0.00  0.00    -0.288 OA
ATOM     16  C   LIG    1       27.016 -30.954  14.520  0.00  0.00    +0.047 C 
ATOM     17  C   LIG    1       22.925 -29.917  13.365  0.00  0.00    +0.193 C 
ATOM     18  F   LIG    1       22.308 -29.181  14.333  0.00  0.00    -0.241 F 
ATOM     19  C   LIG    1       26.792 -29.770  13.925  0.00  0.00    -0.012 C 
ATOM     20  C   LIG    1       22.869 -29.132  12.058  0.00  0.00    +0.045 C 
ATOM     21  C   LIG    1       26.838 -30.518  10.729  0.00  0.00    +0.042 C 
ATOM     22  C   LIG    1       23.320 -30.990   9.402  0.00  0.00    +0.011 C 
ENDROOT
BRANCH   3  23
ATOM     23  C   LIG    1       25.718 -32.799   7.979  0.00  0.00    +0.190 C 
ATOM     24  O   LIG    1       24.742 -33.541   7.818  0.00  0.00    -0.292 OA
BRANCH  23  25
ATOM     25  C   LIG    1       27.124 -33.315   7.654  0.00  0.00    +0.233 C 
BRANCH  25  26
ATOM     26  O   LIG    1       27.651 -32.719   6.477  0.00  0.00    -0.387 OA
ATOM     27  H   LIG    1       28.623 -32.815   6.527  0.00  0.00    +0.210 HD
ENDBRANCH  25  26
ENDBRANCH  23  25
ENDBRANCH   3  23
BRANCH   3  28
ATOM     28  O   LIG    1       26.612 -30.548   8.009  0.00  0.00    -0.380 OA
ATOM     29  H   LIG    1       27.036 -31.053   7.289  0.00  0.00    +0.211 HD
ENDBRANCH   3  28
BRANCH   9  30
ATOM     30  O   LIG    1       27.730 -28.403  11.501  0.00  0.00    -0.391 OA
ATOM     31  H   LIG    1       27.883 -28.751  12.398  0.00  0.00    +0.210 HD
ENDBRANCH   9  30
TORSDOF 5
ENDMDL
