MODEL 1
REMARK VINA RESULT:     -10.1      0.000      0.000
REMARK  Name = *****
REMARK                            x       y       z     vdW  Elec       q    Type
REMARK                         _______ _______ _______ _____ _____    ______ ____
ROOT
ATOM      1  C   LIG    1       24.874 -21.238   6.811  0.00  0.00    +0.148 C 
ENDROOT
BRANCH   1   2
ATOM      2  C   LIG    1       26.283 -20.635   6.818  0.00  0.00    -0.020 A 
ATOM      3  C   LIG    1       26.946 -20.247   5.637  0.00  0.00    +0.006 A 
ATOM      4  C   LIG    1       28.244 -19.733   5.675  0.00  0.00    +0.000 A 
ATOM      5  C   LIG    1       28.900 -19.578   6.891  0.00  0.00    +0.000 A 
ATOM      6  C   LIG    1       28.252 -19.928   8.076  0.00  0.00    +0.000 A 
ATOM      7  C   LIG    1       26.957 -20.449   8.041  0.00  0.00    +0.006 A 
ENDBRANCH   1   2
BRANCH   1   8
ATOM      8  C   LIG    1       24.821 -22.775   6.788  0.00  0.00    -0.020 A 
ATOM      9  C   LIG    1       26.013 -23.515   6.880  0.00  0.00    +0.006 A 
ATOM     10  C   LIG    1       26.012 -24.915   6.756  0.00  0.00    +0.009 A 
ATOM     11  C   LIG    1       24.824 -25.637   6.546  0.00  0.00    -0.018 A 
ATOM     12  C   LIG    1       23.636 -24.892   6.520  0.00  0.00    +0.009 A 
ATOM     13  C   LIG    1       23.630 -23.498   6.642  0.00  0.00    +0.006 A 
BRANCH  11  14
ATOM     14  C   LIG    1       24.808 -27.110   6.352  0.00  0.00    -0.018 A 
ATOM     15  C   LIG    1       25.178 -27.989   7.392  0.00  0.00    +0.008 A 
ATOM     16  C   LIG    1       25.187 -29.377   7.218  0.00  0.00    +0.001 A 
ATOM     17  C   LIG    1       24.811 -29.926   5.997  0.00  0.00    +0.000 A 
ATOM     18  C   LIG    1       24.429 -29.087   4.956  0.00  0.00    +0.001 A 
ATOM     19  C   LIG    1       24.431 -27.697   5.131  0.00  0.00    +0.008 A 
ENDBRANCH  11  14
ENDBRANCH   1   8
BRANCH   1  23
ATOM     20  C   LIG    1       22.556 -19.456   4.660  0.00  0.00    +0.130 A 
ATOM     21  N   LIG    1       23.485 -19.876   3.744  0.00  0.00    -0.244 NA
ATOM     22  C   LIG    1       24.359 -20.576   4.432  0.00  0.00    +0.200 A 
ATOM     23  N   LIG    1       24.035 -20.622   5.765  0.00  0.00    -0.325 N 
ATOM     24  C   LIG    1       22.867 -19.919   5.917  0.00  0.00    +0.108 A 
ENDBRANCH   1  23
TORSDOF 4
ENDMDL
MODEL 2
REMARK VINA RESULT:     -10.0      2.477      7.670
REMARK  Name = *****
REMARK                            x       y       z     vdW  Elec       q    Type
REMARK                         _______ _______ _______ _____ _____    ______ ____
ROOT
ATOM      1  C   LIG    1       25.007 -21.413   6.651  0.00  0.00    +0.148 C 
ENDROOT
BRANCH   1   2
ATOM      2  C   LIG    1       24.254 -20.602   5.590  0.00  0.00    -0.020 A 
ATOM      3  C   LIG    1       24.841 -20.233   4.364  0.00  0.00    +0.006 A 
ATOM      4  C   LIG    1       24.140 -19.462   3.433  0.00  0.00    +0.000 A 
ATOM      5  C   LIG    1       22.835 -19.062   3.698  0.00  0.00    +0.000 A 
ATOM      6  C   LIG    1       22.223 -19.442   4.892  0.00  0.00    +0.000 A 
ATOM      7  C   LIG    1       22.924 -20.205   5.829  0.00  0.00    +0.006 A 
ENDBRANCH   1   2
BRANCH   1   8
ATOM      8  C   LIG    1       26.340 -20.804   7.116  0.00  0.00    -0.020 A 
ATOM      9  C   LIG    1       26.548 -20.540   8.481  0.00  0.00    +0.006 A 
ATOM     10  C   LIG    1       27.711 -19.887   8.927  0.00  0.00    +0.009 A 
ATOM     11  C   LIG    1       28.717 -19.479   8.036  0.00  0.00    -0.018 A 
ATOM     12  C   LIG    1       28.526 -19.805   6.685  0.00  0.00    +0.009 A 
ATOM     13  C   LIG    1       27.371 -20.455   6.233  0.00  0.00    +0.006 A 
BRANCH  11  14
ATOM     14  C   LIG    1       29.924 -18.735   8.480  0.00  0.00    -0.018 A 
ATOM     15  C   LIG    1       29.888 -17.887   9.607  0.00  0.00    +0.008 A 
ATOM     16  C   LIG    1       31.011 -17.164  10.025  0.00  0.00    +0.001 A 
ATOM     17  C   LIG    1       32.209 -17.282   9.330  0.00  0.00    +0.000 A 
ATOM     18  C   LIG    1       32.281 -18.119   8.222  0.00  0.00    +0.001 A 
ATOM     19  C   LIG    1       31.152 -18.833   7.801  0.00  0.00    +0.008 A 
ENDBRANCH  11  14
ENDBRANCH   1   8
BRANCH   1  23
ATOM     20  C   LIG    1       25.150 -24.719   5.158  0.00  0.00    +0.130 A 
ATOM     21  N   LIG    1       25.891 -24.918   6.293  0.00  0.00    -0.244 NA
ATOM     22  C   LIG    1       25.863 -23.770   6.932  0.00  0.00    +0.200 A 
ATOM     23  N   LIG    1       25.135 -22.828   6.249  0.00  0.00    -0.325 N 
ATOM     24  C   LIG    1       24.658 -23.436   5.116  0.00  0.00    +0.108 A 
ENDBRANCH   1  23
TORSDOF 4
ENDMDL
MODEL 3
REMARK VINA RESULT:      -9.9      1.472      3.688
REMARK  Name = *****
REMARK                            x       y       z     vdW  Elec       q    Type
REMARK                         _______ _______ _______ _____ _____    ______ ____
ROOT
ATOM      1  C   LIG    1       25.881 -21.612   5.621  0.00  0.00    +0.148 C 
ENDROOT
BRANCH   1   2
ATOM      2  C   LIG    1       24.693 -20.709   5.271  0.00  0.00    -0.020 A 
ATOM      3  C   LIG    1       23.507 -20.692   6.031  0.00  0.00    +0.006 A 
ATOM      4  C   LIG    1       22.428 -19.883   5.665  0.00  0.00    +0.000 A 
ATOM      5  C   LIG    1       22.518 -19.062   4.546  0.00  0.00    +0.000 A 
ATOM      6  C   LIG    1       23.694 -19.040   3.796  0.00  0.00    +0.000 A 
ATOM      7  C   LIG    1       24.771 -19.854   4.155  0.00  0.00    +0.006 A 
ENDBRANCH   1   2
BRANCH   1   8
ATOM      8  C   LIG    1       25.529 -23.088   5.870  0.00  0.00    -0.020 A 
ATOM      9  C   LIG    1       25.979 -23.725   7.040  0.00  0.00    +0.006 A 
ATOM     10  C   LIG    1       25.766 -25.099   7.249  0.00  0.00    +0.009 A 
ATOM     11  C   LIG    1       25.087 -25.892   6.309  0.00  0.00    -0.018 A 
ATOM     12  C   LIG    1       24.588 -25.231   5.177  0.00  0.00    +0.009 A 
ATOM     13  C   LIG    1       24.797 -23.864   4.962  0.00  0.00    +0.006 A 
BRANCH  11  14
ATOM     14  C   LIG    1       24.904 -27.357   6.483  0.00  0.00    -0.018 A 
ATOM     15  C   LIG    1       24.204 -28.125   5.528  0.00  0.00    +0.008 A 
ATOM     16  C   LIG    1       24.006 -29.501   5.688  0.00  0.00    +0.001 A 
ATOM     17  C   LIG    1       24.517 -30.150   6.806  0.00  0.00    +0.000 A 
ATOM     18  C   LIG    1       25.223 -29.423   7.759  0.00  0.00    +0.001 A 
ATOM     19  C   LIG    1       25.410 -28.044   7.600  0.00  0.00    +0.008 A 
ENDBRANCH  11  14
ENDBRANCH   1   8
BRANCH   1  23
ATOM     20  C   LIG    1       28.259 -20.070   7.888  0.00  0.00    +0.130 A 
ATOM     21  N   LIG    1       27.126 -20.057   8.658  0.00  0.00    -0.244 NA
ATOM     22  C   LIG    1       26.203 -20.641   7.927  0.00  0.00    +0.200 A 
ATOM     23  N   LIG    1       26.694 -21.028   6.706  0.00  0.00    -0.325 N 
ATOM     24  C   LIG    1       28.021 -20.681   6.680  0.00  0.00    +0.108 A 
ENDBRANCH   1  23
TORSDOF 4
ENDMDL
MODEL 4
REMARK VINA RESULT:      -9.6      2.373      7.295
REMARK  Name = *****
REMARK                            x       y       z     vdW  Elec       q    Type
REMARK                         _______ _______ _______ _____ _____    ______ ____
ROOT
ATOM      1  C   LIG    1       23.896 -21.731   6.726  0.00  0.00    +0.148 C 
ENDROOT
BRANCH   1   2
ATOM      2  C   LIG    1       22.964 -20.946   5.796  0.00  0.00    -0.020 A 
ATOM      3  C   LIG    1       21.905 -21.557   5.096  0.00  0.00    +0.006 A 
ATOM      4  C   LIG    1       21.096 -20.819   4.228  0.00  0.00    +0.000 A 
ATOM      5  C   LIG    1       21.313 -19.456   4.057  0.00  0.00    +0.000 A 
ATOM      6  C   LIG    1       22.336 -18.825   4.764  0.00  0.00    +0.000 A 
ATOM      7  C   LIG    1       23.153 -19.561   5.626  0.00  0.00    +0.006 A 
ENDBRANCH   1   2
BRANCH   1   8
ATOM      8  C   LIG    1       25.240 -21.048   7.033  0.00  0.00    -0.020 A 
ATOM      9  C   LIG    1       26.089 -20.673   5.977  0.00  0.00    +0.006 A 
ATOM     10  C   LIG    1       27.368 -20.144   6.223  0.00  0.00    +0.009 A 
ATOM     11  C   LIG    1       27.850 -19.956   7.529  0.00  0.00    -0.018 A 
ATOM     12  C   LIG    1       26.968 -20.274   8.573  0.00  0.00    +0.009 A 
ATOM     13  C   LIG    1       25.694 -20.802   8.335  0.00  0.00    +0.006 A 
BRANCH  11  14
ATOM     14  C   LIG    1       29.220 -19.455   7.812  0.00  0.00    -0.018 A 
ATOM     15  C   LIG    1       30.289 -19.711   6.926  0.00  0.00    +0.008 A 
ATOM     16  C   LIG    1       31.589 -19.263   7.188  0.00  0.00    +0.001 A 
ATOM     17  C   LIG    1       31.851 -18.533   8.342  0.00  0.00    +0.000 A 
ATOM     18  C   LIG    1       30.816 -18.254   9.228  0.00  0.00    +0.001 A 
ATOM     19  C   LIG    1       29.520 -18.713   8.967  0.00  0.00    +0.008 A 
ENDBRANCH  11  14
ENDBRANCH   1   8
BRANCH   1  23
ATOM     20  C   LIG    1       24.785 -24.990   5.398  0.00  0.00    +0.130 A 
ATOM     21  N   LIG    1       23.759 -25.328   6.241  0.00  0.00    -0.244 NA
ATOM     22  C   LIG    1       23.336 -24.191   6.747  0.00  0.00    +0.200 A 
ATOM     23  N   LIG    1       24.056 -23.125   6.268  0.00  0.00    -0.325 N 
ATOM     24  C   LIG    1       24.978 -23.629   5.386  0.00  0.00    +0.108 A 
ENDBRANCH   1  23
TORSDOF 4
ENDMDL
MODEL 5
REMARK VINA RESULT:      -9.5      2.115      7.154
REMARK  Name = *****
REMARK                            x       y       z     vdW  Elec       q    Type
REMARK                         _______ _______ _______ _____ _____    ______ ____
ROOT
ATOM      1  C   LIG    1       25.050 -21.218   5.018  0.00  0.00    +0.148 C 
ENDROOT
BRANCH   1   2
ATOM      2  C   LIG    1       24.509 -22.553   5.544  0.00  0.00    -0.020 A 
ATOM      3  C   LIG    1       23.358 -22.637   6.351  0.00  0.00    +0.006 A 
ATOM      4  C   LIG    1       22.912 -23.866   6.843  0.00  0.00    +0.000 A 
ATOM      5  C   LIG    1       23.592 -25.036   6.524  0.00  0.00    +0.000 A 
ATOM      6  C   LIG    1       24.717 -24.980   5.701  0.00  0.00    +0.000 A 
ATOM      7  C   LIG    1       25.171 -23.752   5.215  0.00  0.00    +0.006 A 
ENDBRANCH   1   2
BRANCH   1   8
ATOM      8  C   LIG    1       26.191 -20.603   5.848  0.00  0.00    -0.020 A 
ATOM      9  C   LIG    1       27.251 -19.948   5.198  0.00  0.00    +0.006 A 
ATOM     10  C   LIG    1       28.360 -19.468   5.916  0.00  0.00    +0.009 A 
ATOM     11  C   LIG    1       28.454 -19.611   7.311  0.00  0.00    -0.018 A 
ATOM     12  C   LIG    1       27.361 -20.209   7.954  0.00  0.00    +0.009 A 
ATOM     13  C   LIG    1       26.254 -20.690   7.245  0.00  0.00    +0.006 A 
BRANCH  11  14
ATOM     14  C   LIG    1       29.644 -19.165   8.081  0.00  0.00    -0.018 A 
ATOM     15  C   LIG    1       30.739 -20.029   8.303  0.00  0.00    +0.008 A 
ATOM     16  C   LIG    1       31.856 -19.630   9.043  0.00  0.00    +0.001 A 
ATOM     17  C   LIG    1       31.915 -18.346   9.573  0.00  0.00    +0.000 A 
ATOM     18  C   LIG    1       30.859 -17.467   9.361  0.00  0.00    +0.001 A 
ATOM     19  C   LIG    1       29.737 -17.873   8.628  0.00  0.00    +0.008 A 
ENDBRANCH  11  14
ENDBRANCH   1   8
BRANCH   1  23
ATOM     20  C   LIG    1       22.247 -18.914   4.928  0.00  0.00    +0.130 A 
ATOM     21  N   LIG    1       22.848 -18.634   3.728  0.00  0.00    -0.244 NA
ATOM     22  C   LIG    1       23.867 -19.460   3.649  0.00  0.00    +0.200 A 
ATOM     23  N   LIG    1       23.955 -20.264   4.758  0.00  0.00    -0.325 N 
ATOM     24  C   LIG    1       22.906 -19.931   5.577  0.00  0.00    +0.108 A 
ENDBRANCH   1  23
TORSDOF 4
ENDMDL
MODEL 6
REMARK VINA RESULT:      -9.1      1.595      3.699
REMARK  Name = *****
REMARK                            x       y       z     vdW  Elec       q    Type
REMARK                         _______ _______ _______ _____ _____    ______ ____
ROOT
ATOM      1  C   LIG    1       25.689 -21.959   5.792  0.00  0.00    +0.148 C 
ENDROOT
BRANCH   1   2
ATOM      2  C   LIG    1       24.402 -21.234   5.383  0.00  0.00    -0.020 A 
ATOM      3  C   LIG    1       23.123 -21.715   5.724  0.00  0.00    +0.006 A 
ATOM      4  C   LIG    1       21.968 -21.050   5.305  0.00  0.00    +0.000 A 
ATOM      5  C   LIG    1       22.066 -19.882   4.556  0.00  0.00    +0.000 A 
ATOM      6  C   LIG    1       23.323 -19.372   4.232  0.00  0.00    +0.000 A 
ATOM      7  C   LIG    1       24.479 -20.039   4.642  0.00  0.00    +0.006 A 
ENDBRANCH   1   2
BRANCH   1   8
ATOM      8  C   LIG    1       25.561 -23.485   5.942  0.00  0.00    -0.020 A 
ATOM      9  C   LIG    1       24.945 -24.236   4.926  0.00  0.00    +0.006 A 
ATOM     10  C   LIG    1       24.716 -25.615   5.077  0.00  0.00    +0.009 A 
ATOM     11  C   LIG    1       25.100 -26.304   6.239  0.00  0.00    -0.018 A 
ATOM     12  C   LIG    1       25.771 -25.555   7.217  0.00  0.00    +0.009 A 
ATOM     13  C   LIG    1       26.001 -24.182   7.074  0.00  0.00    +0.006 A 
BRANCH  11  14
ATOM     14  C   LIG    1       24.814 -27.748   6.444  0.00  0.00    -0.018 A 
ATOM     15  C   LIG    1       25.214 -28.413   7.623  0.00  0.00    +0.008 A 
ATOM     16  C   LIG    1       24.970 -29.776   7.820  0.00  0.00    +0.001 A 
ATOM     17  C   LIG    1       24.304 -30.510   6.846  0.00  0.00    +0.000 A 
ATOM     18  C   LIG    1       23.885 -29.881   5.679  0.00  0.00    +0.001 A 
ATOM     19  C   LIG    1       24.141 -28.519   5.480  0.00  0.00    +0.008 A 
ENDBRANCH  11  14
ENDBRANCH   1   8
BRANCH   1  23
ATOM     20  C   LIG    1       27.624 -20.230   8.329  0.00  0.00    +0.130 A 
ATOM     21  N   LIG    1       26.420 -20.362   8.971  0.00  0.00    -0.244 NA
ATOM     22  C   LIG    1       25.652 -21.023   8.134  0.00  0.00    +0.200 A 
ATOM     23  N   LIG    1       26.311 -21.320   6.968  0.00  0.00    -0.325 N 
ATOM     24  C   LIG    1       27.586 -20.829   7.093  0.00  0.00    +0.108 A 
ENDBRANCH   1  23
TORSDOF 4
ENDMDL
MODEL 7
REMARK VINA RESULT:      -7.9      3.984      8.948
REMARK  Name = *****
REMARK                            x       y       z     vdW  Elec       q    Type
REMARK                         _______ _______ _______ _____ _____    ______ ____
ROOT
ATOM      1  C   LIG    1       25.576 -30.014   7.332  0.00  0.00    +0.148 C 
ENDROOT
BRANCH   1   2
ATOM      2  C   LIG    1       25.025 -30.438   8.698  0.00  0.00    -0.020 A 
ATOM      3  C   LIG    1       23.767 -30.014   9.170  0.00  0.00    +0.006 A 
ATOM      4  C   LIG    1       23.309 -30.389  10.436  0.00  0.00    +0.000 A 
ATOM      5  C   LIG    1       24.086 -31.210  11.246  0.00  0.00    +0.000 A 
ATOM      6  C   LIG    1       25.321 -31.666  10.786  0.00  0.00    +0.000 A 
ATOM      7  C   LIG    1       25.786 -31.286   9.526  0.00  0.00    +0.006 A 
ENDBRANCH   1   2
BRANCH   1   8
ATOM      8  C   LIG    1       25.296 -28.553   6.939  0.00  0.00    -0.020 A 
ATOM      9  C   LIG    1       26.051 -27.519   7.519  0.00  0.00    +0.006 A 
ATOM     10  C   LIG    1       25.752 -26.169   7.264  0.00  0.00    +0.009 A 
ATOM     11  C   LIG    1       24.699 -25.794   6.413  0.00  0.00    -0.018 A 
ATOM     12  C   LIG    1       23.996 -26.836   5.791  0.00  0.00    +0.009 A 
ATOM     13  C   LIG    1       24.287 -28.182   6.041  0.00  0.00    +0.006 A 
BRANCH  11  14
ATOM     14  C   LIG    1       24.328 -24.374   6.176  0.00  0.00    -0.018 A 
ATOM     15  C   LIG    1       23.187 -23.805   6.781  0.00  0.00    +0.008 A 
ATOM     16  C   LIG    1       22.814 -22.476   6.552  0.00  0.00    +0.001 A 
ATOM     17  C   LIG    1       23.585 -21.673   5.719  0.00  0.00    +0.000 A 
ATOM     18  C   LIG    1       24.724 -22.201   5.119  0.00  0.00    +0.001 A 
ATOM     19  C   LIG    1       25.087 -23.534   5.342  0.00  0.00    +0.008 A 
ENDBRANCH  11  14
ENDBRANCH   1   8
BRANCH   1  23
ATOM     20  C   LIG    1       25.157 -32.338   4.576  0.00  0.00    +0.130 A 
ATOM     21  N   LIG    1       24.023 -32.594   5.301  0.00  0.00    -0.244 NA
ATOM     22  C   LIG    1       24.064 -31.759   6.315  0.00  0.00    +0.200 A 
ATOM     23  N   LIG    1       25.188 -30.972   6.279  0.00  0.00    -0.325 N 
ATOM     24  C   LIG    1       25.887 -31.327   5.153  0.00  0.00    +0.108 A 
ENDBRANCH   1  23
TORSDOF 4
ENDMDL
MODEL 8
REMARK VINA RESULT:      -7.9      3.725      8.243
REMARK  Name = *****
REMARK                            x       y       z     vdW  Elec       q    Type
REMARK                         _______ _______ _______ _____ _____    ______ ____
ROOT
ATOM      1  C   LIG    1       25.849 -28.817   7.318  0.00  0.00    +0.148 C 
ENDROOT
BRANCH   1   2
ATOM      2  C   LIG    1       25.746 -29.101   8.821  0.00  0.00    -0.020 A 
ATOM      3  C   LIG    1       24.663 -29.802   9.386  0.00  0.00    +0.006 A 
ATOM      4  C   LIG    1       24.582 -30.013  10.765  0.00  0.00    +0.000 A 
ATOM      5  C   LIG    1       25.588 -29.547  11.604  0.00  0.00    +0.000 A 
ATOM      6  C   LIG    1       26.685 -28.877  11.063  0.00  0.00    +0.000 A 
ATOM      7  C   LIG    1       26.765 -28.656   9.687  0.00  0.00    +0.006 A 
ENDBRANCH   1   2
BRANCH   1   8
ATOM      8  C   LIG    1       25.461 -27.390   6.895  0.00  0.00    -0.020 A 
ATOM      9  C   LIG    1       26.321 -26.318   7.189  0.00  0.00    +0.006 A 
ATOM     10  C   LIG    1       25.950 -24.990   6.912  0.00  0.00    +0.009 A 
ATOM     11  C   LIG    1       24.714 -24.676   6.322  0.00  0.00    -0.018 A 
ATOM     12  C   LIG    1       23.894 -25.760   5.975  0.00  0.00    +0.009 A 
ATOM     13  C   LIG    1       24.256 -27.084   6.249  0.00  0.00    +0.006 A 
BRANCH  11  14
ATOM     14  C   LIG    1       24.278 -23.278   6.075  0.00  0.00    -0.018 A 
ATOM     15  C   LIG    1       24.637 -22.596   4.892  0.00  0.00    +0.008 A 
ATOM     16  C   LIG    1       24.251 -21.273   4.656  0.00  0.00    +0.001 A 
ATOM     17  C   LIG    1       23.480 -20.597   5.595  0.00  0.00    +0.000 A 
ATOM     18  C   LIG    1       23.099 -21.244   6.765  0.00  0.00    +0.001 A 
ATOM     19  C   LIG    1       23.497 -22.566   7.003  0.00  0.00    +0.008 A 
ENDBRANCH  11  14
ENDBRANCH   1   8
BRANCH   1  23
ATOM     20  C   LIG    1       24.633 -31.639   5.387  0.00  0.00    +0.130 A 
ATOM     21  N   LIG    1       23.450 -31.060   5.766  0.00  0.00    -0.244 NA
ATOM     22  C   LIG    1       23.791 -29.990   6.448  0.00  0.00    +0.200 A 
ATOM     23  N   LIG    1       25.155 -29.854   6.531  0.00  0.00    -0.325 N 
ATOM     24  C   LIG    1       25.703 -30.902   5.835  0.00  0.00    +0.108 A 
ENDBRANCH   1  23
TORSDOF 4
ENDMDL
MODEL 9
REMARK VINA RESULT:      -7.8      3.910      9.436
REMARK  Name = *****
REMARK                            x       y       z     vdW  Elec       q    Type
REMARK                         _______ _______ _______ _____ _____    ______ ____
ROOT
ATOM      1  C   LIG    1       24.546 -30.466   7.209  0.00  0.00    +0.148 C 
ENDROOT
BRANCH   1   2
ATOM      2  C   LIG    1       24.727 -31.421   6.024  0.00  0.00    -0.020 A 
ATOM      3  C   LIG    1       23.877 -32.522   5.804  0.00  0.00    +0.006 A 
ATOM      4  C   LIG    1       24.091 -33.395   4.734  0.00  0.00    +0.000 A 
ATOM      5  C   LIG    1       25.144 -33.176   3.852  0.00  0.00    +0.000 A 
ATOM      6  C   LIG    1       25.980 -32.075   4.034  0.00  0.00    +0.000 A 
ATOM      7  C   LIG    1       25.775 -31.205   5.107  0.00  0.00    +0.006 A 
ENDBRANCH   1   2
BRANCH   1   8
ATOM      8  C   LIG    1       24.792 -28.980   6.894  0.00  0.00    -0.020 A 
ATOM      9  C   LIG    1       25.768 -28.267   7.612  0.00  0.00    +0.006 A 
ATOM     10  C   LIG    1       25.945 -26.885   7.424  0.00  0.00    +0.009 A 
ATOM     11  C   LIG    1       25.166 -26.159   6.508  0.00  0.00    -0.018 A 
ATOM     12  C   LIG    1       24.240 -26.894   5.753  0.00  0.00    +0.009 A 
ATOM     13  C   LIG    1       24.058 -28.270   5.935  0.00  0.00    +0.006 A 
BRANCH  11  14
ATOM     14  C   LIG    1       25.296 -24.688   6.338  0.00  0.00    -0.018 A 
ATOM     15  C   LIG    1       25.974 -23.898   7.291  0.00  0.00    +0.008 A 
ATOM     16  C   LIG    1       26.086 -22.510   7.154  0.00  0.00    +0.001 A 
ATOM     17  C   LIG    1       25.532 -21.875   6.049  0.00  0.00    +0.000 A 
ATOM     18  C   LIG    1       24.869 -22.627   5.085  0.00  0.00    +0.001 A 
ATOM     19  C   LIG    1       24.749 -24.015   5.231  0.00  0.00    +0.008 A 
ENDBRANCH  11  14
ENDBRANCH   1   8
BRANCH   1  23
ATOM     20  C   LIG    1       25.914 -31.560  10.388  0.00  0.00    +0.130 A 
ATOM     21  N   LIG    1       26.899 -31.975   9.529  0.00  0.00    -0.244 NA
ATOM     22  C   LIG    1       26.508 -31.581   8.338  0.00  0.00    +0.200 A 
ATOM     23  N   LIG    1       25.300 -30.931   8.389  0.00  0.00    -0.325 N 
ATOM     24  C   LIG    1       24.921 -30.897   9.708  0.00  0.00    +0.108 A 
ENDBRANCH   1  23
TORSDOF 4
ENDMDL
