MODEL 1
REMARK VINA RESULT:      -5.3      0.000      0.000
REMARK  Name = *****
REMARK                            x       y       z     vdW  Elec       q    Type
REMARK                         _______ _______ _______ _____ _____    ______ ____
ROOT
ATOM      1  C   LIG    1       23.816 -23.505   6.834  0.00  0.00    +0.117 A 
ATOM      2  C   LIG    1       23.352 -22.223   7.118  0.00  0.00    +0.047 A 
ATOM      3  C   LIG    1       24.251 -21.237   7.526  0.00  0.00    +0.023 A 
ATOM      4  C   LIG    1       25.606 -21.544   7.645  0.00  0.00    +0.041 A 
ATOM      5 CL   LIG    1       26.716 -20.333   8.154  0.00  0.00    -0.084 Cl
ATOM      6  C   LIG    1       26.068 -22.829   7.353  0.00  0.00    +0.023 A 
ATOM      7  C   LIG    1       25.169 -23.816   6.944  0.00  0.00    +0.047 A 
ENDROOT
BRANCH   1   8
ATOM      8  O   LIG    1       22.902 -24.437   6.448  0.00  0.00    -0.507 OA
ATOM      9  H   LIG    1       22.140 -23.983   6.050  0.00  0.00    +0.292 HD
ENDBRANCH   1   8
TORSDOF 1
ENDMDL
MODEL 2
REMARK VINA RESULT:      -5.2      0.044      1.713
REMARK  Name = *****
REMARK                            x       y       z     vdW  Elec       q    Type
REMARK                         _______ _______ _______ _____ _____    ______ ____
ROOT
ATOM      1  C   LIG    1       23.782 -23.455   6.843  0.00  0.00    +0.117 A 
ATOM      2  C   LIG    1       25.128 -23.792   6.952  0.00  0.00    +0.047 A 
ATOM      3  C   LIG    1       26.052 -22.824   7.348  0.00  0.00    +0.023 A 
ATOM      4  C   LIG    1       25.619 -21.530   7.632  0.00  0.00    +0.041 A 
ATOM      5 CL   LIG    1       26.756 -20.333   8.115  0.00  0.00    -0.084 Cl
ATOM      6  C   LIG    1       24.267 -21.198   7.528  0.00  0.00    +0.023 A 
ATOM      7  C   LIG    1       23.341 -22.166   7.132  0.00  0.00    +0.047 A 
ENDROOT
BRANCH   1   8
ATOM      8  O   LIG    1       22.917 -24.429   6.445  0.00  0.00    -0.507 OA
ATOM      9  H   LIG    1       22.381 -24.091   5.709  0.00  0.00    +0.292 HD
ENDBRANCH   1   8
TORSDOF 1
ENDMDL
MODEL 3
REMARK VINA RESULT:      -5.2      2.911      3.382
REMARK  Name = *****
REMARK                            x       y       z     vdW  Elec       q    Type
REMARK                         _______ _______ _______ _____ _____    ______ ____
ROOT
ATOM      1  C   LIG    1       24.637 -21.934   7.636  0.00  0.00    +0.117 A 
ATOM      2  C   LIG    1       23.368 -22.347   7.241  0.00  0.00    +0.047 A 
ATOM      3  C   LIG    1       23.194 -23.622   6.700  0.00  0.00    +0.023 A 
ATOM      4  C   LIG    1       24.291 -24.470   6.563  0.00  0.00    +0.041 A 
ATOM      5 CL   LIG    1       24.081 -26.040   5.892  0.00  0.00    -0.084 Cl
ATOM      6  C   LIG    1       25.561 -24.054   6.967  0.00  0.00    +0.023 A 
ATOM      7  C   LIG    1       25.737 -22.779   7.508  0.00  0.00    +0.047 A 
ENDROOT
BRANCH   1   8
ATOM      8  O   LIG    1       24.762 -20.679   8.150  0.00  0.00    -0.507 OA
ATOM      9  H   LIG    1       24.011 -20.141   7.849  0.00  0.00    +0.292 HD
ENDBRANCH   1   8
TORSDOF 1
ENDMDL
MODEL 4
REMARK VINA RESULT:      -5.2      3.849      4.270
REMARK  Name = *****
REMARK                            x       y       z     vdW  Elec       q    Type
REMARK                         _______ _______ _______ _____ _____    ______ ____
ROOT
ATOM      1  C   LIG    1       24.203 -21.514   4.658  0.00  0.00    +0.117 A 
ATOM      2  C   LIG    1       23.222 -21.230   5.605  0.00  0.00    +0.047 A 
ATOM      3  C   LIG    1       22.580 -19.991   5.584  0.00  0.00    +0.023 A 
ATOM      4  C   LIG    1       22.925 -19.051   4.615  0.00  0.00    +0.041 A 
ATOM      5 CL   LIG    1       22.140 -17.521   4.590  0.00  0.00    -0.084 Cl
ATOM      6  C   LIG    1       23.904 -19.342   3.664  0.00  0.00    +0.023 A 
ATOM      7  C   LIG    1       24.548 -20.581   3.683  0.00  0.00    +0.047 A 
ENDROOT
BRANCH   1   8
ATOM      8  O   LIG    1       24.809 -22.732   4.722  0.00  0.00    -0.507 OA
ATOM      9  H   LIG    1       25.276 -22.894   3.885  0.00  0.00    +0.292 HD
ENDBRANCH   1   8
TORSDOF 1
ENDMDL
MODEL 5
REMARK VINA RESULT:      -5.2      3.841      4.360
REMARK  Name = *****
REMARK                            x       y       z     vdW  Elec       q    Type
REMARK                         _______ _______ _______ _____ _____    ______ ____
ROOT
ATOM      1  C   LIG    1       24.163 -21.532   4.691  0.00  0.00    +0.117 A 
ATOM      2  C   LIG    1       24.496 -20.624   3.690  0.00  0.00    +0.047 A 
ATOM      3  C   LIG    1       23.872 -19.376   3.654  0.00  0.00    +0.023 A 
ATOM      4  C   LIG    1       22.923 -19.050   4.621  0.00  0.00    +0.041 A 
ATOM      5 CL   LIG    1       22.148 -17.515   4.576  0.00  0.00    -0.084 Cl
ATOM      6  C   LIG    1       22.597 -19.960   5.627  0.00  0.00    +0.023 A 
ATOM      7  C   LIG    1       23.220 -21.210   5.665  0.00  0.00    +0.047 A 
ENDROOT
BRANCH   1   8
ATOM      8  O   LIG    1       24.790 -22.741   4.683  0.00  0.00    -0.507 OA
ATOM      9  H   LIG    1       24.127 -23.437   4.541  0.00  0.00    +0.292 HD
ENDBRANCH   1   8
TORSDOF 1
ENDMDL
MODEL 6
REMARK VINA RESULT:      -5.1      3.207      3.561
REMARK  Name = *****
REMARK                            x       y       z     vdW  Elec       q    Type
REMARK                         _______ _______ _______ _____ _____    ______ ____
ROOT
ATOM      1  C   LIG    1       25.622 -20.702   8.025  0.00  0.00    +0.117 A 
ATOM      2  C   LIG    1       24.305 -20.822   7.590  0.00  0.00    +0.047 A 
ATOM      3  C   LIG    1       24.014 -20.707   6.230  0.00  0.00    +0.023 A 
ATOM      4  C   LIG    1       25.043 -20.475   5.320  0.00  0.00    +0.041 A 
ATOM      5 CL   LIG    1       24.687 -20.326   3.644  0.00  0.00    -0.084 Cl
ATOM      6  C   LIG    1       26.363 -20.361   5.759  0.00  0.00    +0.023 A 
ATOM      7  C   LIG    1       26.657 -20.476   7.120  0.00  0.00    +0.047 A 
ENDROOT
BRANCH   1   8
ATOM      8  O   LIG    1       25.859 -20.812   9.361  0.00  0.00    -0.507 OA
ATOM      9  H   LIG    1       26.070 -21.738   9.567  0.00  0.00    +0.292 HD
ENDBRANCH   1   8
TORSDOF 1
ENDMDL
MODEL 7
REMARK VINA RESULT:      -5.1      5.715      6.718
REMARK  Name = *****
REMARK                            x       y       z     vdW  Elec       q    Type
REMARK                         _______ _______ _______ _____ _____    ______ ____
ROOT
ATOM      1  C   LIG    1       31.089 -20.030   8.305  0.00  0.00    +0.117 A 
ATOM      2  C   LIG    1       30.161 -21.068   8.322  0.00  0.00    +0.047 A 
ATOM      3  C   LIG    1       29.069 -21.031   7.453  0.00  0.00    +0.023 A 
ATOM      4  C   LIG    1       28.919 -19.957   6.578  0.00  0.00    +0.041 A 
ATOM      5 CL   LIG    1       27.571 -19.905   5.511  0.00  0.00    -0.084 Cl
ATOM      6  C   LIG    1       29.855 -18.922   6.560  0.00  0.00    +0.023 A 
ATOM      7  C   LIG    1       30.948 -18.957   7.429  0.00  0.00    +0.047 A 
ENDROOT
BRANCH   1   8
ATOM      8  O   LIG    1       32.134 -20.103   9.176  0.00  0.00    -0.507 OA
ATOM      9  H   LIG    1       32.938 -19.793   8.727  0.00  0.00    +0.292 HD
ENDBRANCH   1   8
TORSDOF 1
ENDMDL
MODEL 8
REMARK VINA RESULT:      -4.9      3.043      3.743
REMARK  Name = *****
REMARK                            x       y       z     vdW  Elec       q    Type
REMARK                         _______ _______ _______ _____ _____    ______ ____
ROOT
ATOM      1  C   LIG    1       24.908 -21.027   7.603  0.00  0.00    +0.117 A 
ATOM      2  C   LIG    1       25.946 -20.799   6.704  0.00  0.00    +0.047 A 
ATOM      3  C   LIG    1       25.655 -20.385   5.404  0.00  0.00    +0.023 A 
ATOM      4  C   LIG    1       24.328 -20.202   5.018  0.00  0.00    +0.041 A 
ATOM      5 CL   LIG    1       23.964 -19.698   3.414  0.00  0.00    -0.084 Cl
ATOM      6  C   LIG    1       23.290 -20.426   5.925  0.00  0.00    +0.023 A 
ATOM      7  C   LIG    1       23.580 -20.840   7.227  0.00  0.00    +0.047 A 
ENDROOT
BRANCH   1   8
ATOM      8  O   LIG    1       25.239 -21.439   8.859  0.00  0.00    -0.507 OA
ATOM      9  H   LIG    1       25.162 -22.406   8.903  0.00  0.00    +0.292 HD
ENDBRANCH   1   8
TORSDOF 1
ENDMDL
MODEL 9
REMARK VINA RESULT:      -4.9      2.105      2.561
REMARK  Name = *****
REMARK                            x       y       z     vdW  Elec       q    Type
REMARK                         _______ _______ _______ _____ _____    ______ ____
ROOT
ATOM      1  C   LIG    1       23.161 -21.147   5.626  0.00  0.00    +0.117 A 
ATOM      2  C   LIG    1       24.269 -20.846   4.838  0.00  0.00    +0.047 A 
ATOM      3  C   LIG    1       25.500 -20.593   5.446  0.00  0.00    +0.023 A 
ATOM      4  C   LIG    1       25.609 -20.646   6.834  0.00  0.00    +0.041 A 
ATOM      5 CL   LIG    1       27.123 -20.328   7.586  0.00  0.00    -0.084 Cl
ATOM      6  C   LIG    1       24.497 -20.954   7.620  0.00  0.00    +0.023 A 
ATOM      7  C   LIG    1       23.265 -21.207   7.014  0.00  0.00    +0.047 A 
ENDROOT
BRANCH   1   8
ATOM      8  O   LIG    1       21.978 -21.378   4.991  0.00  0.00    -0.507 OA
ATOM      9  H   LIG    1       21.259 -20.993   5.519  0.00  0.00    +0.292 HD
ENDBRANCH   1   8
TORSDOF 1
ENDMDL
