MODEL 1
REMARK VINA RESULT:      60.7      0.000      0.000
REMARK  Name = *****
REMARK                            x       y       z     vdW  Elec       q    Type
REMARK                         _______ _______ _______ _____ _____    ______ ____
ROOT
ATOM      1  C   LIG    1       24.943 -19.515   2.227  0.00  0.00    +0.147 C 
ATOM      2  C   LIG    1       23.539 -20.118   2.496  0.00  0.00    +0.068 C 
ATOM      3  C   LIG    1       22.723 -19.524   3.667  0.00  0.00    +0.141 C 
ATOM      4  O   LIG    1       23.513 -19.609   4.844  0.00  0.00    -0.344 OA
ATOM      5  C   LIG    1       22.937 -19.230   6.079  0.00  0.00    +0.172 C 
ATOM      6  C   LIG    1       21.413 -19.150   6.054  0.00  0.00    +0.097 C 
ATOM      7  C   LIG    1       20.830 -20.284   5.211  0.00  0.00    +0.136 C 
ATOM      8  C   LIG    1       23.655 -18.009   6.692  0.00  0.00    +0.096 C 
ATOM      9  C   LIG    1       23.386 -16.611   6.111  0.00  0.00    +0.122 C 
ATOM     10  C   LIG    1       22.231 -15.896   6.833  0.00  0.00    +0.066 C 
ATOM     11  C   LIG    1       21.500 -14.893   5.995  0.00  0.00    +0.154 C 
ATOM     12  C   LIG    1       22.012 -13.531   5.568  0.00  0.00    +0.171 C 
ATOM     13  C   LIG    1       23.459 -13.222   5.666  0.00  0.00    +0.014 C 
ATOM     14  C   LIG    1       24.240 -12.954   4.611  0.00  0.00    +0.090 C 
ATOM     15  C   LIG    1       25.702 -12.730   4.680  0.00  0.00    +0.332 C 
ATOM     16  O   LIG    1       26.353 -12.361   3.718  0.00  0.00    -0.246 OA
ATOM     17  O   LIG    1       26.170 -13.065   5.896  0.00  0.00    -0.458 OA
ATOM     18  C   LIG    1       27.600 -13.152   6.113  0.00  0.00    +0.177 C 
ATOM     19  C   LIG    1       28.298 -11.810   5.866  0.00  0.00    +0.052 C 
ATOM     20  C   LIG    1       28.249 -14.285   5.297  0.00  0.00    +0.071 C 
ATOM     21  C   LIG    1       27.577 -15.632   5.421  0.00  0.00    -0.023 C 
ATOM     22  C   LIG    1       28.241 -16.758   5.720  0.00  0.00    -0.004 C 
ATOM     23  C   LIG    1       27.653 -18.081   5.665  0.00  0.00    -0.000 C 
ATOM     24  C   LIG    1       28.401 -19.183   5.812  0.00  0.00    +0.000 C 
ATOM     25  C   LIG    1       27.989 -20.565   5.776  0.00  0.00    +0.000 C 
ATOM     26  C   LIG    1       27.059 -21.226   5.075  0.00  0.00    -0.000 C 
ATOM     27  C   LIG    1       26.024 -20.804   4.160  0.00  0.00    -0.002 C 
ATOM     28  O   LIG    1       21.169 -13.698   6.719  0.00  0.00    -0.364 OA
ATOM     29  C   LIG    1       21.366 -20.247   3.781  0.00  0.00    +0.155 C 
ATOM     30  C   LIG    1       26.069 -19.881   3.187  0.00  0.00    +0.004 C 
ENDROOT
BRANCH   7  31
ATOM     31  O   LIG    1       21.121 -21.571   5.772  0.00  0.00    -0.391 OA
ATOM     32  H   LIG    1       20.269 -22.052   5.861  0.00  0.00    +0.210 HD
ENDBRANCH   7  31
BRANCH   5  33
ATOM     33  O   LIG    1       23.255 -20.354   6.920  0.00  0.00    -0.364 OA
ATOM     34  H   LIG    1       24.227 -20.330   6.995  0.00  0.00    +0.213 HD
ENDBRANCH   5  33
BRANCH   9  35
ATOM     35  O   LIG    1       23.167 -16.657   4.713  0.00  0.00    -0.392 OA
ATOM     36  H   LIG    1       22.704 -15.839   4.446  0.00  0.00    +0.210 HD
ENDBRANCH   9  35
BRANCH  29  37
ATOM     37  C   LIG    1       20.358 -19.506   2.926  0.00  0.00    +0.313 C 
ATOM     38  O   LIG    1       19.351 -20.017   2.461  0.00  0.00    -0.251 OA
BRANCH  37  39
ATOM     39  O   LIG    1       20.657 -18.206   2.714  0.00  0.00    -0.480 OA
ATOM     40  H   LIG    1       21.149 -18.015   1.894  0.00  0.00    +0.295 HD
ENDBRANCH  37  39
ENDBRANCH  29  37
BRANCH   1  41
ATOM     41  O   LIG    1       24.952 -18.088   2.110  0.00  0.00    -0.341 OA
BRANCH  41  47
ATOM     42  C   LIG    1       28.738 -16.523   3.092  0.00  0.00    +0.040 C 
ATOM     43  C   LIG    1       27.270 -16.407   2.705  0.00  0.00    +0.148 C 
ATOM     44  C   LIG    1       26.774 -14.959   2.826  0.00  0.00    +0.162 C 
ATOM     45  C   LIG    1       25.281 -14.906   2.459  0.00  0.00    +0.116 C 
ATOM     46  C   LIG    1       24.489 -15.904   3.314  0.00  0.00    +0.189 C 
ATOM     47  C   LIG    1       25.131 -17.315   3.300  0.00  0.00    +0.281 C 
ATOM     48  O   LIG    1       26.536 -17.261   3.586  0.00  0.00    -0.343 OA
BRANCH  45  49
ATOM     49  N   LIG    1       24.745 -13.531   2.659  0.00  0.00    -0.323 NA
ATOM     50  H   LIG    1       23.795 -13.486   2.285  0.00  0.00    +0.119 HD
ATOM     51  H   LIG    1       25.288 -12.897   2.069  0.00  0.00    +0.119 HD
ENDBRANCH  45  49
BRANCH  44  52
ATOM     52  O   LIG    1       27.501 -14.085   1.959  0.00  0.00    -0.388 OA
ATOM     53  H   LIG    1       26.905 -13.336   1.783  0.00  0.00    +0.210 HD
ENDBRANCH  44  52
BRANCH  46  54
ATOM     54  O   LIG    1       24.410 -15.403   4.661  0.00  0.00    -0.385 OA
ATOM     55  H   LIG    1       24.245 -16.189   5.223  0.00  0.00    +0.210 HD
ENDBRANCH  46  54
ENDBRANCH  41  47
ENDBRANCH   1  41
TORSDOF 10
ENDMDL
