MODEL 1
REMARK VINA RESULT:      -4.1      0.000      0.000
REMARK  Name = *****
REMARK                            x       y       z     vdW  Elec       q    Type
REMARK                         _______ _______ _______ _____ _____    ______ ____
ROOT
ATOM      1  C   LIG    1       25.716 -19.467   4.198  0.00  0.00    +0.190 C 
ENDROOT
BRANCH   1   2
ATOM      2  C   LIG    1       26.913 -19.602   5.151  0.00  0.00    -0.005 A 
ATOM      3  C   LIG    1       28.051 -18.789   5.002  0.00  0.00    +0.007 A 
ATOM      4  C   LIG    1       29.148 -18.916   5.861  0.00  0.00    +0.000 A 
ATOM      5  C   LIG    1       29.130 -19.855   6.888  0.00  0.00    +0.000 A 
ATOM      6  C   LIG    1       28.010 -20.661   7.061  0.00  0.00    +0.000 A 
ATOM      7  C   LIG    1       26.913 -20.536   6.206  0.00  0.00    +0.007 A 
ENDBRANCH   1   2
BRANCH   1   8
ATOM      8  C   LIG    1       24.355 -19.464   4.944  0.00  0.00    +0.036 C 
ATOM      9  C   LIG    1       23.181 -18.941   4.099  0.00  0.00    +0.007 C 
ATOM     10  C   LIG    1       21.961 -19.440   4.854  0.00  0.00    +0.000 C 
ATOM     11  C   LIG    1       22.345 -20.858   5.243  0.00  0.00    +0.000 C 
ATOM     12  C   LIG    1       23.866 -20.852   5.405  0.00  0.00    +0.007 C 
ENDBRANCH   1   8
BRANCH   1  13
ATOM     13  C   LIG    1       25.874 -18.190   3.322  0.00  0.00    +0.344 C 
ATOM     14  O   LIG    1       26.076 -18.207   2.111  0.00  0.00    -0.247 OA
BRANCH  13  15
ATOM     15  O   LIG    1       25.764 -17.032   4.048  0.00  0.00    -0.454 OA
BRANCH  15  19
ATOM     16  C   LIG    1       27.067 -14.055   5.623  0.00  0.00    +0.192 C 
ATOM     17  N   LIG    1       26.785 -13.816   4.142  0.00  0.00    +0.242 N 
ATOM     18  C   LIG    1       27.020 -15.093   3.320  0.00  0.00    +0.178 C 
ATOM     19  C   LIG    1       25.672 -15.827   3.268  0.00  0.00    +0.226 C 
ATOM     20  C   LIG    1       24.646 -14.874   3.878  0.00  0.00    +0.101 C 
ATOM     21  C   LIG    1       25.311 -13.514   3.898  0.00  0.00    +0.136 C 
ATOM     22  C   LIG    1       27.666 -12.679   3.653  0.00  0.00    +0.192 C 
ENDBRANCH  15  19
ENDBRANCH  13  15
ENDBRANCH   1  13
BRANCH   1  23
ATOM     23  O   LIG    1       25.699 -20.579   3.282  0.00  0.00    -0.373 OA
ATOM     24  H   LIG    1       25.223 -20.278   2.485  0.00  0.00    +0.211 HD
ENDBRANCH   1  23
TORSDOF 6
ENDMDL
MODEL 2
REMARK VINA RESULT:      -3.1      1.155      2.037
REMARK  Name = *****
REMARK                            x       y       z     vdW  Elec       q    Type
REMARK                         _______ _______ _______ _____ _____    ______ ____
ROOT
ATOM      1  C   LIG    1       25.471 -18.998   3.955  0.00  0.00    +0.190 C 
ENDROOT
BRANCH   1   2
ATOM      2  C   LIG    1       26.381 -19.674   4.990  0.00  0.00    -0.005 A 
ATOM      3  C   LIG    1       25.886 -20.679   5.842  0.00  0.00    +0.007 A 
ATOM      4  C   LIG    1       26.710 -21.291   6.793  0.00  0.00    +0.000 A 
ATOM      5  C   LIG    1       28.044 -20.915   6.912  0.00  0.00    +0.000 A 
ATOM      6  C   LIG    1       28.558 -19.933   6.072  0.00  0.00    +0.000 A 
ATOM      7  C   LIG    1       27.739 -19.321   5.121  0.00  0.00    +0.007 A 
ENDBRANCH   1   2
BRANCH   1   8
ATOM      8  C   LIG    1       24.021 -18.798   4.474  0.00  0.00    +0.036 C 
ATOM      9  C   LIG    1       22.987 -18.562   3.360  0.00  0.00    +0.007 C 
ATOM     10  C   LIG    1       21.664 -18.838   4.052  0.00  0.00    +0.000 C 
ATOM     11  C   LIG    1       21.954 -20.075   4.886  0.00  0.00    +0.000 C 
ATOM     12  C   LIG    1       23.439 -19.998   5.247  0.00  0.00    +0.007 C 
ENDBRANCH   1   8
BRANCH   1  13
ATOM     13  C   LIG    1       26.093 -17.644   3.503  0.00  0.00    +0.344 C 
ATOM     14  O   LIG    1       27.291 -17.471   3.301  0.00  0.00    -0.247 OA
BRANCH  13  15
ATOM     15  O   LIG    1       25.157 -16.654   3.351  0.00  0.00    -0.454 OA
BRANCH  15  19
ATOM     16  C   LIG    1       24.562 -13.442   1.812  0.00  0.00    +0.192 C 
ATOM     17  N   LIG    1       24.669 -13.315   3.329  0.00  0.00    +0.242 N 
ATOM     18  C   LIG    1       24.128 -14.569   4.031  0.00  0.00    +0.178 C 
ATOM     19  C   LIG    1       25.326 -15.514   4.211  0.00  0.00    +0.226 C 
ATOM     20  C   LIG    1       26.561 -14.715   3.802  0.00  0.00    +0.101 C 
ATOM     21  C   LIG    1       26.124 -13.265   3.782  0.00  0.00    +0.136 C 
ATOM     22  C   LIG    1       23.916 -12.071   3.771  0.00  0.00    +0.192 C 
ENDBRANCH  15  19
ENDBRANCH  13  15
ENDBRANCH   1  13
BRANCH   1  23
ATOM     23  O   LIG    1       25.393 -19.816   2.772  0.00  0.00    -0.373 OA
ATOM     24  H   LIG    1       26.048 -19.459   2.142  0.00  0.00    +0.211 HD
ENDBRANCH   1  23
TORSDOF 6
ENDMDL
MODEL 3
REMARK VINA RESULT:      -2.0      2.401      6.502
REMARK  Name = *****
REMARK                            x       y       z     vdW  Elec       q    Type
REMARK                         _______ _______ _______ _____ _____    ______ ____
ROOT
ATOM      1  C   LIG    1       25.365 -14.497   4.049  0.00  0.00    +0.190 C 
ENDROOT
BRANCH   1   2
ATOM      2  C   LIG    1       26.682 -13.775   4.368  0.00  0.00    -0.005 A 
ATOM      3  C   LIG    1       26.944 -13.287   5.661  0.00  0.00    +0.007 A 
ATOM      4  C   LIG    1       28.138 -12.619   5.954  0.00  0.00    +0.000 A 
ATOM      5  C   LIG    1       29.096 -12.426   4.963  0.00  0.00    +0.000 A 
ATOM      6  C   LIG    1       28.863 -12.910   3.680  0.00  0.00    +0.000 A 
ATOM      7  C   LIG    1       27.672 -13.578   3.385  0.00  0.00    +0.007 A 
ENDBRANCH   1   2
BRANCH   1   8
ATOM      8  C   LIG    1       24.360 -13.597   3.282  0.00  0.00    +0.036 C 
ATOM      9  C   LIG    1       23.937 -12.336   4.055  0.00  0.00    +0.007 C 
ATOM     10  C   LIG    1       23.347 -11.448   2.973  0.00  0.00    +0.000 C 
ATOM     11  C   LIG    1       24.313 -11.620   1.812  0.00  0.00    +0.000 C 
ATOM     12  C   LIG    1       24.883 -13.032   1.946  0.00  0.00    +0.007 C 
ENDBRANCH   1   8
BRANCH   1  13
ATOM     13  C   LIG    1       25.655 -15.807   3.259  0.00  0.00    +0.344 C 
ATOM     14  O   LIG    1       26.491 -15.901   2.365  0.00  0.00    -0.247 OA
BRANCH  13  15
ATOM     15  O   LIG    1       24.875 -16.858   3.669  0.00  0.00    -0.454 OA
BRANCH  15  19
ATOM     16  C   LIG    1       23.427 -19.635   5.466  0.00  0.00    +0.192 C 
ATOM     17  N   LIG    1       24.216 -20.116   4.252  0.00  0.00    +0.242 N 
ATOM     18  C   LIG    1       24.145 -19.097   3.104  0.00  0.00    +0.178 C 
ATOM     19  C   LIG    1       25.349 -18.160   3.283  0.00  0.00    +0.226 C 
ATOM     20  C   LIG    1       26.199 -18.769   4.396  0.00  0.00    +0.101 C 
ATOM     21  C   LIG    1       25.709 -20.194   4.553  0.00  0.00    +0.136 C 
ATOM     22  C   LIG    1       23.674 -21.468   3.820  0.00  0.00    +0.192 C 
ENDBRANCH  15  19
ENDBRANCH  13  15
ENDBRANCH   1  13
BRANCH   1  23
ATOM     23  O   LIG    1       24.727 -14.904   5.275  0.00  0.00    -0.373 OA
ATOM     24  H   LIG    1       25.132 -14.375   5.989  0.00  0.00    +0.211 HD
ENDBRANCH   1  23
TORSDOF 6
ENDMDL
MODEL 4
REMARK VINA RESULT:      -1.5      2.264      6.772
REMARK  Name = *****
REMARK                            x       y       z     vdW  Elec       q    Type
REMARK                         _______ _______ _______ _____ _____    ______ ____
ROOT
ATOM      1  C   LIG    1       26.811 -15.052   3.343  0.00  0.00    +0.190 C 
ENDROOT
BRANCH   1   2
ATOM      2  C   LIG    1       25.424 -14.590   3.813  0.00  0.00    -0.005 A 
ATOM      3  C   LIG    1       25.095 -13.223   3.862  0.00  0.00    +0.007 A 
ATOM      4  C   LIG    1       23.836 -12.798   4.300  0.00  0.00    +0.000 A 
ATOM      5  C   LIG    1       22.879 -13.728   4.696  0.00  0.00    +0.000 A 
ATOM      6  C   LIG    1       23.178 -15.085   4.644  0.00  0.00    +0.000 A 
ATOM      7  C   LIG    1       24.434 -15.513   4.206  0.00  0.00    +0.007 A 
ENDBRANCH   1   2
BRANCH   1   8
ATOM      8  C   LIG    1       27.964 -14.250   4.004  0.00  0.00    +0.036 C 
ATOM      9  C   LIG    1       28.433 -13.038   3.180  0.00  0.00    +0.007 C 
ATOM     10  C   LIG    1       29.201 -12.207   4.193  0.00  0.00    +0.000 C 
ATOM     11  C   LIG    1       28.334 -12.281   5.439  0.00  0.00    +0.000 C 
ATOM     12  C   LIG    1       27.621 -13.632   5.374  0.00  0.00    +0.007 C 
ENDBRANCH   1   8
BRANCH   1  13
ATOM     13  C   LIG    1       26.977 -16.579   3.595  0.00  0.00    +0.344 C 
ATOM     14  O   LIG    1       27.963 -17.086   4.122  0.00  0.00    -0.247 OA
BRANCH  13  15
ATOM     15  O   LIG    1       25.899 -17.308   3.165  0.00  0.00    -0.454 OA
BRANCH  15  19
ATOM     16  C   LIG    1       23.152 -19.099   4.677  0.00  0.00    +0.192 C 
ATOM     17  N   LIG    1       24.123 -20.057   3.992  0.00  0.00    +0.242 N 
ATOM     18  C   LIG    1       24.763 -19.408   2.755  0.00  0.00    +0.178 C 
ATOM     19  C   LIG    1       26.056 -18.736   3.240  0.00  0.00    +0.226 C 
ATOM     20  C   LIG    1       26.246 -19.177   4.689  0.00  0.00    +0.101 C 
ATOM     21  C   LIG    1       25.323 -20.363   4.881  0.00  0.00    +0.136 C 
ATOM     22  C   LIG    1       23.378 -21.328   3.621  0.00  0.00    +0.192 C 
ENDBRANCH  15  19
ENDBRANCH  13  15
ENDBRANCH   1  13
BRANCH   1  23
ATOM     23  O   LIG    1       26.923 -14.869   1.918  0.00  0.00    -0.373 OA
ATOM     24  H   LIG    1       27.761 -15.292   1.647  0.00  0.00    +0.211 HD
ENDBRANCH   1  23
TORSDOF 6
ENDMDL
