MODEL 1
REMARK VINA RESULT:      -9.3      0.000      0.000
REMARK  Name = *****
REMARK                            x       y       z     vdW  Elec       q    Type
REMARK                         _______ _______ _______ _____ _____    ______ ____
ROOT
ATOM      1  C   LIG    1       27.558 -21.595   7.695  0.00  0.00    -0.033 A 
ATOM      2  C   LIG    1       26.815 -20.470   8.076  0.00  0.00    +0.008 A 
ATOM      3  C   LIG    1       25.416 -20.497   8.094  0.00  0.00    +0.046 A 
ATOM      4  C   LIG    1       24.726 -21.642   7.697  0.00  0.00    +0.121 A 
ATOM      5  C   LIG    1       25.454 -22.777   7.336  0.00  0.00    +0.046 A 
ATOM      6  C   LIG    1       26.859 -22.758   7.337  0.00  0.00    +0.008 A 
ENDROOT
BRANCH   1   7
ATOM      7  C   LIG    1       29.073 -21.544   7.713  0.00  0.00    +0.117 C 
BRANCH   7   8
ATOM      8  N   LIG    1       29.663 -20.406   8.436  0.00  0.00    -0.302 NA
ATOM      9  H   LIG    1       30.218 -20.789   9.202  0.00  0.00    +0.123 HD
BRANCH   8  11
ATOM     10  C   LIG    1       29.864 -18.629   6.613  0.00  0.00    +0.033 C 
ATOM     11  C   LIG    1       30.561 -19.543   7.623  0.00  0.00    +0.137 C 
BRANCH  11  12
ATOM     12  C   LIG    1       31.398 -18.611   8.534  0.00  0.00    +0.227 C 
ATOM     13  O   LIG    1       32.045 -17.668   8.104  0.00  0.00    -0.274 OA
ATOM     14  N   LIG    1       31.303 -18.813   9.882  0.00  0.00    -0.328 N 
ATOM     15  H   LIG    1       31.841 -18.193  10.472  0.00  0.00    +0.145 HD
ATOM     16  H   LIG    1       31.061 -19.733  10.225  0.00  0.00    +0.145 HD
ENDBRANCH  11  12
ENDBRANCH   8  11
ENDBRANCH   7   8
ENDBRANCH   1   7
BRANCH   4  17
ATOM     17  O   LIG    1       23.358 -21.755   7.659  0.00  0.00    -0.487 OA
BRANCH  17  18
ATOM     18  C   LIG    1       22.823 -22.081   6.372  0.00  0.00    +0.264 C 
BRANCH  18  19
ATOM     19  C   LIG    1       23.117 -20.981   5.380  0.00  0.00    -0.008 A 
ATOM     20  C   LIG    1       22.427 -19.763   5.451  0.00  0.00    +0.045 A 
ATOM     21  C   LIG    1       22.720 -18.742   4.554  0.00  0.00    +0.124 A 
ATOM     22  F   LIG    1       22.063 -17.577   4.641  0.00  0.00    -0.205 F 
ATOM     23  C   LIG    1       23.691 -18.908   3.574  0.00  0.00    +0.038 A 
ATOM     24  C   LIG    1       24.382 -20.115   3.491  0.00  0.00    +0.003 A 
ATOM     25  C   LIG    1       24.095 -21.148   4.388  0.00  0.00    +0.007 A 
ENDBRANCH  18  19
ENDBRANCH  17  18
ENDBRANCH   4  17
TORSDOF 7
ENDMDL
MODEL 2
REMARK VINA RESULT:      -9.2      2.425      4.113
REMARK  Name = *****
REMARK                            x       y       z     vdW  Elec       q    Type
REMARK                         _______ _______ _______ _____ _____    ______ ____
ROOT
ATOM      1  C   LIG    1       30.932 -18.927   8.252  0.00  0.00    -0.033 A 
ATOM      2  C   LIG    1       30.920 -20.260   8.684  0.00  0.00    +0.008 A 
ATOM      3  C   LIG    1       29.952 -21.160   8.226  0.00  0.00    +0.046 A 
ATOM      4  C   LIG    1       28.951 -20.739   7.352  0.00  0.00    +0.121 A 
ATOM      5  C   LIG    1       28.964 -19.419   6.898  0.00  0.00    +0.046 A 
ATOM      6  C   LIG    1       29.948 -18.519   7.340  0.00  0.00    +0.008 A 
ENDROOT
BRANCH   1   7
ATOM      7  C   LIG    1       32.012 -17.983   8.744  0.00  0.00    +0.117 C 
BRANCH   7   8
ATOM      8  N   LIG    1       32.302 -18.041  10.185  0.00  0.00    -0.302 NA
ATOM      9  H   LIG    1       33.102 -18.663  10.307  0.00  0.00    +0.123 HD
BRANCH   8  11
ATOM     10  C   LIG    1       32.993 -15.607   9.835  0.00  0.00    +0.033 C 
ATOM     11  C   LIG    1       32.651 -16.736  10.809  0.00  0.00    +0.137 C 
BRANCH  11  12
ATOM     12  C   LIG    1       31.478 -16.212  11.673  0.00  0.00    +0.227 C 
ATOM     13  O   LIG    1       30.306 -16.388  11.379  0.00  0.00    -0.274 OA
ATOM     14  N   LIG    1       31.801 -15.623  12.863  0.00  0.00    -0.328 N 
ATOM     15  H   LIG    1       31.029 -15.294  13.429  0.00  0.00    +0.145 HD
ATOM     16  H   LIG    1       32.709 -15.189  12.968  0.00  0.00    +0.145 HD
ENDBRANCH  11  12
ENDBRANCH   8  11
ENDBRANCH   7   8
ENDBRANCH   1   7
BRANCH   4  17
ATOM     17  O   LIG    1       27.946 -21.542   6.870  0.00  0.00    -0.487 OA
BRANCH  17  18
ATOM     18  C   LIG    1       26.758 -21.553   7.667  0.00  0.00    +0.264 C 
BRANCH  18  19
ATOM     19  C   LIG    1       25.575 -21.064   6.865  0.00  0.00    -0.008 A 
ATOM     20  C   LIG    1       25.749 -20.635   5.541  0.00  0.00    +0.045 A 
ATOM     21  C   LIG    1       24.654 -20.212   4.796  0.00  0.00    +0.124 A 
ATOM     22  F   LIG    1       24.832 -19.818   3.527  0.00  0.00    -0.205 F 
ATOM     23  C   LIG    1       23.377 -20.201   5.343  0.00  0.00    +0.038 A 
ATOM     24  C   LIG    1       23.192 -20.622   6.659  0.00  0.00    +0.003 A 
ATOM     25  C   LIG    1       24.286 -21.048   7.418  0.00  0.00    +0.007 A 
ENDBRANCH  18  19
ENDBRANCH  17  18
ENDBRANCH   4  17
TORSDOF 7
ENDMDL
MODEL 3
REMARK VINA RESULT:      -9.1      2.675      4.438
REMARK  Name = *****
REMARK                            x       y       z     vdW  Elec       q    Type
REMARK                         _______ _______ _______ _____ _____    ______ ____
ROOT
ATOM      1  C   LIG    1       30.947 -18.976   8.176  0.00  0.00    -0.033 A 
ATOM      2  C   LIG    1       30.009 -18.511   7.244  0.00  0.00    +0.008 A 
ATOM      3  C   LIG    1       28.994 -19.345   6.760  0.00  0.00    +0.046 A 
ATOM      4  C   LIG    1       28.915 -20.675   7.172  0.00  0.00    +0.121 A 
ATOM      5  C   LIG    1       29.830 -21.144   8.116  0.00  0.00    +0.046 A 
ATOM      6  C   LIG    1       30.837 -20.303   8.618  0.00  0.00    +0.008 A 
ENDROOT
BRANCH   1   7
ATOM      7  C   LIG    1       32.017 -18.040   8.702  0.00  0.00    +0.117 C 
BRANCH   7   8
ATOM      8  N   LIG    1       32.239 -18.081  10.156  0.00  0.00    -0.302 NA
ATOM      9  H   LIG    1       33.010 -18.727  10.327  0.00  0.00    +0.123 HD
BRANCH   8  11
ATOM     10  C   LIG    1       32.970 -15.661   9.791  0.00  0.00    +0.033 C 
ATOM     11  C   LIG    1       32.604 -16.777  10.772  0.00  0.00    +0.137 C 
BRANCH  11  12
ATOM     12  C   LIG    1       31.435 -16.227  11.625  0.00  0.00    +0.227 C 
ATOM     13  O   LIG    1       30.262 -16.392  11.329  0.00  0.00    -0.274 OA
ATOM     14  N   LIG    1       31.760 -15.626  12.809  0.00  0.00    -0.328 N 
ATOM     15  H   LIG    1       30.991 -15.281  13.368  0.00  0.00    +0.145 HD
ATOM     16  H   LIG    1       32.673 -15.202  12.911  0.00  0.00    +0.145 HD
ENDBRANCH  11  12
ENDBRANCH   8  11
ENDBRANCH   7   8
ENDBRANCH   1   7
BRANCH   4  17
ATOM     17  O   LIG    1       27.971 -21.573   6.735  0.00  0.00    -0.487 OA
BRANCH  17  18
ATOM     18  C   LIG    1       27.099 -22.065   7.757  0.00  0.00    +0.264 C 
BRANCH  18  19
ATOM     19  C   LIG    1       25.658 -21.971   7.316  0.00  0.00    -0.008 A 
ATOM     20  C   LIG    1       24.855 -23.120   7.279  0.00  0.00    +0.045 A 
ATOM     21  C   LIG    1       23.520 -23.027   6.900  0.00  0.00    +0.124 A 
ATOM     22  F   LIG    1       22.761 -24.130   6.881  0.00  0.00    -0.205 F 
ATOM     23  C   LIG    1       22.960 -21.805   6.549  0.00  0.00    +0.038 A 
ATOM     24  C   LIG    1       23.748 -20.655   6.580  0.00  0.00    +0.003 A 
ATOM     25  C   LIG    1       25.091 -20.738   6.958  0.00  0.00    +0.007 A 
ENDBRANCH  18  19
ENDBRANCH  17  18
ENDBRANCH   4  17
TORSDOF 7
ENDMDL
MODEL 4
REMARK VINA RESULT:      -9.0      3.223      4.380
REMARK  Name = *****
REMARK                            x       y       z     vdW  Elec       q    Type
REMARK                         _______ _______ _______ _____ _____    ______ ____
ROOT
ATOM      1  C   LIG    1       30.119 -19.727   7.130  0.00  0.00    -0.033 A 
ATOM      2  C   LIG    1       29.473 -19.185   6.010  0.00  0.00    +0.008 A 
ATOM      3  C   LIG    1       28.125 -19.457   5.750  0.00  0.00    +0.046 A 
ATOM      4  C   LIG    1       27.400 -20.306   6.586  0.00  0.00    +0.121 A 
ATOM      5  C   LIG    1       28.026 -20.835   7.716  0.00  0.00    +0.046 A 
ATOM      6  C   LIG    1       29.374 -20.546   7.990  0.00  0.00    +0.008 A 
ENDROOT
BRANCH   1   7
ATOM      7  C   LIG    1       31.572 -19.391   7.400  0.00  0.00    +0.117 C 
BRANCH   7   8
ATOM      8  N   LIG    1       31.887 -18.989   8.780  0.00  0.00    -0.302 NA
ATOM      9  H   LIG    1       32.903 -18.992   8.872  0.00  0.00    +0.123 HD
BRANCH   8  11
ATOM     10  C   LIG    1       30.121 -17.597   9.991  0.00  0.00    +0.033 C 
ATOM     11  C   LIG    1       31.408 -17.634   9.165  0.00  0.00    +0.137 C 
BRANCH  11  12
ATOM     12  C   LIG    1       32.476 -16.894  10.008  0.00  0.00    +0.227 C 
ATOM     13  O   LIG    1       32.899 -17.324  11.070  0.00  0.00    -0.274 OA
ATOM     14  N   LIG    1       33.025 -15.768   9.462  0.00  0.00    -0.328 N 
ATOM     15  H   LIG    1       33.731 -15.297  10.011  0.00  0.00    +0.145 HD
ATOM     16  H   LIG    1       32.490 -15.237   8.787  0.00  0.00    +0.145 HD
ENDBRANCH  11  12
ENDBRANCH   8  11
ENDBRANCH   7   8
ENDBRANCH   1   7
BRANCH   4  17
ATOM     17  O   LIG    1       26.084 -20.649   6.397  0.00  0.00    -0.487 OA
BRANCH  17  18
ATOM     18  C   LIG    1       25.477 -21.314   7.510  0.00  0.00    +0.264 C 
BRANCH  18  19
ATOM     19  C   LIG    1       24.977 -22.680   7.105  0.00  0.00    -0.008 A 
ATOM     20  C   LIG    1       25.881 -23.738   6.926  0.00  0.00    +0.045 A 
ATOM     21  C   LIG    1       25.415 -25.002   6.581  0.00  0.00    +0.124 A 
ATOM     22  F   LIG    1       26.287 -26.007   6.426  0.00  0.00    -0.205 F 
ATOM     23  C   LIG    1       24.058 -25.240   6.403  0.00  0.00    +0.038 A 
ATOM     24  C   LIG    1       23.150 -24.197   6.576  0.00  0.00    +0.003 A 
ATOM     25  C   LIG    1       23.608 -22.922   6.922  0.00  0.00    +0.007 A 
ENDBRANCH  18  19
ENDBRANCH  17  18
ENDBRANCH   4  17
TORSDOF 7
ENDMDL
MODEL 5
REMARK VINA RESULT:      -8.9      1.169      1.556
REMARK  Name = *****
REMARK                            x       y       z     vdW  Elec       q    Type
REMARK                         _______ _______ _______ _____ _____    ______ ____
ROOT
ATOM      1  C   LIG    1       27.577 -21.559   7.651  0.00  0.00    -0.033 A 
ATOM      2  C   LIG    1       26.803 -20.473   8.082  0.00  0.00    +0.008 A 
ATOM      3  C   LIG    1       25.406 -20.549   8.121  0.00  0.00    +0.046 A 
ATOM      4  C   LIG    1       24.749 -21.703   7.697  0.00  0.00    +0.121 A 
ATOM      5  C   LIG    1       25.509 -22.800   7.285  0.00  0.00    +0.046 A 
ATOM      6  C   LIG    1       26.912 -22.732   7.266  0.00  0.00    +0.008 A 
ENDROOT
BRANCH   1   7
ATOM      7  C   LIG    1       29.089 -21.455   7.648  0.00  0.00    +0.117 C 
BRANCH   7   8
ATOM      8  N   LIG    1       29.667 -20.533   8.637  0.00  0.00    -0.302 NA
ATOM      9  H   LIG    1       29.925 -21.087   9.454  0.00  0.00    +0.123 HD
BRANCH   8  11
ATOM     10  C   LIG    1       30.836 -19.250   6.763  0.00  0.00    +0.033 C 
ATOM     11  C   LIG    1       30.887 -19.811   8.185  0.00  0.00    +0.137 C 
BRANCH  11  12
ATOM     12  C   LIG    1       31.183 -18.603   9.108  0.00  0.00    +0.227 C 
ATOM     13  O   LIG    1       32.192 -18.521   9.792  0.00  0.00    -0.274 OA
ATOM     14  N   LIG    1       30.310 -17.553   9.053  0.00  0.00    -0.328 N 
ATOM     15  H   LIG    1       30.516 -16.762   9.648  0.00  0.00    +0.145 HD
ATOM     16  H   LIG    1       29.354 -17.723   8.772  0.00  0.00    +0.145 HD
ENDBRANCH  11  12
ENDBRANCH   8  11
ENDBRANCH   7   8
ENDBRANCH   1   7
BRANCH   4  17
ATOM     17  O   LIG    1       23.384 -21.862   7.676  0.00  0.00    -0.487 OA
BRANCH  17  18
ATOM     18  C   LIG    1       22.835 -22.123   6.381  0.00  0.00    +0.264 C 
BRANCH  18  19
ATOM     19  C   LIG    1       23.103 -20.967   5.446  0.00  0.00    -0.008 A 
ATOM     20  C   LIG    1       24.091 -21.073   4.458  0.00  0.00    +0.045 A 
ATOM     21  C   LIG    1       24.315 -20.017   3.580  0.00  0.00    +0.124 A 
ATOM     22  F   LIG    1       25.254 -20.136   2.631  0.00  0.00    -0.205 F 
ATOM     23  C   LIG    1       23.575 -18.845   3.667  0.00  0.00    +0.038 A 
ATOM     24  C   LIG    1       22.592 -18.727   4.648  0.00  0.00    +0.003 A 
ATOM     25  C   LIG    1       22.358 -19.781   5.535  0.00  0.00    +0.007 A 
ENDBRANCH  18  19
ENDBRANCH  17  18
ENDBRANCH   4  17
TORSDOF 7
ENDMDL
MODEL 6
REMARK VINA RESULT:      -8.8      4.906      7.179
REMARK  Name = *****
REMARK                            x       y       z     vdW  Elec       q    Type
REMARK                         _______ _______ _______ _____ _____    ______ ____
ROOT
ATOM      1  C   LIG    1       25.023 -26.130   6.045  0.00  0.00    -0.033 A 
ATOM      2  C   LIG    1       23.744 -25.567   6.150  0.00  0.00    +0.008 A 
ATOM      3  C   LIG    1       23.567 -24.250   6.586  0.00  0.00    +0.046 A 
ATOM      4  C   LIG    1       24.663 -23.475   6.962  0.00  0.00    +0.121 A 
ATOM      5  C   LIG    1       25.944 -24.017   6.842  0.00  0.00    +0.046 A 
ATOM      6  C   LIG    1       26.126 -25.332   6.383  0.00  0.00    +0.008 A 
ENDROOT
BRANCH   1   7
ATOM      7  C   LIG    1       25.185 -27.550   5.541  0.00  0.00    +0.117 C 
BRANCH   7   8
ATOM      8  N   LIG    1       23.983 -28.394   5.616  0.00  0.00    -0.302 NA
ATOM      9  H   LIG    1       23.578 -28.428   4.680  0.00  0.00    +0.123 HD
BRANCH   8  11
ATOM     10  C   LIG    1       25.406 -30.502   5.376  0.00  0.00    +0.033 C 
ATOM     11  C   LIG    1       24.225 -29.797   6.048  0.00  0.00    +0.137 C 
BRANCH  11  12
ATOM     12  C   LIG    1       24.503 -29.862   7.570  0.00  0.00    +0.227 C 
ATOM     13  O   LIG    1       23.613 -29.895   8.406  0.00  0.00    -0.274 OA
ATOM     14  N   LIG    1       25.806 -29.992   7.958  0.00  0.00    -0.328 N 
ATOM     15  H   LIG    1       25.979 -30.047   8.953  0.00  0.00    +0.145 HD
ATOM     16  H   LIG    1       26.537 -29.650   7.348  0.00  0.00    +0.145 HD
ENDBRANCH  11  12
ENDBRANCH   8  11
ENDBRANCH   7   8
ENDBRANCH   1   7
BRANCH   4  17
ATOM     17  O   LIG    1       24.585 -22.184   7.425  0.00  0.00    -0.487 OA
BRANCH  17  18
ATOM     18  C   LIG    1       23.360 -21.513   7.115  0.00  0.00    +0.264 C 
BRANCH  18  19
ATOM     19  C   LIG    1       23.533 -20.616   5.913  0.00  0.00    -0.008 A 
ATOM     20  C   LIG    1       22.495 -19.761   5.514  0.00  0.00    +0.045 A 
ATOM     21  C   LIG    1       22.669 -18.916   4.424  0.00  0.00    +0.124 A 
ATOM     22  F   LIG    1       21.674 -18.094   4.061  0.00  0.00    -0.205 F 
ATOM     23  C   LIG    1       23.861 -18.902   3.711  0.00  0.00    +0.038 A 
ATOM     24  C   LIG    1       24.899 -19.749   4.096  0.00  0.00    +0.003 A 
ATOM     25  C   LIG    1       24.735 -20.604   5.190  0.00  0.00    +0.007 A 
ENDBRANCH  18  19
ENDBRANCH  17  18
ENDBRANCH   4  17
TORSDOF 7
ENDMDL
MODEL 7
REMARK VINA RESULT:      -8.6      1.292      2.054
REMARK  Name = *****
REMARK                            x       y       z     vdW  Elec       q    Type
REMARK                         _______ _______ _______ _____ _____    ______ ____
ROOT
ATOM      1  C   LIG    1       27.424 -21.665   8.003  0.00  0.00    -0.033 A 
ATOM      2  C   LIG    1       26.816 -22.792   7.433  0.00  0.00    +0.008 A 
ATOM      3  C   LIG    1       25.430 -22.850   7.246  0.00  0.00    +0.046 A 
ATOM      4  C   LIG    1       24.616 -21.795   7.658  0.00  0.00    +0.121 A 
ATOM      5  C   LIG    1       25.212 -20.659   8.209  0.00  0.00    +0.046 A 
ATOM      6  C   LIG    1       26.605 -20.590   8.377  0.00  0.00    +0.008 A 
ENDROOT
BRANCH   1   7
ATOM      7  C   LIG    1       28.931 -21.620   8.165  0.00  0.00    +0.117 C 
BRANCH   7   8
ATOM      8  N   LIG    1       29.658 -20.838   7.152  0.00  0.00    -0.302 NA
ATOM      9  H   LIG    1       29.405 -21.216   6.239  0.00  0.00    +0.123 HD
BRANCH   8  11
ATOM     10  C   LIG    1       30.474 -18.458   7.587  0.00  0.00    +0.033 C 
ATOM     11  C   LIG    1       29.343 -19.384   7.136  0.00  0.00    +0.137 C 
BRANCH  11  12
ATOM     12  C   LIG    1       28.958 -18.922   5.709  0.00  0.00    +0.227 C 
ATOM     13  O   LIG    1       29.556 -18.041   5.113  0.00  0.00    -0.274 OA
ATOM     14  N   LIG    1       27.969 -19.623   5.077  0.00  0.00    -0.328 N 
ATOM     15  H   LIG    1       27.732 -19.325   4.140  0.00  0.00    +0.145 HD
ATOM     16  H   LIG    1       27.274 -20.103   5.633  0.00  0.00    +0.145 HD
ENDBRANCH  11  12
ENDBRANCH   8  11
ENDBRANCH   7   8
ENDBRANCH   1   7
BRANCH   4  17
ATOM     17  O   LIG    1       23.248 -21.773   7.539  0.00  0.00    -0.487 OA
BRANCH  17  18
ATOM     18  C   LIG    1       22.760 -22.054   6.224  0.00  0.00    +0.264 C 
BRANCH  18  19
ATOM     19  C   LIG    1       23.089 -20.920   5.281  0.00  0.00    -0.008 A 
ATOM     20  C   LIG    1       22.374 -19.716   5.350  0.00  0.00    +0.045 A 
ATOM     21  C   LIG    1       22.698 -18.664   4.500  0.00  0.00    +0.124 A 
ATOM     22  F   LIG    1       22.016 -17.513   4.584  0.00  0.00    -0.205 F 
ATOM     23  C   LIG    1       23.724 -18.785   3.570  0.00  0.00    +0.038 A 
ATOM     24  C   LIG    1       24.440 -19.978   3.491  0.00  0.00    +0.003 A 
ATOM     25  C   LIG    1       24.122 -21.042   4.340  0.00  0.00    +0.007 A 
ENDBRANCH  18  19
ENDBRANCH  17  18
ENDBRANCH   4  17
TORSDOF 7
ENDMDL
MODEL 8
REMARK VINA RESULT:      -8.5      3.421      4.612
REMARK  Name = *****
REMARK                            x       y       z     vdW  Elec       q    Type
REMARK                         _______ _______ _______ _____ _____    ______ ____
ROOT
ATOM      1  C   LIG    1       28.298 -20.115   6.436  0.00  0.00    -0.033 A 
ATOM      2  C   LIG    1       27.136 -19.985   5.664  0.00  0.00    +0.008 A 
ATOM      3  C   LIG    1       26.006 -20.770   5.918  0.00  0.00    +0.046 A 
ATOM      4  C   LIG    1       26.024 -21.730   6.929  0.00  0.00    +0.121 A 
ATOM      5  C   LIG    1       27.169 -21.856   7.719  0.00  0.00    +0.046 A 
ATOM      6  C   LIG    1       28.296 -21.053   7.479  0.00  0.00    +0.008 A 
ENDROOT
BRANCH   1   7
ATOM      7  C   LIG    1       29.496 -19.230   6.156  0.00  0.00    +0.117 C 
BRANCH   7   8
ATOM      8  N   LIG    1       30.782 -19.712   6.682  0.00  0.00    -0.302 NA
ATOM      9  H   LIG    1       31.470 -19.617   5.934  0.00  0.00    +0.123 HD
BRANCH   8  11
ATOM     10  C   LIG    1       30.500 -17.721   8.257  0.00  0.00    +0.033 C 
ATOM     11  C   LIG    1       31.299 -18.964   7.861  0.00  0.00    +0.137 C 
BRANCH  11  12
ATOM     12  C   LIG    1       31.326 -19.871   9.116  0.00  0.00    +0.227 C 
ATOM     13  O   LIG    1       30.834 -19.541  10.184  0.00  0.00    -0.274 OA
ATOM     14  N   LIG    1       31.835 -21.129   8.960  0.00  0.00    -0.328 N 
ATOM     15  H   LIG    1       31.838 -21.721   9.780  0.00  0.00    +0.145 HD
ATOM     16  H   LIG    1       32.512 -21.299   8.227  0.00  0.00    +0.145 HD
ENDBRANCH  11  12
ENDBRANCH   8  11
ENDBRANCH   7   8
ENDBRANCH   1   7
BRANCH   4  17
ATOM     17  O   LIG    1       24.975 -22.562   7.235  0.00  0.00    -0.487 OA
BRANCH  17  18
ATOM     18  C   LIG    1       24.385 -23.216   6.107  0.00  0.00    +0.264 C 
BRANCH  18  19
ATOM     19  C   LIG    1       24.972 -24.595   5.925  0.00  0.00    -0.008 A 
ATOM     20  C   LIG    1       25.426 -25.321   7.035  0.00  0.00    +0.045 A 
ATOM     21  C   LIG    1       25.940 -26.603   6.868  0.00  0.00    +0.124 A 
ATOM     22  F   LIG    1       26.358 -27.291   7.939  0.00  0.00    -0.205 F 
ATOM     23  C   LIG    1       26.018 -27.183   5.608  0.00  0.00    +0.038 A 
ATOM     24  C   LIG    1       25.572 -26.470   4.496  0.00  0.00    +0.003 A 
ATOM     25  C   LIG    1       25.055 -25.181   4.653  0.00  0.00    +0.007 A 
ENDBRANCH  18  19
ENDBRANCH  17  18
ENDBRANCH   4  17
TORSDOF 7
ENDMDL
MODEL 9
REMARK VINA RESULT:      -8.4      5.270      7.682
REMARK  Name = *****
REMARK                            x       y       z     vdW  Elec       q    Type
REMARK                         _______ _______ _______ _____ _____    ______ ____
ROOT
ATOM      1  C   LIG    1       24.902 -26.047   6.058  0.00  0.00    -0.033 A 
ATOM      2  C   LIG    1       23.655 -25.416   6.162  0.00  0.00    +0.008 A 
ATOM      3  C   LIG    1       23.546 -24.103   6.634  0.00  0.00    +0.046 A 
ATOM      4  C   LIG    1       24.679 -23.402   7.047  0.00  0.00    +0.121 A 
ATOM      5  C   LIG    1       25.929 -24.013   6.929  0.00  0.00    +0.046 A 
ATOM      6  C   LIG    1       26.043 -25.323   6.435  0.00  0.00    +0.008 A 
ENDROOT
BRANCH   1   7
ATOM      7  C   LIG    1       24.991 -27.460   5.516  0.00  0.00    +0.117 C 
BRANCH   7   8
ATOM      8  N   LIG    1       24.038 -28.424   6.088  0.00  0.00    -0.302 NA
ATOM      9  H   LIG    1       23.477 -28.787   5.318  0.00  0.00    +0.123 HD
BRANCH   8  11
ATOM     10  C   LIG    1       24.198 -29.828   8.216  0.00  0.00    +0.033 C 
ATOM     11  C   LIG    1       24.659 -29.587   6.777  0.00  0.00    +0.137 C 
BRANCH  11  12
ATOM     12  C   LIG    1       24.363 -30.900   6.010  0.00  0.00    +0.227 C 
ATOM     13  O   LIG    1       23.382 -31.593   6.235  0.00  0.00    -0.274 OA
ATOM     14  N   LIG    1       25.195 -31.213   4.973  0.00  0.00    -0.328 N 
ATOM     15  H   LIG    1       24.989 -32.065   4.468  0.00  0.00    +0.145 HD
ATOM     16  H   LIG    1       26.144 -30.863   4.981  0.00  0.00    +0.145 HD
ENDBRANCH  11  12
ENDBRANCH   8  11
ENDBRANCH   7   8
ENDBRANCH   1   7
BRANCH   4  17
ATOM     17  O   LIG    1       24.667 -22.122   7.546  0.00  0.00    -0.487 OA
BRANCH  17  18
ATOM     18  C   LIG    1       23.451 -21.405   7.314  0.00  0.00    +0.264 C 
BRANCH  18  19
ATOM     19  C   LIG    1       23.556 -20.569   6.061  0.00  0.00    -0.008 A 
ATOM     20  C   LIG    1       24.729 -20.595   5.293  0.00  0.00    +0.045 A 
ATOM     21  C   LIG    1       24.813 -19.846   4.123  0.00  0.00    +0.124 A 
ATOM     22  F   LIG    1       25.934 -19.890   3.391  0.00  0.00    -0.205 F 
ATOM     23  C   LIG    1       23.748 -19.061   3.698  0.00  0.00    +0.038 A 
ATOM     24  C   LIG    1       22.578 -19.026   4.455  0.00  0.00    +0.003 A 
ATOM     25  C   LIG    1       22.483 -19.773   5.632  0.00  0.00    +0.007 A 
ENDBRANCH  18  19
ENDBRANCH  17  18
ENDBRANCH   4  17
TORSDOF 7
ENDMDL
