MODEL 1
REMARK VINA RESULT:       0.3      0.000      0.000
REMARK  Name = *****
REMARK                            x       y       z     vdW  Elec       q    Type
REMARK                         _______ _______ _______ _____ _____    ______ ____
ROOT
ATOM      1  N   LIG    1       27.208 -18.306   4.651  0.00  0.00    -0.337 NA
ATOM      2  C   LIG    1       27.054 -19.497   5.370  0.00  0.00    +0.050 C 
ATOM      3  C   LIG    1       25.685 -19.728   5.519  0.00  0.00    +0.008 C 
ATOM      4  C   LIG    1       25.310 -20.753   6.428  0.00  0.00    +0.010 C 
ATOM      5  C   LIG    1       26.247 -21.571   7.056  0.00  0.00    +0.001 C 
ATOM      6  C   LIG    1       27.588 -21.392   6.798  0.00  0.00    +0.002 C 
ATOM      7  C   LIG    1       24.981 -18.828   4.623  0.00  0.00    +0.015 C 
ATOM      8  C   LIG    1       28.009 -20.360   5.957  0.00  0.00    +0.026 C 
ATOM      9  C   LIG    1       25.963 -17.967   4.070  0.00  0.00    +0.051 C 
ENDROOT
BRANCH   7  10
ATOM     10  C   LIG    1       23.516 -18.821   4.294  0.00  0.00    -0.015 C 
ATOM     11  C   LIG    1       22.727 -19.991   4.347  0.00  0.00    +0.011 C 
ATOM     12  C   LIG    1       21.359 -20.010   4.039  0.00  0.00    +0.039 C 
ATOM     13  C   LIG    1       20.744 -18.850   3.623  0.00  0.00    +0.123 C 
ATOM     14  F   LIG    1       19.447 -18.862   3.294  0.00  0.00    -0.205 F 
ATOM     15  C   LIG    1       21.471 -17.680   3.528  0.00  0.00    +0.039 C 
ATOM     16  C   LIG    1       22.834 -17.675   3.861  0.00  0.00    +0.011 C 
ENDBRANCH   7  10
BRANCH   1  18
ATOM     17  C   LIG    1       28.540 -16.150   4.234  0.00  0.00    +0.030 C 
ATOM     18  C   LIG    1       28.531 -17.635   4.565  0.00  0.00    +0.082 C 
ATOM     19  C   LIG    1       29.435 -17.713   5.818  0.00  0.00    +0.030 C 
ENDBRANCH   1  18
BRANCH   9  20
ATOM     20  C   LIG    1       25.822 -16.825   3.202  0.00  0.00    +0.025 C 
ATOM     21  C   LIG    1       25.503 -15.585   3.622  0.00  0.00    +0.006 C 
BRANCH  21  22
ATOM     22  C   LIG    1       25.116 -14.381   2.770  0.00  0.00    +0.140 C 
BRANCH  22  23
ATOM     23  O   LIG    1       23.712 -14.139   2.936  0.00  0.00    -0.388 OA
ATOM     24  H   LIG    1       23.603 -13.393   3.553  0.00  0.00    +0.210 HD
ENDBRANCH  22  23
BRANCH  22  25
ATOM     25  C   LIG    1       25.853 -13.028   3.027  0.00  0.00    +0.067 C 
BRANCH  25  26
ATOM     26  C   LIG    1       26.199 -12.596   4.482  0.00  0.00    +0.128 C 
BRANCH  26  27
ATOM     27  O   LIG    1       25.126 -13.108   5.290  0.00  0.00    -0.391 OA
ATOM     28  H   LIG    1       24.820 -13.951   4.903  0.00  0.00    +0.210 HD
ENDBRANCH  26  27
BRANCH  26  29
ATOM     29  C   LIG    1       27.520 -13.121   5.040  0.00  0.00    +0.151 C 
BRANCH  29  30
ATOM     30  C   LIG    1       28.779 -12.663   4.379  0.00  0.00    +0.307 C 
ATOM     31  O   LIG    1       29.336 -13.227   3.406  0.00  0.00    -0.251 OA
BRANCH  30  32
ATOM     32  O   LIG    1       29.407 -11.683   5.040  0.00  0.00    -0.481 OA
ATOM     33  H   LIG    1       29.244 -10.885   4.492  0.00  0.00    +0.295 HD
ENDBRANCH  30  32
ENDBRANCH  29  30
ENDBRANCH  26  29
ENDBRANCH  25  26
ENDBRANCH  22  25
ENDBRANCH  21  22
ENDBRANCH   9  20
TORSDOF 11
ENDMDL
MODEL 2
REMARK VINA RESULT:       2.9      1.536      2.010
REMARK  Name = *****
REMARK                            x       y       z     vdW  Elec       q    Type
REMARK                         _______ _______ _______ _____ _____    ______ ____
ROOT
ATOM      1  N   LIG    1       27.630 -18.182   4.683  0.00  0.00    -0.337 NA
ATOM      2  C   LIG    1       28.052 -19.329   5.364  0.00  0.00    +0.050 C 
ATOM      3  C   LIG    1       26.914 -20.069   5.694  0.00  0.00    +0.008 C 
ATOM      4  C   LIG    1       27.098 -21.146   6.601  0.00  0.00    +0.010 C 
ATOM      5  C   LIG    1       28.359 -21.530   7.055  0.00  0.00    +0.001 C 
ATOM      6  C   LIG    1       29.475 -20.850   6.620  0.00  0.00    +0.002 C 
ATOM      7  C   LIG    1       25.796 -19.523   4.945  0.00  0.00    +0.015 C 
ATOM      8  C   LIG    1       29.339 -19.749   5.774  0.00  0.00    +0.026 C 
ATOM      9  C   LIG    1       26.280 -18.358   4.297  0.00  0.00    +0.051 C 
ENDROOT
BRANCH   7  10
ATOM     10  C   LIG    1       24.409 -20.088   4.825  0.00  0.00    -0.015 C 
ATOM     11  C   LIG    1       23.747 -20.201   3.584  0.00  0.00    +0.011 C 
ATOM     12  C   LIG    1       22.451 -20.720   3.449  0.00  0.00    +0.039 C 
ATOM     13  C   LIG    1       21.757 -21.105   4.574  0.00  0.00    +0.123 C 
ATOM     14  F   LIG    1       20.507 -21.571   4.462  0.00  0.00    -0.205 F 
ATOM     15  C   LIG    1       22.345 -20.994   5.818  0.00  0.00    +0.039 C 
ATOM     16  C   LIG    1       23.650 -20.493   5.933  0.00  0.00    +0.011 C 
ENDBRANCH   7  10
BRANCH   1  18
ATOM     17  C   LIG    1       28.090 -15.935   3.526  0.00  0.00    +0.030 C 
ATOM     18  C   LIG    1       28.566 -17.054   4.441  0.00  0.00    +0.082 C 
ATOM     19  C   LIG    1       29.071 -16.287   5.686  0.00  0.00    +0.030 C 
ENDBRANCH   1  18
BRANCH   9  20
ATOM     20  C   LIG    1       25.586 -17.372   3.508  0.00  0.00    +0.025 C 
ATOM     21  C   LIG    1       25.080 -16.224   3.998  0.00  0.00    +0.006 C 
BRANCH  21  22
ATOM     22  C   LIG    1       24.148 -15.240   3.299  0.00  0.00    +0.140 C 
BRANCH  22  23
ATOM     23  O   LIG    1       23.240 -14.704   4.272  0.00  0.00    -0.388 OA
ATOM     24  H   LIG    1       23.496 -13.782   4.452  0.00  0.00    +0.210 HD
ENDBRANCH  22  23
BRANCH  22  25
ATOM     25  C   LIG    1       24.785 -14.030   2.544  0.00  0.00    +0.067 C 
BRANCH  25  26
ATOM     26  C   LIG    1       26.087 -13.372   3.089  0.00  0.00    +0.128 C 
BRANCH  26  27
ATOM     27  O   LIG    1       26.382 -12.308   2.169  0.00  0.00    -0.391 OA
ATOM     28  H   LIG    1       25.544 -11.989   1.783  0.00  0.00    +0.210 HD
ENDBRANCH  26  27
BRANCH  26  29
ATOM     29  C   LIG    1       26.003 -12.787   4.496  0.00  0.00    +0.151 C 
BRANCH  29  30
ATOM     30  C   LIG    1       27.130 -13.079   5.434  0.00  0.00    +0.307 C 
ATOM     31  O   LIG    1       28.349 -13.019   5.145  0.00  0.00    -0.251 OA
BRANCH  30  32
ATOM     32  O   LIG    1       26.736 -13.619   6.593  0.00  0.00    -0.481 OA
ATOM     33  H   LIG    1       26.876 -14.583   6.464  0.00  0.00    +0.295 HD
ENDBRANCH  30  32
ENDBRANCH  29  30
ENDBRANCH  26  29
ENDBRANCH  25  26
ENDBRANCH  22  25
ENDBRANCH  21  22
ENDBRANCH   9  20
TORSDOF 11
ENDMDL
