MODEL 1
REMARK VINA RESULT:      24.3      0.000      0.000
REMARK  Name = *****
REMARK                            x       y       z     vdW  Elec       q    Type
REMARK                         _______ _______ _______ _____ _____    ______ ____
ROOT
ATOM      1  C   LIG    1       28.232 -11.966   4.512  0.00  0.00    +0.073 C 
ATOM      2  C   LIG    1       27.535 -13.320   4.611  0.00  0.00    +0.166 C 
ATOM      3  O   LIG    1       26.126 -13.124   4.697  0.00  0.00    -0.332 OA
ATOM      4  C   LIG    1       25.558 -13.414   3.416  0.00  0.00    +0.163 C 
ATOM      5  C   LIG    1       26.693 -14.100   2.620  0.00  0.00    +0.162 C 
ATOM      6  C   LIG    1       26.274 -15.560   2.392  0.00  0.00    +0.039 C 
ATOM      7  C   LIG    1       25.291 -15.799   3.529  0.00  0.00    +0.007 C 
ATOM      8  C   LIG    1       24.472 -17.098   3.535  0.00  0.00    +0.034 C 
ATOM      9  C   LIG    1       23.542 -17.125   4.786  0.00  0.00    +0.149 C 
ATOM     10  C   LIG    1       22.762 -15.786   4.974  0.00  0.00    +0.153 C 
ATOM     11  C   LIG    1       23.645 -14.525   4.855  0.00  0.00    +0.044 C 
ATOM     12  F   LIG    1       24.402 -17.193   5.870  0.00  0.00    -0.238 F 
ATOM     13  C   LIG    1       22.642 -18.439   4.810  0.00  0.00    +0.026 C 
ATOM     14  C   LIG    1       23.381 -19.603   4.127  0.00  0.00    -0.057 C 
ATOM     15  C   LIG    1       22.767 -20.578   3.434  0.00  0.00    +0.046 C 
ATOM     16  C   LIG    1       21.294 -20.619   3.285  0.00  0.00    +0.156 C 
ATOM     17  C   LIG    1       20.480 -19.503   3.889  0.00  0.00    +0.080 C 
ATOM     18  O   LIG    1       20.774 -21.572   2.714  0.00  0.00    -0.293 OA
ATOM     19  C   LIG    1       24.878 -19.558   4.221  0.00  0.00    +0.032 C 
ATOM     20  C   LIG    1       22.349 -18.863   6.269  0.00  0.00    +0.019 C 
ATOM     21  C   LIG    1       21.303 -18.227   4.054  0.00  0.00    +0.022 C 
ATOM     22  C   LIG    1       25.421 -18.323   3.506  0.00  0.00    +0.011 C 
ATOM     23  C   LIG    1       24.439 -14.506   3.536  0.00  0.00    +0.012 C 
ATOM     24  C   LIG    1       23.462 -14.437   2.333  0.00  0.00    +0.015 C 
ATOM     25  O   LIG    1       27.852 -14.086   3.458  0.00  0.00    -0.343 OA
ATOM     26  C   LIG    1       27.997 -14.068   5.855  0.00  0.00    +0.073 C 
ENDROOT
BRANCH  10  27
ATOM     27  O   LIG    1       22.126 -15.746   6.253  0.00  0.00    -0.389 OA
ATOM     28  H   LIG    1       22.818 -15.517   6.903  0.00  0.00    +0.210 HD
ENDBRANCH  10  27
BRANCH   4  29
ATOM     29  C   LIG    1       25.124 -12.102   2.734  0.00  0.00    +0.182 C 
ATOM     30  O   LIG    1       25.782 -11.607   1.813  0.00  0.00    -0.293 OA
BRANCH  29  31
ATOM     31  C   LIG    1       23.841 -11.448   3.199  0.00  0.00    +0.186 C 
ATOM     32 CL   LIG    1       23.724 -11.550   4.963  0.00  0.00    -0.117 Cl
ENDBRANCH  29  31
ENDBRANCH   4  29
TORSDOF 3
ENDMDL
