MODEL 1
REMARK VINA RESULT:      -7.2      0.000      0.000
REMARK  Name = *****
REMARK                            x       y       z     vdW  Elec       q    Type
REMARK                         _______ _______ _______ _____ _____    ______ ____
ROOT
ATOM      1  C   LIG    1       26.202 -19.575   4.200  0.00  0.00    +0.054 C 
ENDROOT
BRANCH   1   3
ATOM      2  C   LIG    1       26.717 -20.968   6.334  0.00  0.00    +0.135 A 
ATOM      3  C   LIG    1       27.061 -19.945   5.425  0.00  0.00    +0.003 A 
ATOM      4  C   LIG    1       28.252 -19.249   5.697  0.00  0.00    +0.013 A 
ATOM      5  C   LIG    1       29.151 -19.612   6.709  0.00  0.00    -0.022 A 
ATOM      6  C   LIG    1       28.810 -20.672   7.543  0.00  0.00    +0.009 A 
ATOM      7  C   LIG    1       27.586 -21.328   7.377  0.00  0.00    +0.047 A 
BRANCH   2   8
ATOM      8  O   LIG    1       25.531 -21.717   6.104  0.00  0.00    -0.425 OA
BRANCH   8   9
ATOM      9  C   LIG    1       24.691 -22.148   7.151  0.00  0.00    +0.315 C 
ATOM     10  O   LIG    1       24.361 -21.495   8.118  0.00  0.00    -0.250 OA
BRANCH   9  12
ATOM     11  C   LIG    1       22.719 -23.652   6.739  0.00  0.00    +0.019 C 
ATOM     12  C   LIG    1       24.240 -23.582   6.865  0.00  0.00    +0.092 C 
ATOM     13  C   LIG    1       24.889 -24.113   5.584  0.00  0.00    +0.019 C 
ENDBRANCH   9  12
ENDBRANCH   8   9
ENDBRANCH   2   8
BRANCH   5  14
ATOM     14  C   LIG    1       30.442 -18.845   6.855  0.00  0.00    +0.191 C 
BRANCH  14  15
ATOM     15  O   LIG    1       31.585 -19.691   6.865  0.00  0.00    -0.390 OA
ATOM     16  H   LIG    1       31.802 -19.911   7.785  0.00  0.00    +0.210 HD
ENDBRANCH  14  15
ENDBRANCH   5  14
ENDBRANCH   1   3
BRANCH   1  17
ATOM     17  C   LIG    1       24.716 -19.907   4.355  0.00  0.00    -0.040 A 
ATOM     18  C   LIG    1       24.143 -20.955   3.612  0.00  0.00    +0.004 A 
ATOM     19  C   LIG    1       22.802 -21.314   3.790  0.00  0.00    +0.000 A 
ATOM     20  C   LIG    1       22.004 -20.613   4.690  0.00  0.00    +0.000 A 
ATOM     21  C   LIG    1       22.540 -19.540   5.394  0.00  0.00    +0.000 A 
ATOM     22  C   LIG    1       23.884 -19.194   5.231  0.00  0.00    +0.004 A 
ENDBRANCH   1  17
BRANCH   1  23
ATOM     23  C   LIG    1       26.468 -18.146   3.564  0.00  0.00    +0.028 C 
BRANCH  23  24
ATOM     24  C   LIG    1       25.277 -17.150   3.513  0.00  0.00    +0.086 C 
BRANCH  24  25
ATOM     25  N   LIG    1       25.479 -15.714   3.890  0.00  0.00    -0.297 NA
BRANCH  25  26
ATOM     26  C   LIG    1       24.156 -15.002   3.893  0.00  0.00    +0.051 C 
ATOM     27  C   LIG    1       24.121 -13.575   4.476  0.00  0.00    +0.024 C 
ATOM     28  C   LIG    1       22.946 -15.751   4.464  0.00  0.00    +0.024 C 
ENDBRANCH  25  26
BRANCH  25  29
ATOM     29  C   LIG    1       26.647 -15.085   3.224  0.00  0.00    +0.051 C 
ATOM     30  C   LIG    1       27.766 -14.539   4.131  0.00  0.00    +0.024 C 
ATOM     31  C   LIG    1       26.305 -13.965   2.239  0.00  0.00    +0.024 C 
ENDBRANCH  25  29
ENDBRANCH  24  25
ENDBRANCH  23  24
ENDBRANCH   1  23
TORSDOF 12
ENDMDL
MODEL 2
REMARK VINA RESULT:      -7.1      9.191     13.096
REMARK  Name = *****
REMARK                            x       y       z     vdW  Elec       q    Type
REMARK                         _______ _______ _______ _____ _____    ______ ____
ROOT
ATOM      1  C   LIG    1       25.554 -29.859   8.429  0.00  0.00    +0.054 C 
ENDROOT
BRANCH   1   3
ATOM      2  C   LIG    1       24.027 -31.962   8.393  0.00  0.00    +0.135 A 
ATOM      3  C   LIG    1       24.305 -30.657   8.851  0.00  0.00    +0.003 A 
ATOM      4  C   LIG    1       23.362 -30.094   9.730  0.00  0.00    +0.013 A 
ATOM      5  C   LIG    1       22.277 -30.802  10.263  0.00  0.00    -0.022 A 
ATOM      6  C   LIG    1       22.073 -32.112   9.841  0.00  0.00    +0.009 A 
ATOM      7  C   LIG    1       22.925 -32.681   8.888  0.00  0.00    +0.047 A 
BRANCH   2   8
ATOM      8  O   LIG    1       24.950 -32.590   7.514  0.00  0.00    -0.425 OA
BRANCH   8   9
ATOM      9  C   LIG    1       24.825 -32.528   6.111  0.00  0.00    +0.315 C 
ATOM     10  O   LIG    1       23.815 -32.733   5.473  0.00  0.00    -0.250 OA
BRANCH   9  12
ATOM     11  C   LIG    1       27.321 -32.651   6.386  0.00  0.00    +0.019 C 
ATOM     12  C   LIG    1       26.178 -32.138   5.511  0.00  0.00    +0.092 C 
ATOM     13  C   LIG    1       26.326 -32.693   4.092  0.00  0.00    +0.019 C 
ENDBRANCH   9  12
ENDBRANCH   8   9
ENDBRANCH   2   8
BRANCH   5  14
ATOM     14  C   LIG    1       21.377 -30.122  11.265  0.00  0.00    +0.191 C 
BRANCH  14  15
ATOM     15  O   LIG    1       20.002 -30.196  10.907  0.00  0.00    -0.390 OA
ATOM     16  H   LIG    1       19.824 -31.075  10.536  0.00  0.00    +0.210 HD
ENDBRANCH  14  15
ENDBRANCH   5  14
ENDBRANCH   1   3
BRANCH   1  17
ATOM     17  C   LIG    1       25.274 -28.756   7.405  0.00  0.00    -0.040 A 
ATOM     18  C   LIG    1       25.927 -27.514   7.505  0.00  0.00    +0.004 A 
ATOM     19  C   LIG    1       25.731 -26.519   6.541  0.00  0.00    +0.000 A 
ATOM     20  C   LIG    1       24.857 -26.735   5.479  0.00  0.00    +0.000 A 
ATOM     21  C   LIG    1       24.162 -27.937   5.395  0.00  0.00    +0.000 A 
ATOM     22  C   LIG    1       24.372 -28.939   6.346  0.00  0.00    +0.004 A 
ENDBRANCH   1  17
BRANCH   1  23
ATOM     23  C   LIG    1       26.523 -29.404   9.599  0.00  0.00    +0.028 C 
BRANCH  23  24
ATOM     24  C   LIG    1       26.606 -30.312  10.858  0.00  0.00    +0.086 C 
BRANCH  24  25
ATOM     25  N   LIG    1       26.194 -29.782  12.198  0.00  0.00    -0.297 NA
BRANCH  25  26
ATOM     26  C   LIG    1       25.479 -30.856  12.967  0.00  0.00    +0.051 C 
ATOM     27  C   LIG    1       26.046 -31.233  14.350  0.00  0.00    +0.024 C 
ATOM     28  C   LIG    1       25.167 -32.168  12.236  0.00  0.00    +0.024 C 
ENDBRANCH  25  26
BRANCH  25  29
ATOM     29  C   LIG    1       25.618 -28.414  12.143  0.00  0.00    +0.051 C 
ATOM     30  C   LIG    1       26.509 -27.255  12.627  0.00  0.00    +0.024 C 
ATOM     31  C   LIG    1       24.272 -28.251  12.851  0.00  0.00    +0.024 C 
ENDBRANCH  25  29
ENDBRANCH  24  25
ENDBRANCH  23  24
ENDBRANCH   1  23
TORSDOF 12
ENDMDL
MODEL 3
REMARK VINA RESULT:      -6.9      7.868     12.516
REMARK  Name = *****
REMARK                            x       y       z     vdW  Elec       q    Type
REMARK                         _______ _______ _______ _____ _____    ______ ____
ROOT
ATOM      1  C   LIG    1       25.363 -29.636   9.236  0.00  0.00    +0.054 C 
ENDROOT
BRANCH   1   3
ATOM      2  C   LIG    1       24.896 -29.507   6.681  0.00  0.00    +0.135 A 
ATOM      3  C   LIG    1       25.435 -30.183   7.796  0.00  0.00    +0.003 A 
ATOM      4  C   LIG    1       26.051 -31.420   7.534  0.00  0.00    +0.013 A 
ATOM      5  C   LIG    1       26.274 -31.918   6.244  0.00  0.00    -0.022 A 
ATOM      6  C   LIG    1       25.790 -31.189   5.162  0.00  0.00    +0.009 A 
ATOM      7  C   LIG    1       25.078 -30.005   5.380  0.00  0.00    +0.047 A 
BRANCH   2   8
ATOM      8  O   LIG    1       24.273 -28.246   6.881  0.00  0.00    -0.425 OA
BRANCH   8   9
ATOM      9  C   LIG    1       24.603 -27.107   6.119  0.00  0.00    +0.315 C 
ATOM     10  O   LIG    1       23.958 -26.649   5.201  0.00  0.00    -0.250 OA
BRANCH   9  12
ATOM     11  C   LIG    1       27.060 -26.802   5.681  0.00  0.00    +0.019 C 
ATOM     12  C   LIG    1       25.913 -26.519   6.650  0.00  0.00    +0.092 C 
ATOM     13  C   LIG    1       25.785 -25.010   6.871  0.00  0.00    +0.019 C 
ENDBRANCH   9  12
ENDBRANCH   8   9
ENDBRANCH   2   8
BRANCH   5  14
ATOM     14  C   LIG    1       27.023 -33.218   6.077  0.00  0.00    +0.191 C 
BRANCH  14  15
ATOM     15  O   LIG    1       27.488 -33.417   4.747  0.00  0.00    -0.390 OA
ATOM     16  H   LIG    1       26.722 -33.450   4.152  0.00  0.00    +0.210 HD
ENDBRANCH  14  15
ENDBRANCH   5  14
ENDBRANCH   1   3
BRANCH   1  17
ATOM     17  C   LIG    1       24.391 -30.393  10.144  0.00  0.00    -0.040 A 
ATOM     18  C   LIG    1       23.003 -30.292   9.936  0.00  0.00    +0.004 A 
ATOM     19  C   LIG    1       22.104 -31.029  10.716  0.00  0.00    +0.000 A 
ATOM     20  C   LIG    1       22.574 -31.854  11.734  0.00  0.00    +0.000 A 
ATOM     21  C   LIG    1       23.940 -31.924  11.988  0.00  0.00    +0.000 A 
ATOM     22  C   LIG    1       24.839 -31.204  11.197  0.00  0.00    +0.004 A 
ENDBRANCH   1  17
BRANCH   1  23
ATOM     23  C   LIG    1       26.751 -29.306   9.929  0.00  0.00    +0.028 C 
BRANCH  23  24
ATOM     24  C   LIG    1       26.842 -28.003  10.771  0.00  0.00    +0.086 C 
BRANCH  24  25
ATOM     25  N   LIG    1       27.212 -28.067  12.221  0.00  0.00    -0.297 NA
BRANCH  25  26
ATOM     26  C   LIG    1       27.803 -29.412  12.532  0.00  0.00    +0.051 C 
ATOM     27  C   LIG    1       27.295 -30.134  13.796  0.00  0.00    +0.024 C 
ATOM     28  C   LIG    1       29.331 -29.538  12.526  0.00  0.00    +0.024 C 
ENDBRANCH  25  26
BRANCH  25  29
ATOM     29  C   LIG    1       26.180 -27.495  13.122  0.00  0.00    +0.051 C 
ATOM     30  C   LIG    1       24.712 -27.863  12.836  0.00  0.00    +0.024 C 
ATOM     31  C   LIG    1       26.223 -25.973  13.271  0.00  0.00    +0.024 C 
ENDBRANCH  25  29
ENDBRANCH  24  25
ENDBRANCH  23  24
ENDBRANCH   1  23
TORSDOF 12
ENDMDL
MODEL 4
REMARK VINA RESULT:      -6.8      9.428     13.360
REMARK  Name = *****
REMARK                            x       y       z     vdW  Elec       q    Type
REMARK                         _______ _______ _______ _____ _____    ______ ____
ROOT
ATOM      1  C   LIG    1       25.380 -29.927   8.622  0.00  0.00    +0.054 C 
ENDROOT
BRANCH   1   3
ATOM      2  C   LIG    1       23.801 -31.991   8.572  0.00  0.00    +0.135 A 
ATOM      3  C   LIG    1       24.106 -30.693   9.031  0.00  0.00    +0.003 A 
ATOM      4  C   LIG    1       23.167 -30.105   9.897  0.00  0.00    +0.013 A 
ATOM      5  C   LIG    1       22.059 -30.784  10.419  0.00  0.00    -0.022 A 
ATOM      6  C   LIG    1       21.828 -32.089   9.996  0.00  0.00    +0.009 A 
ATOM      7  C   LIG    1       22.676 -32.681   9.055  0.00  0.00    +0.047 A 
BRANCH   2   8
ATOM      8  O   LIG    1       24.719 -32.644   7.705  0.00  0.00    -0.425 OA
BRANCH   8   9
ATOM      9  C   LIG    1       24.505 -32.751   6.315  0.00  0.00    +0.315 C 
ATOM     10  O   LIG    1       23.430 -32.769   5.756  0.00  0.00    -0.250 OA
BRANCH   9  12
ATOM     11  C   LIG    1       25.889 -31.895   4.399  0.00  0.00    +0.019 C 
ATOM     12  C   LIG    1       25.862 -32.825   5.611  0.00  0.00    +0.092 C 
ATOM     13  C   LIG    1       26.996 -32.455   6.570  0.00  0.00    +0.019 C 
ENDBRANCH   9  12
ENDBRANCH   8   9
ENDBRANCH   2   8
BRANCH   5  14
ATOM     14  C   LIG    1       21.164 -30.080  11.409  0.00  0.00    +0.191 C 
BRANCH  14  15
ATOM     15  O   LIG    1       19.785 -30.193  11.079  0.00  0.00    -0.390 OA
ATOM     16  H   LIG    1       19.317 -29.416  11.426  0.00  0.00    +0.210 HD
ENDBRANCH  14  15
ENDBRANCH   5  14
ENDBRANCH   1   3
BRANCH   1  17
ATOM     17  C   LIG    1       25.167 -28.922   7.487  0.00  0.00    -0.040 A 
ATOM     18  C   LIG    1       25.841 -27.688   7.499  0.00  0.00    +0.004 A 
ATOM     19  C   LIG    1       25.708 -26.786   6.437  0.00  0.00    +0.000 A 
ATOM     20  C   LIG    1       24.876 -27.088   5.362  0.00  0.00    +0.000 A 
ATOM     21  C   LIG    1       24.160 -28.281   5.360  0.00  0.00    +0.000 A 
ATOM     22  C   LIG    1       24.308 -29.190   6.411  0.00  0.00    +0.004 A 
ENDBRANCH   1  17
BRANCH   1  23
ATOM     23  C   LIG    1       26.268 -29.361   9.809  0.00  0.00    +0.028 C 
BRANCH  23  24
ATOM     24  C   LIG    1       26.575 -30.317  10.995  0.00  0.00    +0.086 C 
BRANCH  24  25
ATOM     25  N   LIG    1       25.996 -30.047  12.350  0.00  0.00    -0.297 NA
BRANCH  25  26
ATOM     26  C   LIG    1       26.953 -29.210  13.150  0.00  0.00    +0.051 C 
ATOM     27  C   LIG    1       26.768 -27.680  13.102  0.00  0.00    +0.024 C 
ATOM     28  C   LIG    1       28.452 -29.487  12.984  0.00  0.00    +0.024 C 
ENDBRANCH  25  26
BRANCH  25  29
ATOM     29  C   LIG    1       25.367 -31.237  12.975  0.00  0.00    +0.051 C 
ATOM     30  C   LIG    1       25.159 -32.475  12.081  0.00  0.00    +0.024 C 
ATOM     31  C   LIG    1       24.028 -30.974  13.667  0.00  0.00    +0.024 C 
ENDBRANCH  25  29
ENDBRANCH  24  25
ENDBRANCH  23  24
ENDBRANCH   1  23
TORSDOF 12
ENDMDL
MODEL 5
REMARK VINA RESULT:      -6.8      7.990     12.542
REMARK  Name = *****
REMARK                            x       y       z     vdW  Elec       q    Type
REMARK                         _______ _______ _______ _____ _____    ______ ____
ROOT
ATOM      1  C   LIG    1       25.373 -29.841   9.237  0.00  0.00    +0.054 C 
ENDROOT
BRANCH   1   3
ATOM      2  C   LIG    1       25.004 -29.676   6.669  0.00  0.00    +0.135 A 
ATOM      3  C   LIG    1       25.485 -30.376   7.795  0.00  0.00    +0.003 A 
ATOM      4  C   LIG    1       26.080 -31.625   7.542  0.00  0.00    +0.013 A 
ATOM      5  C   LIG    1       26.338 -32.116   6.256  0.00  0.00    -0.022 A 
ATOM      6  C   LIG    1       25.911 -31.365   5.166  0.00  0.00    +0.009 A 
ATOM      7  C   LIG    1       25.221 -30.165   5.370  0.00  0.00    +0.047 A 
BRANCH   2   8
ATOM      8  O   LIG    1       24.404 -28.402   6.860  0.00  0.00    -0.425 OA
BRANCH   8   9
ATOM      9  C   LIG    1       25.123 -27.197   6.724  0.00  0.00    +0.315 C 
ATOM     10  O   LIG    1       26.153 -26.911   7.295  0.00  0.00    -0.250 OA
BRANCH   9  12
ATOM     11  C   LIG    1       23.874 -25.039   6.403  0.00  0.00    +0.019 C 
ATOM     12  C   LIG    1       24.399 -26.300   5.718  0.00  0.00    +0.092 C 
ATOM     13  C   LIG    1       25.328 -25.912   4.565  0.00  0.00    +0.019 C 
ENDBRANCH   9  12
ENDBRANCH   8   9
ENDBRANCH   2   8
BRANCH   5  14
ATOM     14  C   LIG    1       27.062 -33.431   6.102  0.00  0.00    +0.191 C 
BRANCH  14  15
ATOM     15  O   LIG    1       28.468 -33.272   5.962  0.00  0.00    -0.390 OA
ATOM     16  H   LIG    1       28.895 -34.131   6.110  0.00  0.00    +0.210 HD
ENDBRANCH  14  15
ENDBRANCH   5  14
ENDBRANCH   1   3
BRANCH   1  17
ATOM     17  C   LIG    1       24.321 -30.555  10.088  0.00  0.00    -0.040 A 
ATOM     18  C   LIG    1       22.955 -30.261   9.919  0.00  0.00    +0.004 A 
ATOM     19  C   LIG    1       21.976 -30.951  10.643  0.00  0.00    +0.000 A 
ATOM     20  C   LIG    1       22.345 -31.924  11.568  0.00  0.00    +0.000 A 
ATOM     21  C   LIG    1       23.693 -32.189  11.787  0.00  0.00    +0.000 A 
ATOM     22  C   LIG    1       24.670 -31.514  11.051  0.00  0.00    +0.004 A 
ENDBRANCH   1  17
BRANCH   1  23
ATOM     23  C   LIG    1       26.742 -29.594   9.999  0.00  0.00    +0.028 C 
BRANCH  23  24
ATOM     24  C   LIG    1       26.777 -28.465  11.066  0.00  0.00    +0.086 C 
BRANCH  24  25
ATOM     25  N   LIG    1       26.210 -28.701  12.433  0.00  0.00    -0.297 NA
BRANCH  25  26
ATOM     26  C   LIG    1       25.051 -27.774  12.665  0.00  0.00    +0.051 C 
ATOM     27  C   LIG    1       25.290 -26.555  13.578  0.00  0.00    +0.024 C 
ATOM     28  C   LIG    1       23.714 -28.396  13.086  0.00  0.00    +0.024 C 
ENDBRANCH  25  26
BRANCH  25  29
ATOM     29  C   LIG    1       27.245 -28.857  13.486  0.00  0.00    +0.051 C 
ATOM     30  C   LIG    1       28.609 -29.426  13.053  0.00  0.00    +0.024 C 
ATOM     31  C   LIG    1       26.806 -29.664  14.709  0.00  0.00    +0.024 C 
ENDBRANCH  25  29
ENDBRANCH  24  25
ENDBRANCH  23  24
ENDBRANCH   1  23
TORSDOF 12
ENDMDL
MODEL 6
REMARK VINA RESULT:      -6.6     10.800     13.768
REMARK  Name = *****
REMARK                            x       y       z     vdW  Elec       q    Type
REMARK                         _______ _______ _______ _____ _____    ______ ____
ROOT
ATOM      1  C   LIG    1       23.762 -30.046  11.592  0.00  0.00    +0.054 C 
ENDROOT
BRANCH   1   3
ATOM      2  C   LIG    1       24.384 -27.948  12.995  0.00  0.00    +0.135 A 
ATOM      3  C   LIG    1       23.414 -28.772  12.388  0.00  0.00    +0.003 A 
ATOM      4  C   LIG    1       22.074 -28.378  12.551  0.00  0.00    +0.013 A 
ATOM      5  C   LIG    1       21.686 -27.169  13.143  0.00  0.00    -0.022 A 
ATOM      6  C   LIG    1       22.676 -26.346  13.670  0.00  0.00    +0.009 A 
ATOM      7  C   LIG    1       24.016 -26.746  13.624  0.00  0.00    +0.047 A 
BRANCH   2   8
ATOM      8  O   LIG    1       25.756 -28.287  12.854  0.00  0.00    -0.425 OA
BRANCH   8   9
ATOM      9  C   LIG    1       26.673 -27.468  12.163  0.00  0.00    +0.315 C 
ATOM     10  O   LIG    1       26.893 -26.297  12.383  0.00  0.00    -0.250 OA
BRANCH   9  12
ATOM     11  C   LIG    1       27.594 -29.733  11.580  0.00  0.00    +0.019 C 
ATOM     12  C   LIG    1       27.370 -28.305  11.087  0.00  0.00    +0.092 C 
ATOM     13  C   LIG    1       26.548 -28.328   9.796  0.00  0.00    +0.019 C 
ENDBRANCH   9  12
ENDBRANCH   8   9
ENDBRANCH   2   8
BRANCH   5  14
ATOM     14  C   LIG    1       20.221 -26.808  13.187  0.00  0.00    +0.191 C 
BRANCH  14  15
ATOM     15  O   LIG    1       19.400 -27.897  13.592  0.00  0.00    -0.390 OA
ATOM     16  H   LIG    1       18.530 -27.803  13.171  0.00  0.00    +0.210 HD
ENDBRANCH  14  15
ENDBRANCH   5  14
ENDBRANCH   1   3
BRANCH   1  17
ATOM     17  C   LIG    1       23.833 -31.315  12.444  0.00  0.00    -0.040 A 
ATOM     18  C   LIG    1       22.678 -32.089  12.660  0.00  0.00    +0.004 A 
ATOM     19  C   LIG    1       22.739 -33.286  13.382  0.00  0.00    +0.000 A 
ATOM     20  C   LIG    1       23.947 -33.714  13.926  0.00  0.00    +0.000 A 
ATOM     21  C   LIG    1       25.087 -32.935  13.768  0.00  0.00    +0.000 A 
ATOM     22  C   LIG    1       25.031 -31.749  13.031  0.00  0.00    +0.004 A 
ENDBRANCH   1  17
BRANCH   1  23
ATOM     23  C   LIG    1       22.991 -30.247  10.221  0.00  0.00    +0.028 C 
BRANCH  23  24
ATOM     24  C   LIG    1       23.572 -31.277   9.213  0.00  0.00    +0.086 C 
BRANCH  24  25
ATOM     25  N   LIG    1       24.920 -31.051   8.598  0.00  0.00    -0.297 NA
BRANCH  25  26
ATOM     26  C   LIG    1       24.764 -30.762   7.133  0.00  0.00    +0.051 C 
ATOM     27  C   LIG    1       24.376 -29.325   6.731  0.00  0.00    +0.024 C 
ATOM     28  C   LIG    1       23.885 -31.712   6.309  0.00  0.00    +0.024 C 
ENDBRANCH  25  26
BRANCH  25  29
ATOM     29  C   LIG    1       25.947 -32.025   9.047  0.00  0.00    +0.051 C 
ATOM     30  C   LIG    1       27.004 -32.461   8.014  0.00  0.00    +0.024 C 
ATOM     31  C   LIG    1       25.394 -33.309   9.668  0.00  0.00    +0.024 C 
ENDBRANCH  25  29
ENDBRANCH  24  25
ENDBRANCH  23  24
ENDBRANCH   1  23
TORSDOF 12
ENDMDL
MODEL 7
REMARK VINA RESULT:      -6.6     10.843     13.496
REMARK  Name = *****
REMARK                            x       y       z     vdW  Elec       q    Type
REMARK                         _______ _______ _______ _____ _____    ______ ____
ROOT
ATOM      1  C   LIG    1       22.556 -28.567  13.119  0.00  0.00    +0.054 C 
ENDROOT
BRANCH   1   3
ATOM      2  C   LIG    1       25.117 -28.352  12.730  0.00  0.00    +0.135 A 
ATOM      3  C   LIG    1       23.895 -27.806  13.176  0.00  0.00    +0.003 A 
ATOM      4  C   LIG    1       23.953 -26.503  13.700  0.00  0.00    +0.013 A 
ATOM      5  C   LIG    1       25.101 -25.700  13.663  0.00  0.00    -0.022 A 
ATOM      6  C   LIG    1       26.272 -26.249  13.152  0.00  0.00    +0.009 A 
ATOM      7  C   LIG    1       26.289 -27.578  12.715  0.00  0.00    +0.047 A 
BRANCH   2   8
ATOM      8  O   LIG    1       25.120 -29.661  12.177  0.00  0.00    -0.425 OA
BRANCH   8   9
ATOM      9  C   LIG    1       25.974 -30.036  11.120  0.00  0.00    +0.315 C 
ATOM     10  O   LIG    1       26.995 -30.681  11.219  0.00  0.00    -0.250 OA
BRANCH   9  12
ATOM     11  C   LIG    1       26.386 -28.577   9.115  0.00  0.00    +0.019 C 
ATOM     12  C   LIG    1       25.393 -29.510   9.805  0.00  0.00    +0.092 C 
ATOM     13  C   LIG    1       25.031 -30.664   8.867  0.00  0.00    +0.019 C 
ENDBRANCH   9  12
ENDBRANCH   8   9
ENDBRANCH   2   8
BRANCH   5  14
ATOM     14  C   LIG    1       25.024 -24.284  14.178  0.00  0.00    +0.191 C 
BRANCH  14  15
ATOM     15  O   LIG    1       26.300 -23.658  14.253  0.00  0.00    -0.390 OA
ATOM     16  H   LIG    1       26.258 -22.944  14.910  0.00  0.00    +0.210 HD
ENDBRANCH  14  15
ENDBRANCH   5  14
ENDBRANCH   1   3
BRANCH   1  17
ATOM     17  C   LIG    1       21.365 -27.777  13.667  0.00  0.00    -0.040 A 
ATOM     18  C   LIG    1       20.582 -26.988  12.805  0.00  0.00    +0.004 A 
ATOM     19  C   LIG    1       19.452 -26.311  13.278  0.00  0.00    +0.000 A 
ATOM     20  C   LIG    1       19.102 -26.387  14.623  0.00  0.00    +0.000 A 
ATOM     21  C   LIG    1       19.896 -27.120  15.500  0.00  0.00    +0.000 A 
ATOM     22  C   LIG    1       21.014 -27.811  15.025  0.00  0.00    +0.004 A 
ENDBRANCH   1  17
BRANCH   1  23
ATOM     23  C   LIG    1       22.240 -29.327  11.763  0.00  0.00    +0.028 C 
BRANCH  23  24
ATOM     24  C   LIG    1       21.496 -30.689  11.858  0.00  0.00    +0.086 C 
BRANCH  24  25
ATOM     25  N   LIG    1       20.008 -30.747  11.695  0.00  0.00    -0.297 NA
BRANCH  25  26
ATOM     26  C   LIG    1       19.372 -31.123  13.002  0.00  0.00    +0.051 C 
ATOM     27  C   LIG    1       18.372 -30.124  13.618  0.00  0.00    +0.024 C 
ATOM     28  C   LIG    1       20.294 -31.592  14.135  0.00  0.00    +0.024 C 
ENDBRANCH  25  26
BRANCH  25  29
ATOM     29  C   LIG    1       19.575 -31.426  10.448  0.00  0.00    +0.051 C 
ATOM     30  C   LIG    1       18.097 -31.273  10.039  0.00  0.00    +0.024 C 
ATOM     31  C   LIG    1       19.890 -32.922  10.382  0.00  0.00    +0.024 C 
ENDBRANCH  25  29
ENDBRANCH  24  25
ENDBRANCH  23  24
ENDBRANCH   1  23
TORSDOF 12
ENDMDL
MODEL 8
REMARK VINA RESULT:      -6.5      9.361     12.999
REMARK  Name = *****
REMARK                            x       y       z     vdW  Elec       q    Type
REMARK                         _______ _______ _______ _____ _____    ______ ____
ROOT
ATOM      1  C   LIG    1       24.497 -29.709   8.732  0.00  0.00    +0.054 C 
ENDROOT
BRANCH   1   3
ATOM      2  C   LIG    1       26.833 -30.359   9.668  0.00  0.00    +0.135 A 
ATOM      3  C   LIG    1       25.633 -29.623   9.769  0.00  0.00    +0.003 A 
ATOM      4  C   LIG    1       25.509 -28.790  10.896  0.00  0.00    +0.013 A 
ATOM      5  C   LIG    1       26.547 -28.558  11.808  0.00  0.00    -0.022 A 
ATOM      6  C   LIG    1       27.742 -29.249  11.637  0.00  0.00    +0.009 A 
ATOM      7  C   LIG    1       27.876 -30.168  10.590  0.00  0.00    +0.047 A 
BRANCH   2   8
ATOM      8  O   LIG    1       27.022 -31.208   8.544  0.00  0.00    -0.425 OA
BRANCH   8   9
ATOM      9  C   LIG    1       27.023 -32.614   8.647  0.00  0.00    +0.315 C 
ATOM     10  O   LIG    1       26.985 -33.256   9.675  0.00  0.00    -0.250 OA
BRANCH   9  12
ATOM     11  C   LIG    1       26.626 -32.178   6.204  0.00  0.00    +0.019 C 
ATOM     12  C   LIG    1       27.062 -33.213   7.239  0.00  0.00    +0.092 C 
ATOM     13  C   LIG    1       28.466 -33.721   6.900  0.00  0.00    +0.019 C 
ENDBRANCH   9  12
ENDBRANCH   8   9
ENDBRANCH   2   8
BRANCH   5  14
ATOM     14  C   LIG    1       26.330 -27.576  12.933  0.00  0.00    +0.191 C 
BRANCH  14  15
ATOM     15  O   LIG    1       27.447 -26.719  13.137  0.00  0.00    -0.390 OA
ATOM     16  H   LIG    1       27.277 -26.165  13.916  0.00  0.00    +0.210 HD
ENDBRANCH  14  15
ENDBRANCH   5  14
ENDBRANCH   1   3
BRANCH   1  17
ATOM     17  C   LIG    1       24.770 -28.934   7.441  0.00  0.00    -0.040 A 
ATOM     18  C   LIG    1       25.601 -27.798   7.459  0.00  0.00    +0.004 A 
ATOM     19  C   LIG    1       25.913 -27.117   6.277  0.00  0.00    +0.000 A 
ATOM     20  C   LIG    1       25.378 -27.540   5.063  0.00  0.00    +0.000 A 
ATOM     21  C   LIG    1       24.513 -28.628   5.034  0.00  0.00    +0.000 A 
ATOM     22  C   LIG    1       24.215 -29.320   6.211  0.00  0.00    +0.004 A 
ENDBRANCH   1  17
BRANCH   1  23
ATOM     23  C   LIG    1       23.879 -31.149   8.486  0.00  0.00    +0.028 C 
BRANCH  23  24
ATOM     24  C   LIG    1       22.882 -31.694   9.546  0.00  0.00    +0.086 C 
BRANCH  24  25
ATOM     25  N   LIG    1       23.053 -31.343  10.993  0.00  0.00    -0.297 NA
BRANCH  25  26
ATOM     26  C   LIG    1       23.739 -32.471  11.708  0.00  0.00    +0.051 C 
ATOM     27  C   LIG    1       22.876 -33.356  12.629  0.00  0.00    +0.024 C 
ATOM     28  C   LIG    1       25.029 -32.151  12.472  0.00  0.00    +0.024 C 
ENDBRANCH  25  26
BRANCH  25  29
ATOM     29  C   LIG    1       21.851 -30.716  11.597  0.00  0.00    +0.051 C 
ATOM     30  C   LIG    1       20.577 -30.657  10.733  0.00  0.00    +0.024 C 
ATOM     31  C   LIG    1       22.065 -29.306  12.151  0.00  0.00    +0.024 C 
ENDBRANCH  25  29
ENDBRANCH  24  25
ENDBRANCH  23  24
ENDBRANCH   1  23
TORSDOF 12
ENDMDL
MODEL 9
REMARK VINA RESULT:      -6.5     10.441     13.384
REMARK  Name = *****
REMARK                            x       y       z     vdW  Elec       q    Type
REMARK                         _______ _______ _______ _____ _____    ______ ____
ROOT
ATOM      1  C   LIG    1       22.460 -30.326  11.321  0.00  0.00    +0.054 C 
ENDROOT
BRANCH   1   3
ATOM      2  C   LIG    1       23.604 -28.420  12.668  0.00  0.00    +0.135 A 
ATOM      3  C   LIG    1       22.438 -29.054  12.190  0.00  0.00    +0.003 A 
ATOM      4  C   LIG    1       21.216 -28.464  12.560  0.00  0.00    +0.013 A 
ATOM      5  C   LIG    1       21.116 -27.238  13.231  0.00  0.00    -0.022 A 
ATOM      6  C   LIG    1       22.291 -26.606  13.626  0.00  0.00    +0.009 A 
ATOM      7  C   LIG    1       23.528 -27.207  13.373  0.00  0.00    +0.047 A 
BRANCH   2   8
ATOM      8  O   LIG    1       24.870 -28.961  12.316  0.00  0.00    -0.425 OA
BRANCH   8   9
ATOM      9  C   LIG    1       26.023 -28.771  13.106  0.00  0.00    +0.315 C 
ATOM     10  O   LIG    1       26.207 -29.212  14.220  0.00  0.00    -0.250 OA
BRANCH   9  12
ATOM     11  C   LIG    1       26.858 -28.149  10.819  0.00  0.00    +0.019 C 
ATOM     12  C   LIG    1       27.027 -27.925  12.320  0.00  0.00    +0.092 C 
ATOM     13  C   LIG    1       26.857 -26.438  12.642  0.00  0.00    +0.019 C 
ENDBRANCH   9  12
ENDBRANCH   8   9
ENDBRANCH   2   8
BRANCH   5  14
ATOM     14  C   LIG    1       19.750 -26.657  13.501  0.00  0.00    +0.191 C 
BRANCH  14  15
ATOM     15  O   LIG    1       19.312 -25.783  12.467  0.00  0.00    -0.390 OA
ATOM     16  H   LIG    1       20.050 -25.627  11.857  0.00  0.00    +0.210 HD
ENDBRANCH  14  15
ENDBRANCH   5  14
ENDBRANCH   1   3
BRANCH   1  17
ATOM     17  C   LIG    1       21.204 -31.191  11.448  0.00  0.00    -0.040 A 
ATOM     18  C   LIG    1       21.051 -32.062  12.543  0.00  0.00    +0.004 A 
ATOM     19  C   LIG    1       19.881 -32.811  12.707  0.00  0.00    +0.000 A 
ATOM     20  C   LIG    1       18.858 -32.727  11.767  0.00  0.00    +0.000 A 
ATOM     21  C   LIG    1       19.015 -31.912  10.651  0.00  0.00    +0.000 A 
ATOM     22  C   LIG    1       20.175 -31.149  10.495  0.00  0.00    +0.004 A 
ENDBRANCH   1  17
BRANCH   1  23
ATOM     23  C   LIG    1       22.954 -30.143   9.825  0.00  0.00    +0.028 C 
BRANCH  23  24
ATOM     24  C   LIG    1       24.273 -30.853   9.411  0.00  0.00    +0.086 C 
BRANCH  24  25
ATOM     25  N   LIG    1       24.787 -30.730   8.009  0.00  0.00    -0.297 NA
BRANCH  25  26
ATOM     26  C   LIG    1       26.212 -31.202   7.951  0.00  0.00    +0.051 C 
ATOM     27  C   LIG    1       26.572 -32.237   6.867  0.00  0.00    +0.024 C 
ATOM     28  C   LIG    1       26.859 -31.675   9.258  0.00  0.00    +0.024 C 
ENDBRANCH  25  26
BRANCH  25  29
ATOM     29  C   LIG    1       24.411 -29.453   7.349  0.00  0.00    +0.051 C 
ATOM     30  C   LIG    1       24.013 -29.519   5.863  0.00  0.00    +0.024 C 
ATOM     31  C   LIG    1       25.446 -28.333   7.471  0.00  0.00    +0.024 C 
ENDBRANCH  25  29
ENDBRANCH  24  25
ENDBRANCH  23  24
ENDBRANCH   1  23
TORSDOF 12
ENDMDL
