MODEL 1
REMARK VINA RESULT:      -1.6      0.000      0.000
REMARK  Name = *****
REMARK                            x       y       z     vdW  Elec       q    Type
REMARK                         _______ _______ _______ _____ _____    ______ ____
ROOT
ATOM      1  S   LIG    1       25.990 -16.791   3.548  0.00  0.00    +0.062 S 
ATOM      2  O   LIG    1       26.866 -17.408   4.529  0.00  0.00    -0.153 OA
ATOM      3  O   LIG    1       26.292 -16.947   2.147  0.00  0.00    -0.153 OA
ENDROOT
BRANCH   1   4
ATOM      4  C   LIG    1       24.346 -17.462   3.883  0.00  0.00    +0.116 A 
ATOM      5  C   LIG    1       24.081 -18.853   4.079  0.00  0.00    +0.047 A 
ATOM      6  C   LIG    1       22.818 -19.194   4.644  0.00  0.00    +0.005 A 
ATOM      7  C   LIG    1       22.528 -20.537   4.915  0.00  0.00    +0.119 A 
ATOM      8  N   LIG    1       23.352 -21.571   4.655  0.00  0.00    -0.260 NA
ATOM      9  C   LIG    1       24.525 -21.251   4.076  0.00  0.00    +0.149 A 
ATOM     10  C   LIG    1       21.861 -18.211   4.935  0.00  0.00    +0.010 A 
ATOM     11  C   LIG    1       22.120 -16.871   4.684  0.00  0.00    +0.003 A 
ATOM     12  C   LIG    1       24.914 -19.953   3.766  0.00  0.00    +0.151 A 
ATOM     13  F   LIG    1       26.053 -19.803   3.082  0.00  0.00    -0.203 F 
ATOM     14  C   LIG    1       23.358 -16.497   4.176  0.00  0.00    +0.029 A 
ENDBRANCH   1   4
BRANCH   1  17
ATOM     15  C   LIG    1       24.202 -13.292   3.707  0.00  0.00    +0.027 C 
ATOM     16  C   LIG    1       25.177 -14.221   2.975  0.00  0.00    +0.090 C 
ATOM     17  N   LIG    1       25.840 -15.138   3.951  0.00  0.00    -0.172 NA
ATOM     18  C   LIG    1       26.882 -14.552   4.833  0.00  0.00    +0.111 C 
ATOM     19  C   LIG    1       28.163 -14.238   4.063  0.00  0.00    +0.032 C 
ATOM     20  C   LIG    1       28.189 -12.857   3.411  0.00  0.00    +0.082 C 
ATOM     21  N   LIG    1       26.976 -12.395   2.751  0.00  0.00    -0.314 NA
ATOM     22  H   LIG    1       26.397 -11.872   3.405  0.00  0.00    +0.122 HD
ATOM     23  C   LIG    1       26.190 -13.444   2.087  0.00  0.00    +0.101 C 
ENDBRANCH   1  17
TORSDOF 2
ENDMDL
MODEL 2
REMARK VINA RESULT:      -1.6      2.373      3.118
REMARK  Name = *****
REMARK                            x       y       z     vdW  Elec       q    Type
REMARK                         _______ _______ _______ _____ _____    ______ ____
ROOT
ATOM      1  S   LIG    1       23.592 -14.490   4.122  0.00  0.00    +0.062 S 
ATOM      2  O   LIG    1       22.641 -14.545   3.026  0.00  0.00    -0.153 OA
ATOM      3  O   LIG    1       23.097 -14.348   5.469  0.00  0.00    -0.153 OA
ENDROOT
BRANCH   1   4
ATOM      4  C   LIG    1       24.556 -16.013   3.998  0.00  0.00    +0.116 A 
ATOM      5  C   LIG    1       23.987 -17.323   4.079  0.00  0.00    +0.047 A 
ATOM      6  C   LIG    1       24.804 -18.407   3.649  0.00  0.00    +0.005 A 
ATOM      7  C   LIG    1       24.278 -19.705   3.649  0.00  0.00    +0.119 A 
ATOM      8  N   LIG    1       23.036 -20.033   4.057  0.00  0.00    -0.260 NA
ATOM      9  C   LIG    1       22.282 -19.013   4.509  0.00  0.00    +0.149 A 
ATOM     10  C   LIG    1       26.125 -18.201   3.226  0.00  0.00    +0.010 A 
ATOM     11  C   LIG    1       26.675 -16.927   3.209  0.00  0.00    +0.003 A 
ATOM     12  C   LIG    1       22.704 -17.689   4.551  0.00  0.00    +0.151 A 
ATOM     13  F   LIG    1       21.890 -16.806   5.140  0.00  0.00    -0.203 F 
ATOM     14  C   LIG    1       25.892 -15.840   3.578  0.00  0.00    +0.029 A 
ENDBRANCH   1   4
BRANCH   1  17
ATOM     15  C   LIG    1       25.352 -11.785   1.877  0.00  0.00    +0.027 C 
ATOM     16  C   LIG    1       25.331 -13.225   2.399  0.00  0.00    +0.090 C 
ATOM     17  N   LIG    1       24.727 -13.265   3.766  0.00  0.00    -0.172 NA
ATOM     18  C   LIG    1       25.552 -12.748   4.887  0.00  0.00    +0.111 C 
ATOM     19  C   LIG    1       26.699 -13.698   5.229  0.00  0.00    +0.032 C 
ATOM     20  C   LIG    1       27.974 -13.469   4.418  0.00  0.00    +0.082 C 
ATOM     21  N   LIG    1       27.834 -13.200   2.994  0.00  0.00    -0.314 NA
ATOM     22  H   LIG    1       27.769 -12.198   2.830  0.00  0.00    +0.122 HD
ATOM     23  C   LIG    1       26.728 -13.905   2.333  0.00  0.00    +0.101 C 
ENDBRANCH   1  17
TORSDOF 2
ENDMDL
MODEL 3
REMARK VINA RESULT:      -1.5      1.745      6.014
REMARK  Name = *****
REMARK                            x       y       z     vdW  Elec       q    Type
REMARK                         _______ _______ _______ _____ _____    ______ ____
ROOT
ATOM      1  S   LIG    1       25.370 -18.794   3.651  0.00  0.00    +0.062 S 
ATOM      2  O   LIG    1       25.461 -18.878   2.203  0.00  0.00    -0.153 OA
ATOM      3  O   LIG    1       26.571 -18.948   4.434  0.00  0.00    -0.153 OA
ENDROOT
BRANCH   1   4
ATOM      4  C   LIG    1       24.637 -17.180   3.993  0.00  0.00    +0.116 A 
ATOM      5  C   LIG    1       25.295 -15.936   3.736  0.00  0.00    +0.047 A 
ATOM      6  C   LIG    1       24.486 -14.764   3.753  0.00  0.00    +0.005 A 
ATOM      7  C   LIG    1       25.066 -13.526   3.449  0.00  0.00    +0.119 A 
ATOM      8  N   LIG    1       26.368 -13.336   3.158  0.00  0.00    -0.260 NA
ATOM      9  C   LIG    1       27.141 -14.438   3.190  0.00  0.00    +0.149 A 
ATOM     10  C   LIG    1       23.121 -14.826   4.068  0.00  0.00    +0.010 A 
ATOM     11  C   LIG    1       22.515 -16.037   4.369  0.00  0.00    +0.003 A 
ATOM     12  C   LIG    1       26.669 -15.714   3.479  0.00  0.00    +0.151 A 
ATOM     13  F   LIG    1       27.576 -16.689   3.594  0.00  0.00    -0.203 F 
ATOM     14  C   LIG    1       23.263 -17.207   4.318  0.00  0.00    +0.029 A 
ENDBRANCH   1   4
BRANCH   1  17
ATOM     15  C   LIG    1       21.702 -20.037   4.324  0.00  0.00    +0.027 C 
ATOM     16  C   LIG    1       22.968 -19.370   4.871  0.00  0.00    +0.090 C 
ATOM     17  N   LIG    1       24.172 -19.899   4.162  0.00  0.00    -0.172 NA
ATOM     18  C   LIG    1       24.611 -21.275   4.504  0.00  0.00    +0.111 C 
ATOM     19  C   LIG    1       25.246 -21.337   5.893  0.00  0.00    +0.032 C 
ATOM     20  C   LIG    1       24.254 -21.559   7.033  0.00  0.00    +0.082 C 
ATOM     21  N   LIG    1       22.996 -20.827   6.991  0.00  0.00    -0.314 NA
ATOM     22  H   LIG    1       22.285 -21.376   6.512  0.00  0.00    +0.122 HD
ATOM     23  C   LIG    1       23.080 -19.477   6.418  0.00  0.00    +0.101 C 
ENDBRANCH   1  17
TORSDOF 2
ENDMDL
MODEL 4
REMARK VINA RESULT:      -0.4      3.445      6.480
REMARK  Name = *****
REMARK                            x       y       z     vdW  Elec       q    Type
REMARK                         _______ _______ _______ _____ _____    ______ ____
ROOT
ATOM      1  S   LIG    1       24.585 -19.560   3.804  0.00  0.00    +0.062 S 
ATOM      2  O   LIG    1       24.768 -18.131   3.616  0.00  0.00    -0.153 OA
ATOM      3  O   LIG    1       24.549 -20.416   2.644  0.00  0.00    -0.153 OA
ENDROOT
BRANCH   1   4
ATOM      4  C   LIG    1       25.934 -20.079   4.887  0.00  0.00    +0.116 A 
ATOM      5  C   LIG    1       27.112 -19.300   5.118  0.00  0.00    +0.047 A 
ATOM      6  C   LIG    1       27.925 -19.678   6.224  0.00  0.00    +0.005 A 
ATOM      7  C   LIG    1       29.058 -18.915   6.535  0.00  0.00    +0.119 A 
ATOM      8  N   LIG    1       29.475 -17.837   5.842  0.00  0.00    -0.260 NA
ATOM      9  C   LIG    1       28.731 -17.511   4.768  0.00  0.00    +0.149 A 
ATOM     10  C   LIG    1       27.615 -20.798   7.009  0.00  0.00    +0.010 A 
ATOM     11  C   LIG    1       26.496 -21.571   6.731  0.00  0.00    +0.003 A 
ATOM     12  C   LIG    1       27.589 -18.198   4.371  0.00  0.00    +0.151 A 
ATOM     13  F   LIG    1       27.027 -17.832   3.215  0.00  0.00    -0.203 F 
ATOM     14  C   LIG    1       25.655 -21.207   5.688  0.00  0.00    +0.029 A 
ENDBRANCH   1   4
BRANCH   1  17
ATOM     15  C   LIG    1       22.204 -21.497   6.260  0.00  0.00    +0.027 C 
ATOM     16  C   LIG    1       22.570 -21.144   4.815  0.00  0.00    +0.090 C 
ATOM     17  N   LIG    1       23.189 -19.785   4.762  0.00  0.00    -0.172 NA
ATOM     18  C   LIG    1       22.286 -18.619   4.939  0.00  0.00    +0.111 C 
ATOM     19  C   LIG    1       21.398 -18.402   3.714  0.00  0.00    +0.032 C 
ATOM     20  C   LIG    1       20.092 -19.193   3.730  0.00  0.00    +0.082 C 
ATOM     21  N   LIG    1       20.141 -20.576   4.185  0.00  0.00    -0.314 NA
ATOM     22  H   LIG    1       19.966 -20.623   5.187  0.00  0.00    +0.122 HD
ATOM     23  C   LIG    1       21.370 -21.302   3.839  0.00  0.00    +0.101 C 
ENDBRANCH   1  17
TORSDOF 2
ENDMDL
MODEL 5
REMARK VINA RESULT:       0.1      2.286      3.342
REMARK  Name = *****
REMARK                            x       y       z     vdW  Elec       q    Type
REMARK                         _______ _______ _______ _____ _____    ______ ____
ROOT
ATOM      1  S   LIG    1       23.332 -15.426   4.101  0.00  0.00    +0.062 S 
ATOM      2  O   LIG    1       22.346 -15.495   3.036  0.00  0.00    -0.153 OA
ATOM      3  O   LIG    1       22.881 -15.226   5.456  0.00  0.00    -0.153 OA
ENDROOT
BRANCH   1   4
ATOM      4  C   LIG    1       24.255 -16.976   4.002  0.00  0.00    +0.116 A 
ATOM      5  C   LIG    1       23.667 -18.266   4.194  0.00  0.00    +0.047 A 
ATOM      6  C   LIG    1       24.432 -19.391   3.774  0.00  0.00    +0.005 A 
ATOM      7  C   LIG    1       23.882 -20.674   3.883  0.00  0.00    +0.119 A 
ATOM      8  N   LIG    1       22.664 -20.950   4.389  0.00  0.00    -0.260 NA
ATOM      9  C   LIG    1       21.962 -19.888   4.831  0.00  0.00    +0.149 A 
ATOM     10  C   LIG    1       25.726 -19.239   3.254  0.00  0.00    +0.010 A 
ATOM     11  C   LIG    1       26.298 -17.981   3.129  0.00  0.00    +0.003 A 
ATOM     12  C   LIG    1       22.412 -18.574   4.770  0.00  0.00    +0.151 A 
ATOM     13  F   LIG    1       21.656 -17.642   5.359  0.00  0.00    -0.203 F 
ATOM     14  C   LIG    1       25.564 -16.857   3.486  0.00  0.00    +0.029 A 
ENDBRANCH   1   4
BRANCH   1  17
ATOM     15  C   LIG    1       26.862 -14.108   2.979  0.00  0.00    +0.027 C 
ATOM     16  C   LIG    1       25.896 -14.417   4.127  0.00  0.00    +0.090 C 
ATOM     17  N   LIG    1       24.484 -14.242   3.669  0.00  0.00    -0.172 NA
ATOM     18  C   LIG    1       23.998 -12.851   3.482  0.00  0.00    +0.111 C 
ATOM     19  C   LIG    1       23.786 -12.143   4.818  0.00  0.00    +0.032 C 
ATOM     20  C   LIG    1       25.028 -11.447   5.371  0.00  0.00    +0.082 C 
ATOM     21  N   LIG    1       26.300 -12.148   5.271  0.00  0.00    -0.314 NA
ATOM     22  H   LIG    1       26.772 -11.899   4.404  0.00  0.00    +0.122 HD
ATOM     23  C   LIG    1       26.220 -13.607   5.415  0.00  0.00    +0.101 C 
ENDBRANCH   1  17
TORSDOF 2
ENDMDL
MODEL 6
REMARK VINA RESULT:       0.1      2.227      3.173
REMARK  Name = *****
REMARK                            x       y       z     vdW  Elec       q    Type
REMARK                         _______ _______ _______ _____ _____    ______ ____
ROOT
ATOM      1  S   LIG    1       25.441 -14.929   3.405  0.00  0.00    +0.062 S 
ATOM      2  O   LIG    1       26.053 -14.787   2.094  0.00  0.00    -0.153 OA
ATOM      3  O   LIG    1       24.197 -14.250   3.670  0.00  0.00    -0.153 OA
ENDROOT
BRANCH   1   4
ATOM      4  C   LIG    1       25.214 -16.705   3.638  0.00  0.00    +0.116 A 
ATOM      5  C   LIG    1       23.954 -17.313   3.939  0.00  0.00    +0.047 A 
ATOM      6  C   LIG    1       23.867 -18.725   3.779  0.00  0.00    +0.005 A 
ATOM      7  C   LIG    1       22.641 -19.366   4.001  0.00  0.00    +0.119 A 
ATOM      8  N   LIG    1       21.508 -18.749   4.391  0.00  0.00    -0.260 NA
ATOM      9  C   LIG    1       21.606 -17.420   4.589  0.00  0.00    +0.149 A 
ATOM     10  C   LIG    1       24.983 -19.487   3.403  0.00  0.00    +0.010 A 
ATOM     11  C   LIG    1       26.209 -18.881   3.170  0.00  0.00    +0.003 A 
ATOM     12  C   LIG    1       22.771 -16.686   4.397  0.00  0.00    +0.151 A 
ATOM     13  F   LIG    1       22.747 -15.397   4.752  0.00  0.00    -0.203 F 
ATOM     14  C   LIG    1       26.321 -17.501   3.272  0.00  0.00    +0.029 A 
ENDBRANCH   1   4
BRANCH   1  17
ATOM     15  C   LIG    1       26.722 -13.822   6.953  0.00  0.00    +0.027 C 
ATOM     16  C   LIG    1       26.308 -13.412   5.536  0.00  0.00    +0.090 C 
ATOM     17  N   LIG    1       26.615 -14.515   4.575  0.00  0.00    -0.172 NA
ATOM     18  C   LIG    1       28.041 -14.728   4.219  0.00  0.00    +0.111 C 
ATOM     19  C   LIG    1       28.568 -13.618   3.311  0.00  0.00    +0.032 C 
ATOM     20  C   LIG    1       29.118 -12.401   4.053  0.00  0.00    +0.082 C 
ATOM     21  N   LIG    1       28.374 -11.916   5.207  0.00  0.00    -0.314 NA
ATOM     22  H   LIG    1       28.716 -12.358   6.057  0.00  0.00    +0.122 HD
ATOM     23  C   LIG    1       26.914 -12.047   5.107  0.00  0.00    +0.101 C 
ENDBRANCH   1  17
TORSDOF 2
ENDMDL
MODEL 7
REMARK VINA RESULT:       0.3      2.301      3.318
REMARK  Name = *****
REMARK                            x       y       z     vdW  Elec       q    Type
REMARK                         _______ _______ _______ _____ _____    ______ ____
ROOT
ATOM      1  S   LIG    1       26.743 -15.414   3.479  0.00  0.00    +0.062 S 
ATOM      2  O   LIG    1       27.938 -14.612   3.680  0.00  0.00    -0.153 OA
ATOM      3  O   LIG    1       26.275 -15.644   2.135  0.00  0.00    -0.153 OA
ENDROOT
BRANCH   1   4
ATOM      4  C   LIG    1       27.092 -17.001   4.269  0.00  0.00    +0.116 A 
ATOM      5  C   LIG    1       26.245 -18.148   4.157  0.00  0.00    +0.047 A 
ATOM      6  C   LIG    1       26.799 -19.398   4.557  0.00  0.00    +0.005 A 
ATOM      7  C   LIG    1       26.037 -20.563   4.412  0.00  0.00    +0.119 A 
ATOM      8  N   LIG    1       24.776 -20.606   3.938  0.00  0.00    -0.260 NA
ATOM      9  C   LIG    1       24.237 -19.417   3.607  0.00  0.00    +0.149 A 
ATOM     10  C   LIG    1       28.093 -19.484   5.092  0.00  0.00    +0.010 A 
ATOM     11  C   LIG    1       28.876 -18.348   5.243  0.00  0.00    +0.003 A 
ATOM     12  C   LIG    1       24.905 -18.202   3.709  0.00  0.00    +0.151 A 
ATOM     13  F   LIG    1       24.199 -17.094   3.459  0.00  0.00    -0.203 F 
ATOM     14  C   LIG    1       28.386 -17.119   4.822  0.00  0.00    +0.029 A 
ENDBRANCH   1   4
BRANCH   1  17
ATOM     15  C   LIG    1       23.053 -14.978   4.762  0.00  0.00    +0.027 C 
ATOM     16  C   LIG    1       24.164 -14.505   3.820  0.00  0.00    +0.090 C 
ATOM     17  N   LIG    1       25.501 -14.748   4.443  0.00  0.00    -0.172 NA
ATOM     18  C   LIG    1       25.905 -13.850   5.555  0.00  0.00    +0.111 C 
ATOM     19  C   LIG    1       26.252 -12.450   5.052  0.00  0.00    +0.032 C 
ATOM     20  C   LIG    1       25.061 -11.499   4.951  0.00  0.00    +0.082 C 
ATOM     21  N   LIG    1       23.814 -12.027   4.414  0.00  0.00    -0.314 NA
ATOM     22  H   LIG    1       23.230 -12.384   5.167  0.00  0.00    +0.122 HD
ATOM     23  C   LIG    1       23.970 -13.034   3.356  0.00  0.00    +0.101 C 
ENDBRANCH   1  17
TORSDOF 2
ENDMDL
MODEL 8
REMARK VINA RESULT:       0.3      1.750      2.597
REMARK  Name = *****
REMARK                            x       y       z     vdW  Elec       q    Type
REMARK                         _______ _______ _______ _____ _____    ______ ____
ROOT
ATOM      1  S   LIG    1       26.431 -17.672   3.445  0.00  0.00    +0.062 S 
ATOM      2  O   LIG    1       27.880 -17.629   3.338  0.00  0.00    -0.153 OA
ATOM      3  O   LIG    1       25.656 -18.004   2.275  0.00  0.00    -0.153 OA
ENDROOT
BRANCH   1   4
ATOM      4  C   LIG    1       26.081 -18.869   4.752  0.00  0.00    +0.116 A 
ATOM      5  C   LIG    1       24.817 -19.517   4.919  0.00  0.00    +0.047 A 
ATOM      6  C   LIG    1       24.785 -20.653   5.776  0.00  0.00    +0.005 A 
ATOM      7  C   LIG    1       23.587 -21.363   5.930  0.00  0.00    +0.119 A 
ATOM      8  N   LIG    1       22.419 -21.040   5.341  0.00  0.00    -0.260 NA
ATOM      9  C   LIG    1       22.440 -19.936   4.570  0.00  0.00    +0.149 A 
ATOM     10  C   LIG    1       25.929 -21.076   6.469  0.00  0.00    +0.010 A 
ATOM     11  C   LIG    1       27.132 -20.398   6.334  0.00  0.00    +0.003 A 
ATOM     12  C   LIG    1       23.572 -19.160   4.348  0.00  0.00    +0.151 A 
ATOM     13  F   LIG    1       23.410 -18.026   3.659  0.00  0.00    -0.203 F 
ATOM     14  C   LIG    1       27.212 -19.312   5.471  0.00  0.00    +0.029 A 
ENDBRANCH   1   4
BRANCH   1  17
ATOM     15  C   LIG    1       23.800 -14.963   4.537  0.00  0.00    +0.027 C 
ATOM     16  C   LIG    1       24.766 -15.476   3.465  0.00  0.00    +0.090 C 
ATOM     17  N   LIG    1       25.914 -16.186   4.109  0.00  0.00    -0.172 NA
ATOM     18  C   LIG    1       26.933 -15.349   4.791  0.00  0.00    +0.111 C 
ATOM     19  C   LIG    1       27.801 -14.589   3.790  0.00  0.00    +0.032 C 
ATOM     20  C   LIG    1       27.235 -13.237   3.359  0.00  0.00    +0.082 C 
ATOM     21  N   LIG    1       25.808 -13.155   3.085  0.00  0.00    -0.314 NA
ATOM     22  H   LIG    1       25.301 -12.891   3.927  0.00  0.00    +0.122 HD
ATOM     23  C   LIG    1       25.219 -14.359   2.483  0.00  0.00    +0.101 C 
ENDBRANCH   1  17
TORSDOF 2
ENDMDL
MODEL 9
REMARK VINA RESULT:       0.6      2.629      6.393
REMARK  Name = *****
REMARK                            x       y       z     vdW  Elec       q    Type
REMARK                         _______ _______ _______ _____ _____    ______ ____
ROOT
ATOM      1  S   LIG    1       22.369 -17.808   4.467  0.00  0.00    +0.062 S 
ATOM      2  O   LIG    1       22.136 -16.999   5.651  0.00  0.00    -0.153 OA
ATOM      3  O   LIG    1       21.405 -17.768   3.395  0.00  0.00    -0.153 OA
ENDROOT
BRANCH   1   4
ATOM      4  C   LIG    1       23.981 -17.287   3.840  0.00  0.00    +0.116 A 
ATOM      5  C   LIG    1       24.455 -15.938   3.887  0.00  0.00    +0.047 A 
ATOM      6  C   LIG    1       25.845 -15.737   3.656  0.00  0.00    +0.005 A 
ATOM      7  C   LIG    1       26.375 -14.444   3.749  0.00  0.00    +0.119 A 
ATOM      8  N   LIG    1       25.659 -13.335   4.019  0.00  0.00    -0.260 NA
ATOM      9  C   LIG    1       24.337 -13.522   4.189  0.00  0.00    +0.149 A 
ATOM     10  C   LIG    1       26.694 -16.807   3.338  0.00  0.00    +0.010 A 
ATOM     11  C   LIG    1       26.201 -18.101   3.244  0.00  0.00    +0.003 A 
ATOM     12  C   LIG    1       23.708 -14.760   4.120  0.00  0.00    +0.151 A 
ATOM     13  F   LIG    1       22.372 -14.771   4.187  0.00  0.00    -0.203 F 
ATOM     14  C   LIG    1       24.859 -18.342   3.507  0.00  0.00    +0.029 A 
ENDBRANCH   1   4
BRANCH   1  17
ATOM     15  C   LIG    1       23.164 -20.653   7.061  0.00  0.00    +0.027 C 
ATOM     16  C   LIG    1       23.689 -19.673   6.007  0.00  0.00    +0.090 C 
ATOM     17  N   LIG    1       22.634 -19.415   4.979  0.00  0.00    -0.172 NA
ATOM     18  C   LIG    1       22.359 -20.499   4.002  0.00  0.00    +0.111 C 
ATOM     19  C   LIG    1       23.492 -20.645   2.987  0.00  0.00    +0.032 C 
ATOM     20  C   LIG    1       24.623 -21.571   3.429  0.00  0.00    +0.082 C 
ATOM     21  N   LIG    1       25.076 -21.479   4.809  0.00  0.00    -0.314 NA
ATOM     22  H   LIG    1       24.560 -22.133   5.394  0.00  0.00    +0.122 HD
ATOM     23  C   LIG    1       25.040 -20.129   5.387  0.00  0.00    +0.101 C 
ENDBRANCH   1  17
TORSDOF 2
ENDMDL
