MODEL 1
REMARK VINA RESULT:      -8.7      0.000      0.000
REMARK  Name = *****
REMARK                            x       y       z     vdW  Elec       q    Type
REMARK                         _______ _______ _______ _____ _____    ______ ____
ROOT
ATOM      1  C   LIG    1       24.430 -20.398   5.177  0.00  0.00    +0.002 C 
ATOM      2  C   LIG    1       24.437 -21.560   6.236  0.00  0.00    -0.022 C 
ATOM      3  C   LIG    1       24.982 -22.746   5.405  0.00  0.00    +0.021 C 
ATOM      4  C   LIG    1       24.828 -24.067   6.128  0.00  0.00    -0.066 C 
ATOM      5  C   LIG    1       23.415 -24.389   6.508  0.00  0.00    +0.031 C 
ATOM      6  C   LIG    1       22.815 -23.258   7.350  0.00  0.00    +0.005 C 
ATOM      7  C   LIG    1       25.954 -24.720   6.512  0.00  0.00    -0.001 C 
ATOM      8  C   LIG    1       24.288 -22.606   4.049  0.00  0.00    +0.009 C 
ATOM      9  C   LIG    1       25.291 -21.320   7.495  0.00  0.00    +0.012 C 
ATOM     10  C   LIG    1       22.975 -21.876   6.699  0.00  0.00    +0.008 C 
ATOM     11  C   LIG    1       23.966 -21.115   3.885  0.00  0.00    +0.005 C 
ENDROOT
BRANCH   7  12
ATOM     12  C   LIG    1       26.061 -25.861   7.381  0.00  0.00    -0.001 C 
ATOM     13  C   LIG    1       25.811 -27.143   6.998  0.00  0.00    -0.064 C 
ATOM     14  C   LIG    1       25.994 -28.368   7.899  0.00  0.00    +0.012 C 
ATOM     15  C   LIG    1       26.451 -28.104   9.341  0.00  0.00    +0.012 C 
ATOM     16  C   LIG    1       24.718 -29.223   7.912  0.00  0.00    +0.010 C 
ATOM     17  C   LIG    1       24.290 -29.627   6.503  0.00  0.00    +0.032 C 
ATOM     18  C   LIG    1       24.118 -28.408   5.603  0.00  0.00    +0.118 C 
ATOM     19  C   LIG    1       25.380 -27.537   5.597  0.00  0.00    +0.062 C 
BRANCH  18  20
ATOM     20  O   LIG    1       23.835 -28.859   4.280  0.00  0.00    -0.392 OA
ATOM     21  H   LIG    1       24.123 -29.786   4.221  0.00  0.00    +0.210 HD
ENDBRANCH  18  20
ENDBRANCH   7  12
BRANCH   1  22
ATOM     22  C   LIG    1       25.746 -19.572   4.937  0.00  0.00    +0.012 C 
ATOM     23  C   LIG    1       25.652 -18.729   3.653  0.00  0.00    +0.012 C 
BRANCH  22  25
ATOM     24  C   LIG    1       28.219 -20.191   5.673  0.00  0.00    -0.027 C 
ATOM     25  C   LIG    1       27.033 -20.373   5.062  0.00  0.00    -0.027 C 
BRANCH  24  26
ATOM     26  C   LIG    1       28.745 -19.078   6.562  0.00  0.00    +0.011 C 
ATOM     27  C   LIG    1       29.967 -18.402   5.913  0.00  0.00    +0.012 C 
BRANCH  26  29
ATOM     28  C   LIG    1       29.607 -21.055   7.937  0.00  0.00    +0.008 C 
ATOM     29  C   LIG    1       29.133 -19.594   7.983  0.00  0.00    -0.011 C 
ATOM     30  C   LIG    1       30.202 -18.737   8.666  0.00  0.00    +0.008 C 
ENDBRANCH  26  29
ENDBRANCH  24  26
ENDBRANCH  22  25
ENDBRANCH   1  22
TORSDOF 6
ENDMDL
MODEL 2
REMARK VINA RESULT:      -8.0      2.922      9.018
REMARK  Name = *****
REMARK                            x       y       z     vdW  Elec       q    Type
REMARK                         _______ _______ _______ _____ _____    ______ ____
ROOT
ATOM      1  C   LIG    1       25.715 -29.243   7.145  0.00  0.00    +0.002 C 
ATOM      2  C   LIG    1       25.754 -27.719   6.758  0.00  0.00    -0.022 C 
ATOM      3  C   LIG    1       24.257 -27.415   6.510  0.00  0.00    +0.021 C 
ATOM      4  C   LIG    1       24.052 -26.067   5.852  0.00  0.00    -0.066 C 
ATOM      5  C   LIG    1       24.769 -25.914   4.546  0.00  0.00    +0.031 C 
ATOM      6  C   LIG    1       26.267 -26.188   4.721  0.00  0.00    +0.005 C 
ATOM      7  C   LIG    1       23.417 -25.099   6.562  0.00  0.00    -0.001 C 
ATOM      8  C   LIG    1       23.741 -28.644   5.761  0.00  0.00    +0.009 C 
ATOM      9  C   LIG    1       26.351 -26.771   7.813  0.00  0.00    +0.012 C 
ATOM     10  C   LIG    1       26.553 -27.523   5.426  0.00  0.00    +0.008 C 
ATOM     11  C   LIG    1       24.640 -29.812   6.185  0.00  0.00    +0.005 C 
ENDROOT
BRANCH   7  12
ATOM     12  C   LIG    1       23.295 -23.703   6.240  0.00  0.00    -0.001 C 
ATOM     13  C   LIG    1       24.239 -22.765   6.525  0.00  0.00    -0.064 C 
ATOM     14  C   LIG    1       24.147 -21.291   6.119  0.00  0.00    +0.012 C 
ATOM     15  C   LIG    1       22.874 -20.856   5.379  0.00  0.00    +0.012 C 
ATOM     16  C   LIG    1       24.370 -20.382   7.337  0.00  0.00    +0.010 C 
ATOM     17  C   LIG    1       25.692 -20.685   8.038  0.00  0.00    +0.032 C 
ATOM     18  C   LIG    1       25.789 -22.155   8.432  0.00  0.00    +0.118 C 
ATOM     19  C   LIG    1       25.549 -23.073   7.227  0.00  0.00    +0.062 C 
BRANCH  18  20
ATOM     20  O   LIG    1       27.087 -22.394   8.972  0.00  0.00    -0.392 OA
ATOM     21  H   LIG    1       27.521 -23.056   8.405  0.00  0.00    +0.210 HD
ENDBRANCH  18  20
ENDBRANCH   7  12
BRANCH   1  22
ATOM     22  C   LIG    1       25.427 -29.647   8.637  0.00  0.00    +0.012 C 
ATOM     23  C   LIG    1       26.595 -30.449   9.235  0.00  0.00    +0.012 C 
BRANCH  22  25
ATOM     24  C   LIG    1       23.214 -30.351   9.922  0.00  0.00    -0.027 C 
ATOM     25  C   LIG    1       24.059 -30.268   8.876  0.00  0.00    -0.027 C 
BRANCH  24  26
ATOM     26  C   LIG    1       23.280 -29.786  11.330  0.00  0.00    +0.011 C 
ATOM     27  C   LIG    1       24.302 -30.567  12.176  0.00  0.00    +0.012 C 
BRANCH  26  29
ATOM     28  C   LIG    1       21.517 -28.429  12.592  0.00  0.00    +0.008 C 
ATOM     29  C   LIG    1       21.890 -29.814  12.040  0.00  0.00    -0.011 C 
ATOM     30  C   LIG    1       20.761 -30.319  11.137  0.00  0.00    +0.008 C 
ENDBRANCH  26  29
ENDBRANCH  24  26
ENDBRANCH  22  25
ENDBRANCH   1  22
TORSDOF 6
ENDMDL
MODEL 3
REMARK VINA RESULT:      -7.5      4.977      8.815
REMARK  Name = *****
REMARK                            x       y       z     vdW  Elec       q    Type
REMARK                         _______ _______ _______ _____ _____    ______ ____
ROOT
ATOM      1  C   LIG    1       25.868 -29.579   8.426  0.00  0.00    +0.002 C 
ATOM      2  C   LIG    1       24.893 -30.243   9.465  0.00  0.00    -0.022 C 
ATOM      3  C   LIG    1       24.943 -29.236  10.638  0.00  0.00    +0.021 C 
ATOM      4  C   LIG    1       24.294 -29.787  11.891  0.00  0.00    -0.066 C 
ATOM      5  C   LIG    1       24.895 -31.072  12.370  0.00  0.00    +0.031 C 
ATOM      6  C   LIG    1       24.865 -32.126  11.258  0.00  0.00    +0.005 C 
ATOM      7  C   LIG    1       23.159 -29.190  12.338  0.00  0.00    -0.001 C 
ATOM      8  C   LIG    1       26.416 -28.838  10.732  0.00  0.00    +0.009 C 
ATOM      9  C   LIG    1       23.448 -30.472   8.985  0.00  0.00    +0.012 C 
ATOM     10  C   LIG    1       25.467 -31.621   9.937  0.00  0.00    +0.008 C 
ATOM     11  C   LIG    1       26.999 -29.022   9.325  0.00  0.00    +0.005 C 
ENDROOT
BRANCH   7  12
ATOM     12  C   LIG    1       22.261 -29.654  13.361  0.00  0.00    -0.001 C 
ATOM     13  C   LIG    1       21.012 -29.155  13.568  0.00  0.00    -0.064 C 
ATOM     14  C   LIG    1       20.025 -29.695  14.607  0.00  0.00    +0.012 C 
ATOM     15  C   LIG    1       20.515 -30.849  15.493  0.00  0.00    +0.012 C 
ATOM     16  C   LIG    1       19.497 -28.555  15.491  0.00  0.00    +0.010 C 
ATOM     17  C   LIG    1       18.876 -27.434  14.663  0.00  0.00    +0.032 C 
ATOM     18  C   LIG    1       19.855 -26.904  13.621  0.00  0.00    +0.118 C 
ATOM     19  C   LIG    1       20.402 -28.036  12.744  0.00  0.00    +0.062 C 
BRANCH  18  20
ATOM     20  O   LIG    1       19.177 -25.947  12.809  0.00  0.00    -0.392 OA
ATOM     21  H   LIG    1       19.273 -26.231  11.883  0.00  0.00    +0.210 HD
ENDBRANCH  18  20
ENDBRANCH   7  12
BRANCH   1  22
ATOM     22  C   LIG    1       25.312 -28.478   7.450  0.00  0.00    +0.012 C 
ATOM     23  C   LIG    1       25.037 -29.055   6.052  0.00  0.00    +0.012 C 
BRANCH  22  25
ATOM     24  C   LIG    1       25.943 -25.965   6.877  0.00  0.00    -0.027 C 
ATOM     25  C   LIG    1       26.101 -27.177   7.442  0.00  0.00    -0.027 C 
BRANCH  24  26
ATOM     26  C   LIG    1       24.834 -25.377   6.023  0.00  0.00    +0.011 C 
ATOM     27  C   LIG    1       25.128 -25.603   4.529  0.00  0.00    +0.012 C 
BRANCH  26  29
ATOM     28  C   LIG    1       23.246 -23.562   6.877  0.00  0.00    +0.008 C 
ATOM     29  C   LIG    1       24.635 -23.851   6.287  0.00  0.00    -0.011 C 
ATOM     30  C   LIG    1       25.707 -23.252   7.201  0.00  0.00    +0.008 C 
ENDBRANCH  26  29
ENDBRANCH  24  26
ENDBRANCH  22  25
ENDBRANCH   1  22
TORSDOF 6
ENDMDL
MODEL 4
REMARK VINA RESULT:      -7.5      4.776      8.849
REMARK  Name = *****
REMARK                            x       y       z     vdW  Elec       q    Type
REMARK                         _______ _______ _______ _____ _____    ______ ____
ROOT
ATOM      1  C   LIG    1       25.675 -29.866   8.721  0.00  0.00    +0.002 C 
ATOM      2  C   LIG    1       24.579 -30.440   9.691  0.00  0.00    -0.022 C 
ATOM      3  C   LIG    1       24.497 -29.335  10.770  0.00  0.00    +0.021 C 
ATOM      4  C   LIG    1       23.700 -29.776  11.979  0.00  0.00    -0.066 C 
ATOM      5  C   LIG    1       24.230 -31.014  12.636  0.00  0.00    +0.031 C 
ATOM      6  C   LIG    1       24.324 -32.160  11.624  0.00  0.00    +0.005 C 
ATOM      7  C   LIG    1       22.525 -29.146  12.235  0.00  0.00    -0.001 C 
ATOM      8  C   LIG    1       25.952 -28.926  11.003  0.00  0.00    +0.009 C 
ATOM      9  C   LIG    1       23.200 -30.714   9.064  0.00  0.00    +0.012 C 
ATOM     10  C   LIG    1       25.083 -31.771  10.345  0.00  0.00    +0.008 C 
ATOM     11  C   LIG    1       26.696 -29.230   9.697  0.00  0.00    +0.005 C 
ENDROOT
BRANCH   7  12
ATOM     12  C   LIG    1       21.508 -29.522  13.180  0.00  0.00    -0.001 C 
ATOM     13  C   LIG    1       20.574 -30.487  12.958  0.00  0.00    -0.064 C 
ATOM     14  C   LIG    1       19.536 -30.942  13.989  0.00  0.00    +0.012 C 
ATOM     15  C   LIG    1       19.540 -30.216  15.341  0.00  0.00    +0.012 C 
ATOM     16  C   LIG    1       18.124 -30.899  13.386  0.00  0.00    +0.010 C 
ATOM     17  C   LIG    1       18.029 -31.718  12.101  0.00  0.00    +0.032 C 
ATOM     18  C   LIG    1       19.070 -31.273  11.079  0.00  0.00    +0.118 C 
ATOM     19  C   LIG    1       20.482 -31.294  11.676  0.00  0.00    +0.062 C 
BRANCH  18  20
ATOM     20  O   LIG    1       19.005 -32.150   9.957  0.00  0.00    -0.392 OA
ATOM     21  H   LIG    1       18.280 -31.841   9.387  0.00  0.00    +0.210 HD
ENDBRANCH  18  20
ENDBRANCH   7  12
BRANCH   1  22
ATOM     22  C   LIG    1       25.248 -28.856   7.595  0.00  0.00    +0.012 C 
ATOM     23  C   LIG    1       25.133 -29.554   6.229  0.00  0.00    +0.012 C 
BRANCH  22  25
ATOM     24  C   LIG    1       25.904 -26.362   6.965  0.00  0.00    -0.027 C 
ATOM     25  C   LIG    1       26.044 -27.560   7.566  0.00  0.00    -0.027 C 
BRANCH  24  26
ATOM     26  C   LIG    1       24.814 -25.793   6.075  0.00  0.00    +0.011 C 
ATOM     27  C   LIG    1       25.120 -26.085   4.595  0.00  0.00    +0.012 C 
BRANCH  26  29
ATOM     28  C   LIG    1       23.214 -23.912   6.743  0.00  0.00    +0.008 C 
ATOM     29  C   LIG    1       24.637 -24.255   6.274  0.00  0.00    -0.011 C 
ATOM     30  C   LIG    1       25.650 -23.652   7.250  0.00  0.00    +0.008 C 
ENDBRANCH  26  29
ENDBRANCH  24  26
ENDBRANCH  22  25
ENDBRANCH   1  22
TORSDOF 6
ENDMDL
MODEL 5
REMARK VINA RESULT:      -7.2      5.441      9.326
REMARK  Name = *****
REMARK                            x       y       z     vdW  Elec       q    Type
REMARK                         _______ _______ _______ _____ _____    ______ ____
ROOT
ATOM      1  C   LIG    1       24.875 -31.915   8.136  0.00  0.00    +0.002 C 
ATOM      2  C   LIG    1       24.542 -31.290   9.539  0.00  0.00    -0.022 C 
ATOM      3  C   LIG    1       25.753 -30.356   9.768  0.00  0.00    +0.021 C 
ATOM      4  C   LIG    1       25.812 -29.835  11.188  0.00  0.00    -0.066 C 
ATOM      5  C   LIG    1       25.867 -30.913  12.227  0.00  0.00    +0.031 C 
ATOM      6  C   LIG    1       24.682 -31.871  12.069  0.00  0.00    +0.005 C 
ATOM      7  C   LIG    1       25.630 -28.505  11.389  0.00  0.00    -0.001 C 
ATOM      8  C   LIG    1       26.952 -31.164   9.269  0.00  0.00    +0.009 C 
ATOM      9  C   LIG    1       23.214 -30.518   9.636  0.00  0.00    +0.012 C 
ATOM     10  C   LIG    1       24.530 -32.407  10.637  0.00  0.00    +0.008 C 
ATOM     11  C   LIG    1       26.406 -32.131   8.212  0.00  0.00    +0.005 C 
ENDROOT
BRANCH   7  12
ATOM     12  C   LIG    1       25.434 -27.818  12.638  0.00  0.00    -0.001 C 
ATOM     13  C   LIG    1       24.255 -27.788  13.319  0.00  0.00    -0.064 C 
ATOM     14  C   LIG    1       24.060 -27.121  14.683  0.00  0.00    +0.012 C 
ATOM     15  C   LIG    1       25.278 -26.407  15.285  0.00  0.00    +0.012 C 
ATOM     16  C   LIG    1       22.865 -26.157  14.645  0.00  0.00    +0.010 C 
ATOM     17  C   LIG    1       21.589 -26.850  14.177  0.00  0.00    +0.032 C 
ATOM     18  C   LIG    1       21.787 -27.524  12.823  0.00  0.00    +0.118 C 
ATOM     19  C   LIG    1       22.988 -28.476  12.844  0.00  0.00    +0.062 C 
BRANCH  18  20
ATOM     20  O   LIG    1       20.601 -28.248  12.501  0.00  0.00    -0.392 OA
ATOM     21  H   LIG    1       20.047 -27.669  11.950  0.00  0.00    +0.210 HD
ENDBRANCH  18  20
ENDBRANCH   7  12
BRANCH   1  22
ATOM     22  C   LIG    1       24.467 -31.135   6.833  0.00  0.00    +0.012 C 
ATOM     23  C   LIG    1       23.456 -31.934   5.993  0.00  0.00    +0.012 C 
BRANCH  22  25
ATOM     24  C   LIG    1       25.877 -29.427   5.372  0.00  0.00    -0.027 C 
ATOM     25  C   LIG    1       25.634 -30.574   6.034  0.00  0.00    -0.027 C 
BRANCH  24  26
ATOM     26  C   LIG    1       25.059 -28.160   5.195  0.00  0.00    +0.011 C 
ATOM     27  C   LIG    1       25.798 -27.163   4.286  0.00  0.00    +0.012 C 
BRANCH  26  29
ATOM     28  C   LIG    1       25.964 -27.459   7.483  0.00  0.00    +0.008 C 
ATOM     29  C   LIG    1       24.735 -27.475   6.560  0.00  0.00    -0.011 C 
ATOM     30  C   LIG    1       24.199 -26.048   6.408  0.00  0.00    +0.008 C 
ENDBRANCH  26  29
ENDBRANCH  24  26
ENDBRANCH  22  25
ENDBRANCH   1  22
TORSDOF 6
ENDMDL
MODEL 6
REMARK VINA RESULT:      -7.2      5.652      9.615
REMARK  Name = *****
REMARK                            x       y       z     vdW  Elec       q    Type
REMARK                         _______ _______ _______ _____ _____    ______ ____
ROOT
ATOM      1  C   LIG    1       26.011 -27.749  13.883  0.00  0.00    +0.002 C 
ATOM      2  C   LIG    1       26.285 -28.185  12.397  0.00  0.00    -0.022 C 
ATOM      3  C   LIG    1       25.074 -29.104  12.106  0.00  0.00    +0.021 C 
ATOM      4  C   LIG    1       25.245 -29.879  10.817  0.00  0.00    -0.066 C 
ATOM      5  C   LIG    1       26.479 -30.728  10.778  0.00  0.00    +0.031 C 
ATOM      6  C   LIG    1       27.724 -29.875  11.045  0.00  0.00    +0.005 C 
ATOM      7  C   LIG    1       24.400 -29.604   9.790  0.00  0.00    -0.001 C 
ATOM      8  C   LIG    1       24.897 -29.914  13.391  0.00  0.00    +0.009 C 
ATOM      9  C   LIG    1       26.383 -27.046  11.367  0.00  0.00    +0.012 C 
ATOM     10  C   LIG    1       27.605 -29.022  12.317  0.00  0.00    +0.008 C 
ATOM     11  C   LIG    1       25.460 -29.047  14.525  0.00  0.00    +0.005 C 
ENDROOT
BRANCH   7  12
ATOM     12  C   LIG    1       24.496 -30.047   8.425  0.00  0.00    -0.001 C 
ATOM     13  C   LIG    1       25.104 -29.342   7.431  0.00  0.00    -0.064 C 
ATOM     14  C   LIG    1       25.274 -29.842   5.994  0.00  0.00    +0.012 C 
ATOM     15  C   LIG    1       24.670 -31.213   5.662  0.00  0.00    +0.012 C 
ATOM     16  C   LIG    1       24.754 -28.796   4.996  0.00  0.00    +0.010 C 
ATOM     17  C   LIG    1       25.421 -27.438   5.196  0.00  0.00    +0.032 C 
ATOM     18  C   LIG    1       25.262 -26.946   6.631  0.00  0.00    +0.118 C 
ATOM     19  C   LIG    1       25.761 -27.989   7.637  0.00  0.00    +0.062 C 
BRANCH  18  20
ATOM     20  O   LIG    1       26.004 -25.737   6.779  0.00  0.00    -0.392 OA
ATOM     21  H   LIG    1       26.773 -25.793   6.186  0.00  0.00    +0.210 HD
ENDBRANCH  18  20
ENDBRANCH   7  12
BRANCH   1  22
ATOM     22  C   LIG    1       25.066 -26.523  14.159  0.00  0.00    +0.012 C 
ATOM     23  C   LIG    1       25.852 -25.322  14.711  0.00  0.00    +0.012 C 
BRANCH  22  25
ATOM     24  C   LIG    1       22.556 -27.248  14.628  0.00  0.00    -0.027 C 
ATOM     25  C   LIG    1       23.805 -26.855  14.944  0.00  0.00    -0.027 C 
BRANCH  24  26
ATOM     26  C   LIG    1       21.899 -27.577  13.300  0.00  0.00    +0.011 C 
ATOM     27  C   LIG    1       20.729 -26.615  13.025  0.00  0.00    +0.012 C 
BRANCH  26  29
ATOM     28  C   LIG    1       19.990 -29.175  13.890  0.00  0.00    +0.008 C 
ATOM     29  C   LIG    1       21.381 -29.050  13.250  0.00  0.00    -0.011 C 
ATOM     30  C   LIG    1       21.339 -29.627  11.832  0.00  0.00    +0.008 C 
ENDBRANCH  26  29
ENDBRANCH  24  26
ENDBRANCH  22  25
ENDBRANCH   1  22
TORSDOF 6
ENDMDL
MODEL 7
REMARK VINA RESULT:      -7.0      2.884      4.914
REMARK  Name = *****
REMARK                            x       y       z     vdW  Elec       q    Type
REMARK                         _______ _______ _______ _____ _____    ______ ____
ROOT
ATOM      1  C   LIG    1       24.418 -23.463   6.061  0.00  0.00    +0.002 C 
ATOM      2  C   LIG    1       24.625 -25.015   5.914  0.00  0.00    -0.022 C 
ATOM      3  C   LIG    1       25.635 -25.312   7.047  0.00  0.00    +0.021 C 
ATOM      4  C   LIG    1       26.213 -26.708   6.944  0.00  0.00    -0.066 C 
ATOM      5  C   LIG    1       26.897 -26.986   5.641  0.00  0.00    +0.031 C 
ATOM      6  C   LIG    1       25.945 -26.726   4.469  0.00  0.00    +0.005 C 
ATOM      7  C   LIG    1       25.910 -27.598   7.923  0.00  0.00    -0.001 C 
ATOM      8  C   LIG    1       26.619 -24.142   6.992  0.00  0.00    +0.009 C 
ATOM      9  C   LIG    1       23.359 -25.880   6.051  0.00  0.00    +0.012 C 
ATOM     10  C   LIG    1       25.282 -25.341   4.530  0.00  0.00    +0.008 C 
ATOM     11  C   LIG    1       25.843 -22.959   6.398  0.00  0.00    +0.005 C 
ENDROOT
BRANCH   7  12
ATOM     12  C   LIG    1       26.159 -29.015   7.937  0.00  0.00    -0.001 C 
ATOM     13  C   LIG    1       25.284 -29.942   8.413  0.00  0.00    -0.064 C 
ATOM     14  C   LIG    1       25.513 -31.456   8.363  0.00  0.00    +0.012 C 
ATOM     15  C   LIG    1       26.846 -31.934   7.771  0.00  0.00    +0.012 C 
ATOM     16  C   LIG    1       25.316 -32.076   9.754  0.00  0.00    +0.010 C 
ATOM     17  C   LIG    1       23.946 -31.740  10.338  0.00  0.00    +0.032 C 
ATOM     18  C   LIG    1       23.713 -30.233  10.378  0.00  0.00    +0.118 C 
ATOM     19  C   LIG    1       23.926 -29.600   8.998  0.00  0.00    +0.062 C 
BRANCH  18  20
ATOM     20  O   LIG    1       22.380 -29.993  10.820  0.00  0.00    -0.392 OA
ATOM     21  H   LIG    1       21.858 -30.789  10.618  0.00  0.00    +0.210 HD
ENDBRANCH  18  20
ENDBRANCH   7  12
BRANCH   1  22
ATOM     22  C   LIG    1       23.359 -22.926   7.091  0.00  0.00    +0.012 C 
ATOM     23  C   LIG    1       21.929 -23.317   6.680  0.00  0.00    +0.012 C 
BRANCH  22  25
ATOM     24  C   LIG    1       23.480 -20.292   6.798  0.00  0.00    -0.027 C 
ATOM     25  C   LIG    1       23.520 -21.461   7.466  0.00  0.00    -0.027 C 
BRANCH  24  26
ATOM     26  C   LIG    1       23.198 -19.960   5.344  0.00  0.00    +0.011 C 
ATOM     27  C   LIG    1       21.956 -20.722   4.849  0.00  0.00    +0.012 C 
BRANCH  26  29
ATOM     28  C   LIG    1       24.025 -21.305   3.331  0.00  0.00    +0.008 C 
ATOM     29  C   LIG    1       24.412 -20.292   4.420  0.00  0.00    -0.011 C 
ATOM     30  C   LIG    1       25.027 -19.053   3.762  0.00  0.00    +0.008 C 
ENDBRANCH  26  29
ENDBRANCH  24  26
ENDBRANCH  22  25
ENDBRANCH   1  22
TORSDOF 6
ENDMDL
MODEL 8
REMARK VINA RESULT:      -6.9      6.144     10.186
REMARK  Name = *****
REMARK                            x       y       z     vdW  Elec       q    Type
REMARK                         _______ _______ _______ _____ _____    ______ ____
ROOT
ATOM      1  C   LIG    1       25.229 -29.725  11.793  0.00  0.00    +0.002 C 
ATOM      2  C   LIG    1       23.876 -29.726  12.595  0.00  0.00    -0.022 C 
ATOM      3  C   LIG    1       23.506 -28.224  12.600  0.00  0.00    +0.021 C 
ATOM      4  C   LIG    1       22.371 -27.919  13.554  0.00  0.00    -0.066 C 
ATOM      5  C   LIG    1       22.645 -28.324  14.970  0.00  0.00    +0.031 C 
ATOM      6  C   LIG    1       23.005 -29.811  15.043  0.00  0.00    +0.005 C 
ATOM      7  C   LIG    1       21.192 -27.497  13.031  0.00  0.00    -0.001 C 
ATOM      8  C   LIG    1       24.836 -27.508  12.843  0.00  0.00    +0.009 C 
ATOM      9  C   LIG    1       22.741 -30.580  12.003  0.00  0.00    +0.012 C 
ATOM     10  C   LIG    1       24.123 -30.206  14.065  0.00  0.00    +0.008 C 
ATOM     11  C   LIG    1       25.928 -28.441  12.304  0.00  0.00    +0.005 C 
ENDROOT
BRANCH   7  12
ATOM     12  C   LIG    1       19.928 -27.352  13.702  0.00  0.00    -0.001 C 
ATOM     13  C   LIG    1       19.136 -28.393  14.078  0.00  0.00    -0.064 C 
ATOM     14  C   LIG    1       17.827 -28.248  14.859  0.00  0.00    +0.012 C 
ATOM     15  C   LIG    1       17.374 -26.819  15.190  0.00  0.00    +0.012 C 
ATOM     16  C   LIG    1       16.690 -28.995  14.146  0.00  0.00    +0.010 C 
ATOM     17  C   LIG    1       17.035 -30.463  13.907  0.00  0.00    +0.032 C 
ATOM     18  C   LIG    1       18.346 -30.608  13.140  0.00  0.00    +0.118 C 
ATOM     19  C   LIG    1       19.484 -29.850  13.833  0.00  0.00    +0.062 C 
BRANCH  18  20
ATOM     20  O   LIG    1       18.668 -31.994  13.055  0.00  0.00    -0.392 OA
ATOM     21  H   LIG    1       18.026 -32.406  12.451  0.00  0.00    +0.210 HD
ENDBRANCH  18  20
ENDBRANCH   7  12
BRANCH   1  22
ATOM     22  C   LIG    1       25.188 -29.772  10.222  0.00  0.00    +0.012 C 
ATOM     23  C   LIG    1       25.184 -31.220   9.705  0.00  0.00    +0.012 C 
BRANCH  22  25
ATOM     24  C   LIG    1       26.227 -28.175   8.375  0.00  0.00    -0.027 C 
ATOM     25  C   LIG    1       26.196 -28.867   9.530  0.00  0.00    -0.027 C 
BRANCH  24  26
ATOM     26  C   LIG    1       25.196 -27.980   7.278  0.00  0.00    +0.011 C 
ATOM     27  C   LIG    1       25.132 -29.224   6.372  0.00  0.00    +0.012 C 
BRANCH  26  29
ATOM     28  C   LIG    1       26.207 -27.101   5.099  0.00  0.00    +0.008 C 
ATOM     29  C   LIG    1       25.497 -26.720   6.407  0.00  0.00    -0.011 C 
ATOM     30  C   LIG    1       24.246 -25.898   6.082  0.00  0.00    +0.008 C 
ENDBRANCH  26  29
ENDBRANCH  24  26
ENDBRANCH  22  25
ENDBRANCH   1  22
TORSDOF 6
ENDMDL
MODEL 9
REMARK VINA RESULT:      -6.9      7.242      9.247
REMARK  Name = *****
REMARK                            x       y       z     vdW  Elec       q    Type
REMARK                         _______ _______ _______ _____ _____    ______ ____
ROOT
ATOM      1  C   LIG    1       21.540 -28.695  14.482  0.00  0.00    +0.002 C 
ATOM      2  C   LIG    1       22.599 -29.661  13.835  0.00  0.00    -0.022 C 
ATOM      3  C   LIG    1       22.438 -29.348  12.328  0.00  0.00    +0.021 C 
ATOM      4  C   LIG    1       23.161 -30.353  11.457  0.00  0.00    -0.066 C 
ATOM      5  C   LIG    1       22.725 -31.770  11.676  0.00  0.00    +0.031 C 
ATOM      6  C   LIG    1       22.873 -32.154  13.152  0.00  0.00    +0.005 C 
ATOM      7  C   LIG    1       24.218 -29.920  10.724  0.00  0.00    -0.001 C 
ATOM      8  C   LIG    1       20.927 -29.210  12.131  0.00  0.00    +0.009 C 
ATOM      9  C   LIG    1       24.056 -29.470  14.293  0.00  0.00    +0.012 C 
ATOM     10  C   LIG    1       22.201 -31.151  14.103  0.00  0.00    +0.008 C 
ATOM     11  C   LIG    1       20.358 -28.765  13.484  0.00  0.00    +0.005 C 
ENDROOT
BRANCH   7  12
ATOM     12  C   LIG    1       25.176 -30.712  10.001  0.00  0.00    -0.001 C 
ATOM     13  C   LIG    1       25.344 -30.668   8.651  0.00  0.00    -0.064 C 
ATOM     14  C   LIG    1       26.411 -31.454   7.884  0.00  0.00    +0.012 C 
ATOM     15  C   LIG    1       27.313 -32.382   8.710  0.00  0.00    +0.012 C 
ATOM     16  C   LIG    1       25.773 -32.247   6.733  0.00  0.00    +0.010 C 
ATOM     17  C   LIG    1       24.967 -31.347   5.800  0.00  0.00    +0.032 C 
ATOM     18  C   LIG    1       23.912 -30.555   6.566  0.00  0.00    +0.118 C 
ATOM     19  C   LIG    1       24.535 -29.774   7.728  0.00  0.00    +0.062 C 
BRANCH  18  20
ATOM     20  O   LIG    1       23.279 -29.653   5.661  0.00  0.00    -0.392 OA
ATOM     21  H   LIG    1       23.831 -29.608   4.861  0.00  0.00    +0.210 HD
ENDBRANCH  18  20
ENDBRANCH   7  12
BRANCH   1  22
ATOM     22  C   LIG    1       21.948 -27.208  14.789  0.00  0.00    +0.012 C 
ATOM     23  C   LIG    1       20.813 -26.451  15.500  0.00  0.00    +0.012 C 
BRANCH  22  25
ATOM     24  C   LIG    1       23.772 -25.963  13.316  0.00  0.00    -0.027 C 
ATOM     25  C   LIG    1       22.554 -26.457  13.612  0.00  0.00    -0.027 C 
BRANCH  24  26
ATOM     26  C   LIG    1       25.095 -26.007  14.059  0.00  0.00    +0.011 C 
ATOM     27  C   LIG    1       25.138 -24.920  15.148  0.00  0.00    +0.012 C 
BRANCH  26  29
ATOM     28  C   LIG    1       27.492 -25.146  13.813  0.00  0.00    +0.008 C 
ATOM     29  C   LIG    1       26.313 -25.827  13.099  0.00  0.00    -0.011 C 
ATOM     30  C   LIG    1       26.791 -27.141  12.476  0.00  0.00    +0.008 C 
ENDBRANCH  26  29
ENDBRANCH  24  26
ENDBRANCH  22  25
ENDBRANCH   1  22
TORSDOF 6
ENDMDL
