MODEL 1
REMARK VINA RESULT:      -5.0      0.000      0.000
REMARK  Name = *****
REMARK                            x       y       z     vdW  Elec       q    Type
REMARK                         _______ _______ _______ _____ _____    ______ ____
ROOT
ATOM      1  C   LIG    1       25.063 -17.671   3.663  0.00  0.00    +0.258 C 
ATOM      2  N   LIG    1       24.442 -16.497   4.041  0.00  0.00    -0.281 N 
ATOM      3  H   LIG    1       23.543 -16.601   4.498  0.00  0.00    +0.155 HD
ATOM      4  O   LIG    1       26.017 -17.738   2.883  0.00  0.00    -0.269 OA
ENDROOT
BRANCH   1  11
ATOM      5  C   LIG    1       22.092 -17.858   4.152  0.00  0.00    +0.087 C 
ATOM      6  C   LIG    1       23.055 -18.986   4.418  0.00  0.00    +0.113 C 
ATOM      7  O   LIG    1       22.379 -20.088   4.923  0.00  0.00    -0.494 OA
ATOM      8  C   LIG    1       23.153 -21.019   5.679  0.00  0.00    +0.239 C 
ATOM      9  C   LIG    1       24.299 -21.571   4.860  0.00  0.00    +0.115 C 
ATOM     10  S   LIG    1       25.487 -20.243   4.572  0.00  0.00    -0.114 S 
ATOM     11  C   LIG    1       24.396 -18.914   4.224  0.00  0.00    +0.107 C 
ENDBRANCH   1  11
BRANCH   2  12
ATOM     12  C   LIG    1       24.803 -15.213   3.609  0.00  0.00    +0.034 A 
ATOM     13  C   LIG    1       26.086 -14.906   3.153  0.00  0.00    +0.023 A 
ATOM     14  C   LIG    1       26.384 -13.607   2.737  0.00  0.00    +0.002 A 
ATOM     15  C   LIG    1       25.391 -12.628   2.736  0.00  0.00    +0.000 A 
ATOM     16  C   LIG    1       24.109 -12.936   3.187  0.00  0.00    +0.002 A 
ATOM     17  C   LIG    1       23.825 -14.218   3.656  0.00  0.00    +0.023 A 
ENDBRANCH   2  12
TORSDOF 2
ENDMDL
MODEL 2
REMARK VINA RESULT:      -4.8      1.311      1.852
REMARK  Name = *****
REMARK                            x       y       z     vdW  Elec       q    Type
REMARK                         _______ _______ _______ _____ _____    ______ ____
ROOT
ATOM      1  C   LIG    1       25.234 -17.702   3.584  0.00  0.00    +0.258 C 
ATOM      2  N   LIG    1       24.664 -16.521   4.016  0.00  0.00    -0.281 N 
ATOM      3  H   LIG    1       23.798 -16.613   4.535  0.00  0.00    +0.155 HD
ATOM      4  O   LIG    1       26.128 -17.779   2.736  0.00  0.00    -0.269 OA
ENDROOT
BRANCH   1  11
ATOM      5  C   LIG    1       26.806 -19.867   4.977  0.00  0.00    +0.087 C 
ATOM      6  C   LIG    1       25.308 -19.891   4.822  0.00  0.00    +0.113 C 
ATOM      7  O   LIG    1       24.782 -21.042   5.393  0.00  0.00    -0.494 OA
ATOM      8  C   LIG    1       23.507 -21.466   4.914  0.00  0.00    +0.239 C 
ATOM      9  C   LIG    1       22.462 -20.389   5.109  0.00  0.00    +0.115 C 
ATOM     10  S   LIG    1       22.843 -19.018   3.999  0.00  0.00    -0.114 S 
ATOM     11  C   LIG    1       24.586 -18.938   4.181  0.00  0.00    +0.107 C 
ENDBRANCH   1  11
BRANCH   2  12
ATOM     12  C   LIG    1       25.017 -15.240   3.569  0.00  0.00    +0.034 A 
ATOM     13  C   LIG    1       26.292 -14.934   3.090  0.00  0.00    +0.023 A 
ATOM     14  C   LIG    1       26.582 -13.638   2.661  0.00  0.00    +0.002 A 
ATOM     15  C   LIG    1       25.588 -12.660   2.670  0.00  0.00    +0.000 A 
ATOM     16  C   LIG    1       24.314 -12.966   3.144  0.00  0.00    +0.002 A 
ATOM     17  C   LIG    1       24.038 -14.245   3.625  0.00  0.00    +0.023 A 
ENDBRANCH   2  12
TORSDOF 2
ENDMDL
MODEL 3
REMARK VINA RESULT:      -4.8      0.141      1.214
REMARK  Name = *****
REMARK                            x       y       z     vdW  Elec       q    Type
REMARK                         _______ _______ _______ _____ _____    ______ ____
ROOT
ATOM      1  C   LIG    1       25.008 -17.645   3.685  0.00  0.00    +0.258 C 
ATOM      2  N   LIG    1       24.374 -16.480   4.072  0.00  0.00    -0.281 N 
ATOM      3  H   LIG    1       23.463 -16.595   4.502  0.00  0.00    +0.155 HD
ATOM      4  O   LIG    1       25.983 -17.693   2.929  0.00  0.00    -0.269 OA
ENDROOT
BRANCH   1  11
ATOM      5  C   LIG    1       22.026 -17.844   4.095  0.00  0.00    +0.087 C 
ATOM      6  C   LIG    1       22.983 -18.978   4.359  0.00  0.00    +0.113 C 
ATOM      7  O   LIG    1       22.296 -20.092   4.820  0.00  0.00    -0.494 OA
ATOM      8  C   LIG    1       23.052 -21.039   5.574  0.00  0.00    +0.239 C 
ATOM      9  C   LIG    1       24.218 -21.572   4.772  0.00  0.00    +0.115 C 
ATOM     10  S   LIG    1       25.411 -20.236   4.544  0.00  0.00    -0.114 S 
ATOM     11  C   LIG    1       24.328 -18.901   4.200  0.00  0.00    +0.107 C 
ENDBRANCH   1  11
BRANCH   2  12
ATOM     12  C   LIG    1       24.744 -15.187   3.679  0.00  0.00    +0.034 A 
ATOM     13  C   LIG    1       23.850 -14.114   3.681  0.00  0.00    +0.023 A 
ATOM     14  C   LIG    1       24.279 -12.849   3.277  0.00  0.00    +0.002 A 
ATOM     15  C   LIG    1       25.609 -12.646   2.910  0.00  0.00    +0.000 A 
ATOM     16  C   LIG    1       26.503 -13.715   2.911  0.00  0.00    +0.002 A 
ATOM     17  C   LIG    1       26.062 -14.991   3.261  0.00  0.00    +0.023 A 
ENDBRANCH   2  12
TORSDOF 2
ENDMDL
MODEL 4
REMARK VINA RESULT:      -4.6      2.199      6.009
REMARK  Name = *****
REMARK                            x       y       z     vdW  Elec       q    Type
REMARK                         _______ _______ _______ _____ _____    ______ ____
ROOT
ATOM      1  C   LIG    1       25.427 -16.673   3.424  0.00  0.00    +0.258 C 
ATOM      2  N   LIG    1       24.202 -17.224   3.743  0.00  0.00    -0.281 N 
ATOM      3  H   LIG    1       23.482 -16.567   4.025  0.00  0.00    +0.155 HD
ATOM      4  O   LIG    1       26.475 -17.315   3.312  0.00  0.00    -0.269 OA
ENDROOT
BRANCH   1  11
ATOM      5  C   LIG    1       23.128 -15.001   4.436  0.00  0.00    +0.087 C 
ATOM      6  C   LIG    1       24.364 -14.423   3.795  0.00  0.00    +0.113 C 
ATOM      7  O   LIG    1       24.272 -13.039   3.734  0.00  0.00    -0.494 OA
ATOM      8  C   LIG    1       25.073 -12.391   2.747  0.00  0.00    +0.239 C 
ATOM      9  C   LIG    1       26.540 -12.704   2.939  0.00  0.00    +0.115 C 
ATOM     10  S   LIG    1       26.807 -14.447   2.553  0.00  0.00    -0.114 S 
ATOM     11  C   LIG    1       25.398 -15.159   3.316  0.00  0.00    +0.107 C 
ENDBRANCH   1  11
BRANCH   2  12
ATOM     12  C   LIG    1       23.961 -18.585   3.976  0.00  0.00    +0.034 A 
ATOM     13  C   LIG    1       24.901 -19.576   3.687  0.00  0.00    +0.023 A 
ATOM     14  C   LIG    1       24.600 -20.915   3.941  0.00  0.00    +0.002 A 
ATOM     15  C   LIG    1       23.380 -21.260   4.523  0.00  0.00    +0.000 A 
ATOM     16  C   LIG    1       22.444 -20.270   4.815  0.00  0.00    +0.002 A 
ATOM     17  C   LIG    1       22.720 -18.938   4.511  0.00  0.00    +0.023 A 
ENDBRANCH   2  12
TORSDOF 2
ENDMDL
MODEL 5
REMARK VINA RESULT:      -4.1      2.508      6.439
REMARK  Name = *****
REMARK                            x       y       z     vdW  Elec       q    Type
REMARK                         _______ _______ _______ _____ _____    ______ ____
ROOT
ATOM      1  C   LIG    1       24.086 -15.905   4.049  0.00  0.00    +0.258 C 
ATOM      2  N   LIG    1       24.534 -17.158   3.678  0.00  0.00    -0.281 N 
ATOM      3  H   LIG    1       25.236 -17.177   2.947  0.00  0.00    +0.155 HD
ATOM      4  O   LIG    1       23.072 -15.695   4.721  0.00  0.00    -0.269 OA
ENDROOT
BRANCH   1  11
ATOM      5  C   LIG    1       27.064 -16.103   3.605  0.00  0.00    +0.087 C 
ATOM      6  C   LIG    1       26.245 -14.888   3.251  0.00  0.00    +0.113 C 
ATOM      7  O   LIG    1       27.058 -13.898   2.718  0.00  0.00    -0.494 OA
ATOM      8  C   LIG    1       26.570 -12.559   2.801  0.00  0.00    +0.239 C 
ATOM      9  C   LIG    1       25.233 -12.419   2.109  0.00  0.00    +0.115 C 
ATOM     10  S   LIG    1       23.999 -13.328   3.062  0.00  0.00    -0.114 S 
ATOM     11  C   LIG    1       24.910 -14.772   3.462  0.00  0.00    +0.107 C 
ENDBRANCH   1  11
BRANCH   2  12
ATOM     12  C   LIG    1       23.918 -18.371   4.014  0.00  0.00    +0.034 A 
ATOM     13  C   LIG    1       22.583 -18.451   4.418  0.00  0.00    +0.023 A 
ATOM     14  C   LIG    1       22.027 -19.690   4.741  0.00  0.00    +0.002 A 
ATOM     15  C   LIG    1       22.790 -20.851   4.620  0.00  0.00    +0.000 A 
ATOM     16  C   LIG    1       24.120 -20.772   4.213  0.00  0.00    +0.002 A 
ATOM     17  C   LIG    1       24.693 -19.530   3.944  0.00  0.00    +0.023 A 
ENDBRANCH   2  12
TORSDOF 2
ENDMDL
MODEL 6
REMARK VINA RESULT:      -3.8      2.612      3.098
REMARK  Name = *****
REMARK                            x       y       z     vdW  Elec       q    Type
REMARK                         _______ _______ _______ _____ _____    ______ ____
ROOT
ATOM      1  C   LIG    1       26.554 -17.472   3.708  0.00  0.00    +0.258 C 
ATOM      2  N   LIG    1       26.685 -16.167   4.140  0.00  0.00    -0.281 N 
ATOM      3  H   LIG    1       27.087 -16.046   5.063  0.00  0.00    +0.155 HD
ATOM      4  O   LIG    1       25.866 -17.825   2.745  0.00  0.00    -0.269 OA
ENDROOT
BRANCH   1  11
ATOM      5  C   LIG    1       25.308 -20.087   4.552  0.00  0.00    +0.087 C 
ATOM      6  C   LIG    1       26.696 -19.656   4.949  0.00  0.00    +0.113 C 
ATOM      7  O   LIG    1       27.288 -20.620   5.754  0.00  0.00    -0.494 OA
ATOM      8  C   LIG    1       28.345 -20.177   6.604  0.00  0.00    +0.239 C 
ATOM      9  C   LIG    1       29.468 -19.555   5.805  0.00  0.00    +0.115 C 
ATOM     10  S   LIG    1       28.876 -18.001   5.104  0.00  0.00    -0.114 S 
ATOM     11  C   LIG    1       27.265 -18.476   4.597  0.00  0.00    +0.107 C 
ENDBRANCH   1  11
BRANCH   2  12
ATOM     12  C   LIG    1       26.072 -15.053   3.552  0.00  0.00    +0.034 A 
ATOM     13  C   LIG    1       26.721 -14.242   2.618  0.00  0.00    +0.023 A 
ATOM     14  C   LIG    1       26.056 -13.144   2.069  0.00  0.00    +0.002 A 
ATOM     15  C   LIG    1       24.731 -12.882   2.419  0.00  0.00    +0.000 A 
ATOM     16  C   LIG    1       24.082 -13.694   3.347  0.00  0.00    +0.002 A 
ATOM     17  C   LIG    1       24.763 -14.757   3.939  0.00  0.00    +0.023 A 
ENDBRANCH   2  12
TORSDOF 2
ENDMDL
MODEL 7
REMARK VINA RESULT:      -3.1      1.820      2.578
REMARK  Name = *****
REMARK                            x       y       z     vdW  Elec       q    Type
REMARK                         _______ _______ _______ _____ _____    ______ ____
ROOT
ATOM      1  C   LIG    1       23.345 -16.490   4.208  0.00  0.00    +0.258 C 
ATOM      2  N   LIG    1       24.285 -15.637   3.665  0.00  0.00    -0.281 N 
ATOM      3  H   LIG    1       25.170 -16.061   3.407  0.00  0.00    +0.155 HD
ATOM      4  O   LIG    1       22.331 -16.122   4.808  0.00  0.00    -0.269 OA
ENDROOT
BRANCH   1  11
ATOM      5  C   LIG    1       26.064 -17.415   3.284  0.00  0.00    +0.087 C 
ATOM      6  C   LIG    1       24.956 -18.352   3.692  0.00  0.00    +0.113 C 
ATOM      7  O   LIG    1       25.370 -19.671   3.566  0.00  0.00    -0.494 OA
ATOM      8  C   LIG    1       24.341 -20.650   3.420  0.00  0.00    +0.239 C 
ATOM      9  C   LIG    1       23.388 -20.622   4.594  0.00  0.00    +0.115 C 
ATOM     10  S   LIG    1       22.450 -19.081   4.532  0.00  0.00    -0.114 S 
ATOM     11  C   LIG    1       23.722 -17.956   4.091  0.00  0.00    +0.107 C 
ENDBRANCH   1  11
BRANCH   2  12
ATOM     12  C   LIG    1       24.227 -14.237   3.701  0.00  0.00    +0.034 A 
ATOM     13  C   LIG    1       24.223 -13.515   4.896  0.00  0.00    +0.023 A 
ATOM     14  C   LIG    1       24.162 -12.120   4.867  0.00  0.00    +0.002 A 
ATOM     15  C   LIG    1       24.149 -11.447   3.645  0.00  0.00    +0.000 A 
ATOM     16  C   LIG    1       24.157 -12.168   2.452  0.00  0.00    +0.002 A 
ATOM     17  C   LIG    1       24.161 -13.562   2.481  0.00  0.00    +0.023 A 
ENDBRANCH   2  12
TORSDOF 2
ENDMDL
MODEL 8
REMARK VINA RESULT:      -2.6      2.284      6.182
REMARK  Name = *****
REMARK                            x       y       z     vdW  Elec       q    Type
REMARK                         _______ _______ _______ _____ _____    ______ ____
ROOT
ATOM      1  C   LIG    1       24.862 -16.512   3.891  0.00  0.00    +0.258 C 
ATOM      2  N   LIG    1       25.650 -17.631   3.706  0.00  0.00    -0.281 N 
ATOM      3  H   LIG    1       26.543 -17.472   3.250  0.00  0.00    +0.155 HD
ATOM      4  O   LIG    1       23.664 -16.542   4.185  0.00  0.00    -0.269 OA
ENDROOT
BRANCH   1  11
ATOM      5  C   LIG    1       23.419 -13.909   3.400  0.00  0.00    +0.087 C 
ATOM      6  C   LIG    1       24.920 -14.045   3.401  0.00  0.00    +0.113 C 
ATOM      7  O   LIG    1       25.516 -12.820   3.135  0.00  0.00    -0.494 OA
ATOM      8  C   LIG    1       26.843 -12.857   2.611  0.00  0.00    +0.239 C 
ATOM      9  C   LIG    1       27.782 -13.581   3.550  0.00  0.00    +0.115 C 
ATOM     10  S   LIG    1       27.336 -15.330   3.566  0.00  0.00    -0.114 S 
ATOM     11  C   LIG    1       25.586 -15.210   3.600  0.00  0.00    +0.107 C 
ENDBRANCH   1  11
BRANCH   2  12
ATOM     12  C   LIG    1       25.217 -18.958   3.831  0.00  0.00    +0.034 A 
ATOM     13  C   LIG    1       25.759 -19.841   4.767  0.00  0.00    +0.023 A 
ATOM     14  C   LIG    1       25.285 -21.152   4.842  0.00  0.00    +0.002 A 
ATOM     15  C   LIG    1       24.242 -21.567   4.014  0.00  0.00    +0.000 A 
ATOM     16  C   LIG    1       23.699 -20.684   3.083  0.00  0.00    +0.002 A 
ATOM     17  C   LIG    1       24.209 -19.392   2.968  0.00  0.00    +0.023 A 
ENDBRANCH   2  12
TORSDOF 2
ENDMDL
MODEL 9
REMARK VINA RESULT:      -2.5      1.694      2.090
REMARK  Name = *****
REMARK                            x       y       z     vdW  Elec       q    Type
REMARK                         _______ _______ _______ _____ _____    ______ ____
ROOT
ATOM      1  C   LIG    1       23.522 -16.515   4.048  0.00  0.00    +0.258 C 
ATOM      2  N   LIG    1       24.480 -15.610   3.637  0.00  0.00    -0.281 N 
ATOM      3  H   LIG    1       25.414 -15.984   3.507  0.00  0.00    +0.155 HD
ATOM      4  O   LIG    1       22.414 -16.205   4.498  0.00  0.00    -0.269 OA
ENDROOT
BRANCH   1  11
ATOM      5  C   LIG    1       21.678 -18.859   4.507  0.00  0.00    +0.087 C 
ATOM      6  C   LIG    1       23.143 -18.999   4.182  0.00  0.00    +0.113 C 
ATOM      7  O   LIG    1       23.501 -20.339   4.142  0.00  0.00    -0.494 OA
ATOM      8  C   LIG    1       24.882 -20.635   4.350  0.00  0.00    +0.239 C 
ATOM      9  C   LIG    1       25.752 -19.940   3.326  0.00  0.00    +0.115 C 
ATOM     10  S   LIG    1       25.698 -18.164   3.643  0.00  0.00    -0.114 S 
ATOM     11  C   LIG    1       23.991 -17.958   3.993  0.00  0.00    +0.107 C 
ENDBRANCH   1  11
BRANCH   2  12
ATOM     12  C   LIG    1       24.340 -14.215   3.657  0.00  0.00    +0.034 A 
ATOM     13  C   LIG    1       24.209 -13.455   2.493  0.00  0.00    +0.023 A 
ATOM     14  C   LIG    1       24.074 -12.068   2.579  0.00  0.00    +0.002 A 
ATOM     15  C   LIG    1       24.027 -11.447   3.827  0.00  0.00    +0.000 A 
ATOM     16  C   LIG    1       24.154 -12.206   4.988  0.00  0.00    +0.002 A 
ATOM     17  C   LIG    1       24.345 -13.584   4.902  0.00  0.00    +0.023 A 
ENDBRANCH   2  12
TORSDOF 2
ENDMDL
