MODEL 1
REMARK VINA RESULT:      -8.9      0.000      0.000
REMARK  Name = *****
REMARK                            x       y       z     vdW  Elec       q    Type
REMARK                         _______ _______ _______ _____ _____    ______ ____
ROOT
ATOM      1  C   LIG    1       27.741 -21.398   7.268  0.00  0.00    +0.144 C 
ENDROOT
BRANCH   1   2
ATOM      2  C   LIG    1       29.034 -20.506   7.365  0.00  0.00    -0.019 A 
ATOM      3  C   LIG    1       30.025 -20.870   8.314  0.00  0.00    +0.008 A 
ATOM      4  C   LIG    1       31.035 -20.036   8.721  0.00  0.00    +0.025 A 
ATOM      5  C   LIG    1       31.121 -18.801   8.128  0.00  0.00    +0.048 A 
ATOM      6  C   LIG    1       30.265 -18.430   7.088  0.00  0.00    +0.025 A 
ATOM      7  C   LIG    1       29.204 -19.272   6.711  0.00  0.00    +0.008 A 
BRANCH   5   8
ATOM      8  N   LIG    1       32.135 -17.953   8.593  0.00  0.00    -0.221 N 
ATOM      9  H   LIG    1       33.055 -18.397   8.692  0.00  0.00    +0.173 HD
BRANCH   8  10
ATOM     10  S   LIG    1       31.799 -17.019   9.948  0.00  0.00    +0.040 S 
ATOM     11  O   LIG    1       32.265 -17.765  11.042  0.00  0.00    -0.155 OA
ATOM     12  O   LIG    1       30.391 -16.554   9.875  0.00  0.00    -0.155 OA
ATOM     13  C   LIG    1       32.862 -15.608   9.701  0.00  0.00    +0.218 C 
ENDBRANCH   8  10
ENDBRANCH   5   8
ENDBRANCH   1   2
BRANCH   1  14
ATOM     14  O   LIG    1       27.330 -21.807   8.563  0.00  0.00    -0.387 OA
ATOM     15  H   LIG    1       28.135 -22.024   9.069  0.00  0.00    +0.210 HD
ENDBRANCH   1  14
BRANCH   1  16
ATOM     16  C   LIG    1       26.679 -20.596   6.383  0.00  0.00    +0.037 C 
BRANCH  16  17
ATOM     17  C   LIG    1       25.906 -20.475   4.980  0.00  0.00    +0.018 C 
BRANCH  17  18
ATOM     18  C   LIG    1       24.384 -20.961   4.413  0.00  0.00    +0.084 C 
BRANCH  18  19
ATOM     19  N   LIG    1       23.018 -21.028   5.117  0.00  0.00    -0.303 NA
BRANCH  19  20
ATOM     20  C   LIG    1       22.083 -19.840   4.793  0.00  0.00    +0.081 C 
ATOM     21  C   LIG    1       22.749 -18.569   4.128  0.00  0.00    +0.020 C 
ENDBRANCH  19  20
BRANCH  19  22
ATOM     22  C   LIG    1       23.109 -20.870   6.556  0.00  0.00    +0.084 C 
BRANCH  22  23
ATOM     23  C   LIG    1       23.342 -21.997   7.469  0.00  0.00    +0.015 C 
BRANCH  23  24
ATOM     24  C   LIG    1       22.812 -23.276   6.807  0.00  0.00    +0.001 C 
BRANCH  24  25
ATOM     25  C   LIG    1       23.711 -24.574   6.472  0.00  0.00    +0.000 C 
BRANCH  25  26
ATOM     26  C   LIG    1       25.304 -24.609   6.267  0.00  0.00    -0.000 C 
BRANCH  26  28
ATOM     27  C   LIG    1       26.200 -26.976   5.071  0.00  0.00    +0.004 C 
ATOM     28  C   LIG    1       26.205 -25.920   6.195  0.00  0.00    -0.003 C 
ENDBRANCH  26  28
ENDBRANCH  25  26
ENDBRANCH  24  25
ENDBRANCH  23  24
ENDBRANCH  22  23
ENDBRANCH  19  22
ENDBRANCH  18  19
ENDBRANCH  17  18
ENDBRANCH  16  17
ENDBRANCH   1  16
TORSDOF 15
ENDMDL
MODEL 2
REMARK VINA RESULT:      -8.6      1.710      4.224
REMARK  Name = *****
REMARK                            x       y       z     vdW  Elec       q    Type
REMARK                         _______ _______ _______ _____ _____    ______ ____
ROOT
ATOM      1  C   LIG    1       26.808 -20.232   5.979  0.00  0.00    +0.144 C 
ENDROOT
BRANCH   1   2
ATOM      2  C   LIG    1       28.317 -19.937   6.318  0.00  0.00    -0.019 A 
ATOM      3  C   LIG    1       28.919 -20.675   7.371  0.00  0.00    +0.008 A 
ATOM      4  C   LIG    1       30.099 -20.320   7.972  0.00  0.00    +0.025 A 
ATOM      5  C   LIG    1       30.762 -19.222   7.482  0.00  0.00    +0.048 A 
ATOM      6  C   LIG    1       30.298 -18.533   6.358  0.00  0.00    +0.025 A 
ATOM      7  C   LIG    1       29.063 -18.874   5.779  0.00  0.00    +0.008 A 
BRANCH   5   8
ATOM      8  N   LIG    1       31.942 -18.857   8.142  0.00  0.00    -0.221 N 
ATOM      9  H   LIG    1       32.463 -19.638   8.555  0.00  0.00    +0.173 HD
BRANCH   8  10
ATOM     10  S   LIG    1       31.854 -17.585   9.235  0.00  0.00    +0.040 S 
ATOM     11  O   LIG    1       32.318 -16.459   8.539  0.00  0.00    -0.155 OA
ATOM     12  O   LIG    1       32.472 -18.008  10.517  0.00  0.00    -0.155 OA
ATOM     13  C   LIG    1       30.095 -17.435   9.491  0.00  0.00    +0.218 C 
ENDBRANCH   8  10
ENDBRANCH   5   8
ENDBRANCH   1   2
BRANCH   1  14
ATOM     14  O   LIG    1       26.644 -20.397   4.579  0.00  0.00    -0.387 OA
ATOM     15  H   LIG    1       25.742 -20.736   4.430  0.00  0.00    +0.210 HD
ENDBRANCH   1  14
BRANCH   1  16
ATOM     16  C   LIG    1       26.340 -21.438   6.917  0.00  0.00    +0.037 C 
BRANCH  16  17
ATOM     17  C   LIG    1       26.529 -22.978   7.334  0.00  0.00    +0.018 C 
BRANCH  17  18
ATOM     18  C   LIG    1       25.921 -24.452   6.755  0.00  0.00    +0.084 C 
BRANCH  18  19
ATOM     19  N   LIG    1       24.477 -24.958   6.604  0.00  0.00    -0.303 NA
BRANCH  19  20
ATOM     20  C   LIG    1       24.307 -26.066   5.538  0.00  0.00    +0.081 C 
ATOM     21  C   LIG    1       25.137 -27.395   5.751  0.00  0.00    +0.020 C 
ENDBRANCH  19  20
BRANCH  19  22
ATOM     22  C   LIG    1       23.577 -23.963   6.054  0.00  0.00    +0.084 C 
BRANCH  22  23
ATOM     23  C   LIG    1       22.466 -23.382   6.820  0.00  0.00    +0.015 C 
BRANCH  23  24
ATOM     24  C   LIG    1       22.930 -22.043   7.409  0.00  0.00    +0.001 C 
BRANCH  24  25
ATOM     25  C   LIG    1       23.120 -20.685   6.559  0.00  0.00    +0.000 C 
BRANCH  25  26
ATOM     26  C   LIG    1       22.593 -20.407   5.067  0.00  0.00    -0.000 C 
BRANCH  26  28
ATOM     27  C   LIG    1       22.175 -17.684   4.573  0.00  0.00    +0.004 C 
ATOM     28  C   LIG    1       22.793 -19.058   4.245  0.00  0.00    -0.003 C 
ENDBRANCH  26  28
ENDBRANCH  25  26
ENDBRANCH  24  25
ENDBRANCH  23  24
ENDBRANCH  22  23
ENDBRANCH  19  22
ENDBRANCH  18  19
ENDBRANCH  17  18
ENDBRANCH  16  17
ENDBRANCH   1  16
TORSDOF 15
ENDMDL
MODEL 3
REMARK VINA RESULT:      -7.9      4.902      9.170
REMARK  Name = *****
REMARK                            x       y       z     vdW  Elec       q    Type
REMARK                         _______ _______ _______ _____ _____    ______ ____
ROOT
ATOM      1  C   LIG    1       24.548 -23.739   6.352  0.00  0.00    +0.144 C 
ENDROOT
BRANCH   1   2
ATOM      2  C   LIG    1       25.030 -25.192   5.983  0.00  0.00    -0.019 A 
ATOM      3  C   LIG    1       24.064 -26.105   5.483  0.00  0.00    +0.008 A 
ATOM      4  C   LIG    1       24.262 -27.461   5.414  0.00  0.00    +0.025 A 
ATOM      5  C   LIG    1       25.488 -27.948   5.796  0.00  0.00    +0.048 A 
ATOM      6  C   LIG    1       26.530 -27.093   6.164  0.00  0.00    +0.025 A 
ATOM      7  C   LIG    1       26.303 -25.710   6.278  0.00  0.00    +0.008 A 
BRANCH   5   8
ATOM      8  N   LIG    1       25.648 -29.339   5.756  0.00  0.00    -0.221 N 
ATOM      9  H   LIG    1       25.540 -29.759   4.826  0.00  0.00    +0.173 HD
BRANCH   8  10
ATOM     10  S   LIG    1       24.811 -30.245   6.896  0.00  0.00    +0.040 S 
ATOM     11  O   LIG    1       23.645 -30.679   6.247  0.00  0.00    -0.155 OA
ATOM     12  O   LIG    1       24.747 -29.480   8.167  0.00  0.00    -0.155 OA
ATOM     13  C   LIG    1       25.901 -31.636   7.141  0.00  0.00    +0.218 C 
ENDBRANCH   8  10
ENDBRANCH   5   8
ENDBRANCH   1   2
BRANCH   1  14
ATOM     14  O   LIG    1       23.167 -23.748   6.679  0.00  0.00    -0.387 OA
ATOM     15  H   LIG    1       22.973 -24.608   7.096  0.00  0.00    +0.210 HD
ENDBRANCH   1  14
BRANCH   1  16
ATOM     16  C   LIG    1       25.557 -23.173   7.455  0.00  0.00    +0.037 C 
BRANCH  16  17
ATOM     17  C   LIG    1       26.024 -21.918   8.343  0.00  0.00    +0.018 C 
BRANCH  17  18
ATOM     18  C   LIG    1       27.176 -20.689   8.155  0.00  0.00    +0.084 C 
BRANCH  18  19
ATOM     19  N   LIG    1       28.509 -20.663   7.389  0.00  0.00    -0.303 NA
BRANCH  19  20
ATOM     20  C   LIG    1       29.411 -19.455   7.736  0.00  0.00    +0.081 C 
ATOM     21  C   LIG    1       30.795 -19.357   6.977  0.00  0.00    +0.020 C 
ENDBRANCH  19  20
BRANCH  19  22
ATOM     22  C   LIG    1       28.346 -20.433   5.966  0.00  0.00    +0.084 C 
BRANCH  22  23
ATOM     23  C   LIG    1       27.427 -19.424   5.421  0.00  0.00    +0.015 C 
BRANCH  23  24
ATOM     24  C   LIG    1       26.230 -20.149   4.790  0.00  0.00    +0.001 C 
BRANCH  24  25
ATOM     25  C   LIG    1       25.170 -19.462   3.786  0.00  0.00    +0.000 C 
BRANCH  25  26
ATOM     26  C   LIG    1       23.584 -19.339   4.004  0.00  0.00    -0.000 C 
BRANCH  26  28
ATOM     27  C   LIG    1       23.077 -20.332   6.572  0.00  0.00    +0.004 C 
ATOM     28  C   LIG    1       22.727 -20.139   5.083  0.00  0.00    -0.003 C 
ENDBRANCH  26  28
ENDBRANCH  25  26
ENDBRANCH  24  25
ENDBRANCH  23  24
ENDBRANCH  22  23
ENDBRANCH  19  22
ENDBRANCH  18  19
ENDBRANCH  17  18
ENDBRANCH  16  17
ENDBRANCH   1  16
TORSDOF 15
ENDMDL
MODEL 4
REMARK VINA RESULT:      -7.9      4.044      8.904
REMARK  Name = *****
REMARK                            x       y       z     vdW  Elec       q    Type
REMARK                         _______ _______ _______ _____ _____    ______ ____
ROOT
ATOM      1  C   LIG    1       23.403 -21.147   6.654  0.00  0.00    +0.144 C 
ENDROOT
BRANCH   1   2
ATOM      2  C   LIG    1       23.881 -22.634   6.858  0.00  0.00    -0.019 A 
ATOM      3  C   LIG    1       25.243 -22.855   7.192  0.00  0.00    +0.008 A 
ATOM      4  C   LIG    1       25.862 -24.075   7.098  0.00  0.00    +0.025 A 
ATOM      5  C   LIG    1       25.100 -25.151   6.715  0.00  0.00    +0.048 A 
ATOM      6  C   LIG    1       23.723 -25.032   6.507  0.00  0.00    +0.025 A 
ATOM      7  C   LIG    1       23.107 -23.769   6.558  0.00  0.00    +0.008 A 
BRANCH   5   8
ATOM      8  N   LIG    1       25.767 -26.376   6.585  0.00  0.00    -0.221 N 
ATOM      9  H   LIG    1       26.598 -26.478   7.179  0.00  0.00    +0.173 HD
BRANCH   8  10
ATOM     10  S   LIG    1       26.104 -26.910   5.029  0.00  0.00    +0.040 S 
ATOM     11  O   LIG    1       27.485 -27.153   5.007  0.00  0.00    -0.155 OA
ATOM     12  O   LIG    1       25.467 -25.987   4.055  0.00  0.00    -0.155 OA
ATOM     13  C   LIG    1       25.231 -28.465   4.972  0.00  0.00    +0.218 C 
ENDBRANCH   8  10
ENDBRANCH   5   8
ENDBRANCH   1   2
BRANCH   1  14
ATOM     14  O   LIG    1       23.572 -20.409   7.854  0.00  0.00    -0.387 OA
ATOM     15  H   LIG    1       22.732 -20.459   8.347  0.00  0.00    +0.210 HD
ENDBRANCH   1  14
BRANCH   1  16
ATOM     16  C   LIG    1       24.133 -20.592   5.345  0.00  0.00    +0.037 C 
BRANCH  16  17
ATOM     17  C   LIG    1       25.522 -20.244   4.618  0.00  0.00    +0.018 C 
BRANCH  17  18
ATOM     18  C   LIG    1       26.943 -19.443   5.084  0.00  0.00    +0.084 C 
BRANCH  18  19
ATOM     19  N   LIG    1       28.287 -19.988   5.596  0.00  0.00    -0.303 NA
BRANCH  19  20
ATOM     20  C   LIG    1       28.181 -20.778   6.922  0.00  0.00    +0.081 C 
ATOM     21  C   LIG    1       27.125 -20.260   7.979  0.00  0.00    +0.020 C 
ENDBRANCH  19  20
BRANCH  19  22
ATOM     22  C   LIG    1       29.203 -18.945   6.017  0.00  0.00    +0.084 C 
BRANCH  22  23
ATOM     23  C   LIG    1       30.465 -19.226   6.714  0.00  0.00    +0.015 C 
BRANCH  23  24
ATOM     24  C   LIG    1       30.527 -18.356   7.977  0.00  0.00    +0.001 C 
BRANCH  24  25
ATOM     25  C   LIG    1       31.842 -18.162   8.892  0.00  0.00    +0.000 C 
BRANCH  25  26
ATOM     26  C   LIG    1       32.156 -16.927   9.869  0.00  0.00    -0.000 C 
BRANCH  26  28
ATOM     27  C   LIG    1       31.835 -16.115  12.529  0.00  0.00    +0.004 C 
ATOM     28  C   LIG    1       31.293 -16.500  11.138  0.00  0.00    -0.003 C 
ENDBRANCH  26  28
ENDBRANCH  25  26
ENDBRANCH  24  25
ENDBRANCH  23  24
ENDBRANCH  22  23
ENDBRANCH  19  22
ENDBRANCH  18  19
ENDBRANCH  17  18
ENDBRANCH  16  17
ENDBRANCH   1  16
TORSDOF 15
ENDMDL
MODEL 5
REMARK VINA RESULT:      -7.9      3.249      5.590
REMARK  Name = *****
REMARK                            x       y       z     vdW  Elec       q    Type
REMARK                         _______ _______ _______ _____ _____    ______ ____
ROOT
ATOM      1  C   LIG    1       23.586 -21.086   7.053  0.00  0.00    +0.144 C 
ENDROOT
BRANCH   1   2
ATOM      2  C   LIG    1       25.143 -20.937   7.230  0.00  0.00    -0.019 A 
ATOM      3  C   LIG    1       25.874 -20.302   6.191  0.00  0.00    +0.008 A 
ATOM      4  C   LIG    1       27.237 -20.376   6.063  0.00  0.00    +0.025 A 
ATOM      5  C   LIG    1       27.935 -21.054   7.032  0.00  0.00    +0.048 A 
ATOM      6  C   LIG    1       27.294 -21.582   8.156  0.00  0.00    +0.025 A 
ATOM      7  C   LIG    1       25.892 -21.544   8.254  0.00  0.00    +0.008 A 
BRANCH   5   8
ATOM      8  N   LIG    1       29.321 -21.150   6.854  0.00  0.00    -0.221 N 
ATOM      9  H   LIG    1       29.678 -22.109   6.766  0.00  0.00    +0.173 HD
BRANCH   8  10
ATOM     10  S   LIG    1       30.296 -20.268   7.898  0.00  0.00    +0.040 S 
ATOM     11  O   LIG    1       29.425 -19.424   8.602  0.00  0.00    -0.155 OA
ATOM     12  O   LIG    1       31.449 -19.724   7.136  0.00  0.00    -0.155 OA
ATOM     13  C   LIG    1       30.907 -21.534   8.997  0.00  0.00    +0.218 C 
ENDBRANCH   8  10
ENDBRANCH   5   8
ENDBRANCH   1   2
BRANCH   1  14
ATOM     14  O   LIG    1       23.071 -19.994   6.307  0.00  0.00    -0.387 OA
ATOM     15  H   LIG    1       22.481 -19.491   6.897  0.00  0.00    +0.210 HD
ENDBRANCH   1  14
BRANCH   1  16
ATOM     16  C   LIG    1       23.314 -22.554   6.483  0.00  0.00    +0.037 C 
BRANCH  16  17
ATOM     17  C   LIG    1       23.358 -24.137   6.752  0.00  0.00    +0.018 C 
BRANCH  17  18
ATOM     18  C   LIG    1       23.982 -25.471   5.911  0.00  0.00    +0.084 C 
BRANCH  18  19
ATOM     19  N   LIG    1       24.766 -26.699   6.403  0.00  0.00    -0.303 NA
BRANCH  19  20
ATOM     20  C   LIG    1       26.292 -26.608   6.165  0.00  0.00    +0.081 C 
ATOM     21  C   LIG    1       26.841 -27.226   4.817  0.00  0.00    +0.020 C 
ENDBRANCH  19  20
BRANCH  19  22
ATOM     22  C   LIG    1       24.481 -27.902   5.645  0.00  0.00    +0.084 C 
BRANCH  22  23
ATOM     23  C   LIG    1       24.010 -29.145   6.269  0.00  0.00    +0.015 C 
BRANCH  23  24
ATOM     24  C   LIG    1       25.145 -29.715   7.132  0.00  0.00    +0.001 C 
BRANCH  24  25
ATOM     25  C   LIG    1       25.369 -29.371   8.693  0.00  0.00    +0.000 C 
BRANCH  25  26
ATOM     26  C   LIG    1       26.606 -28.569   9.330  0.00  0.00    -0.000 C 
BRANCH  26  28
ATOM     27  C   LIG    1       26.853 -27.440  11.880  0.00  0.00    +0.004 C 
ATOM     28  C   LIG    1       27.036 -28.585  10.863  0.00  0.00    -0.003 C 
ENDBRANCH  26  28
ENDBRANCH  25  26
ENDBRANCH  24  25
ENDBRANCH  23  24
ENDBRANCH  22  23
ENDBRANCH  19  22
ENDBRANCH  18  19
ENDBRANCH  17  18
ENDBRANCH  16  17
ENDBRANCH   1  16
TORSDOF 15
ENDMDL
MODEL 6
REMARK VINA RESULT:      -7.8      2.766      4.678
REMARK  Name = *****
REMARK                            x       y       z     vdW  Elec       q    Type
REMARK                         _______ _______ _______ _____ _____    ______ ____
ROOT
ATOM      1  C   LIG    1       24.625 -20.415   6.098  0.00  0.00    +0.144 C 
ENDROOT
BRANCH   1   2
ATOM      2  C   LIG    1       26.067 -20.415   6.730  0.00  0.00    -0.019 A 
ATOM      3  C   LIG    1       27.173 -20.201   5.865  0.00  0.00    +0.008 A 
ATOM      4  C   LIG    1       28.472 -20.476   6.207  0.00  0.00    +0.025 A 
ATOM      5  C   LIG    1       28.716 -20.927   7.481  0.00  0.00    +0.048 A 
ATOM      6  C   LIG    1       27.693 -21.027   8.427  0.00  0.00    +0.025 A 
ATOM      7  C   LIG    1       26.359 -20.790   8.054  0.00  0.00    +0.008 A 
BRANCH   5   8
ATOM      8  N   LIG    1       30.046 -21.241   7.790  0.00  0.00    -0.221 N 
ATOM      9  H   LIG    1       30.162 -22.000   8.471  0.00  0.00    +0.173 HD
BRANCH   8  10
ATOM     10  S   LIG    1       31.072 -19.967   8.170  0.00  0.00    +0.040 S 
ATOM     11  O   LIG    1       31.665 -19.588   6.956  0.00  0.00    -0.155 OA
ATOM     12  O   LIG    1       31.895 -20.346   9.346  0.00  0.00    -0.155 OA
ATOM     13  C   LIG    1       29.922 -18.703   8.683  0.00  0.00    +0.218 C 
ENDBRANCH   8  10
ENDBRANCH   5   8
ENDBRANCH   1   2
BRANCH   1  14
ATOM     14  O   LIG    1       24.706 -20.602   4.693  0.00  0.00    -0.387 OA
ATOM     15  H   LIG    1       25.261 -19.884   4.335  0.00  0.00    +0.210 HD
ENDBRANCH   1  14
BRANCH   1  16
ATOM     16  C   LIG    1       23.747 -21.462   6.926  0.00  0.00    +0.037 C 
BRANCH  16  17
ATOM     17  C   LIG    1       23.139 -22.947   7.011  0.00  0.00    +0.018 C 
BRANCH  17  18
ATOM     18  C   LIG    1       23.381 -24.385   6.146  0.00  0.00    +0.084 C 
BRANCH  18  19
ATOM     19  N   LIG    1       24.079 -25.696   6.542  0.00  0.00    -0.303 NA
BRANCH  19  20
ATOM     20  C   LIG    1       25.584 -25.537   6.861  0.00  0.00    +0.081 C 
ATOM     21  C   LIG    1       26.206 -24.096   6.665  0.00  0.00    +0.020 C 
ENDBRANCH  19  20
BRANCH  19  22
ATOM     22  C   LIG    1       24.170 -26.648   5.451  0.00  0.00    +0.084 C 
BRANCH  22  23
ATOM     23  C   LIG    1       25.437 -27.264   5.034  0.00  0.00    +0.015 C 
BRANCH  23  24
ATOM     24  C   LIG    1       25.432 -28.733   5.479  0.00  0.00    +0.001 C 
BRANCH  24  25
ATOM     25  C   LIG    1       24.285 -29.410   6.389  0.00  0.00    +0.000 C 
BRANCH  25  26
ATOM     26  C   LIG    1       24.326 -29.625   7.980  0.00  0.00    -0.000 C 
BRANCH  26  28
ATOM     27  C   LIG    1       26.466 -28.501   9.392  0.00  0.00    +0.004 C 
ATOM     28  C   LIG    1       25.641 -29.697   8.877  0.00  0.00    -0.003 C 
ENDBRANCH  26  28
ENDBRANCH  25  26
ENDBRANCH  24  25
ENDBRANCH  23  24
ENDBRANCH  22  23
ENDBRANCH  19  22
ENDBRANCH  18  19
ENDBRANCH  17  18
ENDBRANCH  16  17
ENDBRANCH   1  16
TORSDOF 15
ENDMDL
MODEL 7
REMARK VINA RESULT:      -7.7      5.128      9.493
REMARK  Name = *****
REMARK                            x       y       z     vdW  Elec       q    Type
REMARK                         _______ _______ _______ _____ _____    ______ ____
ROOT
ATOM      1  C   LIG    1       24.999 -25.012   5.692  0.00  0.00    +0.144 C 
ENDROOT
BRANCH   1   2
ATOM      2  C   LIG    1       25.175 -26.504   6.163  0.00  0.00    -0.019 A 
ATOM      3  C   LIG    1       24.335 -27.489   5.580  0.00  0.00    +0.008 A 
ATOM      4  C   LIG    1       24.161 -28.746   6.099  0.00  0.00    +0.025 A 
ATOM      5  C   LIG    1       24.890 -29.085   7.212  0.00  0.00    +0.048 A 
ATOM      6  C   LIG    1       25.839 -28.214   7.754  0.00  0.00    +0.025 A 
ATOM      7  C   LIG    1       25.975 -26.911   7.245  0.00  0.00    +0.008 A 
BRANCH   5   8
ATOM      8  N   LIG    1       24.660 -30.359   7.747  0.00  0.00    -0.221 N 
ATOM      9  H   LIG    1       24.428 -30.371   8.746  0.00  0.00    +0.173 HD
BRANCH   8  10
ATOM     10  S   LIG    1       25.791 -31.554   7.406  0.00  0.00    +0.040 S 
ATOM     11  O   LIG    1       26.751 -31.463   8.424  0.00  0.00    -0.155 OA
ATOM     12  O   LIG    1       26.174 -31.459   5.974  0.00  0.00    -0.155 OA
ATOM     13  C   LIG    1       24.836 -33.044   7.626  0.00  0.00    +0.218 C 
ENDBRANCH   8  10
ENDBRANCH   5   8
ENDBRANCH   1   2
BRANCH   1  14
ATOM     14  O   LIG    1       24.894 -24.953   4.278  0.00  0.00    -0.387 OA
ATOM     15  H   LIG    1       24.970 -24.016   4.020  0.00  0.00    +0.210 HD
ENDBRANCH   1  14
BRANCH   1  16
ATOM     16  C   LIG    1       23.798 -24.387   6.542  0.00  0.00    +0.037 C 
BRANCH  16  17
ATOM     17  C   LIG    1       22.961 -23.074   6.936  0.00  0.00    +0.018 C 
BRANCH  17  18
ATOM     18  C   LIG    1       23.335 -21.427   7.096  0.00  0.00    +0.084 C 
BRANCH  18  19
ATOM     19  N   LIG    1       24.124 -20.477   6.180  0.00  0.00    -0.303 NA
BRANCH  19  20
ATOM     20  C   LIG    1       23.463 -20.238   4.802  0.00  0.00    +0.081 C 
ATOM     21  C   LIG    1       22.318 -19.150   4.739  0.00  0.00    +0.020 C 
ENDBRANCH  19  20
BRANCH  19  22
ATOM     22  C   LIG    1       25.391 -21.029   5.740  0.00  0.00    +0.084 C 
BRANCH  22  23
ATOM     23  C   LIG    1       26.680 -20.372   5.999  0.00  0.00    +0.015 C 
BRANCH  23  24
ATOM     24  C   LIG    1       27.255 -20.931   7.308  0.00  0.00    +0.001 C 
BRANCH  24  25
ATOM     25  C   LIG    1       28.829 -21.021   7.652  0.00  0.00    +0.000 C 
BRANCH  25  26
ATOM     26  C   LIG    1       29.974 -20.002   7.173  0.00  0.00    -0.000 C 
BRANCH  26  28
ATOM     27  C   LIG    1       30.130 -18.017   9.141  0.00  0.00    +0.004 C 
ATOM     28  C   LIG    1       30.157 -18.502   7.678  0.00  0.00    -0.003 C 
ENDBRANCH  26  28
ENDBRANCH  25  26
ENDBRANCH  24  25
ENDBRANCH  23  24
ENDBRANCH  22  23
ENDBRANCH  19  22
ENDBRANCH  18  19
ENDBRANCH  17  18
ENDBRANCH  16  17
ENDBRANCH   1  16
TORSDOF 15
ENDMDL
MODEL 8
REMARK VINA RESULT:      -7.7      2.549      3.851
REMARK  Name = *****
REMARK                            x       y       z     vdW  Elec       q    Type
REMARK                         _______ _______ _______ _____ _____    ______ ____
ROOT
ATOM      1  C   LIG    1       26.767 -20.149   5.930  0.00  0.00    +0.144 C 
ENDROOT
BRANCH   1   2
ATOM      2  C   LIG    1       28.281 -19.889   6.275  0.00  0.00    -0.019 A 
ATOM      3  C   LIG    1       28.843 -20.589   7.374  0.00  0.00    +0.008 A 
ATOM      4  C   LIG    1       30.028 -20.243   7.972  0.00  0.00    +0.025 A 
ATOM      5  C   LIG    1       30.735 -19.197   7.434  0.00  0.00    +0.048 A 
ATOM      6  C   LIG    1       30.310 -18.554   6.268  0.00  0.00    +0.025 A 
ATOM      7  C   LIG    1       29.071 -18.882   5.691  0.00  0.00    +0.008 A 
BRANCH   5   8
ATOM      8  N   LIG    1       31.919 -18.838   8.090  0.00  0.00    -0.221 N 
ATOM      9  H   LIG    1       32.447 -19.624   8.486  0.00  0.00    +0.173 HD
BRANCH   8  10
ATOM     10  S   LIG    1       31.834 -17.584   9.205  0.00  0.00    +0.040 S 
ATOM     11  O   LIG    1       32.361 -16.462   8.548  0.00  0.00    -0.155 OA
ATOM     12  O   LIG    1       32.393 -18.053  10.499  0.00  0.00    -0.155 OA
ATOM     13  C   LIG    1       30.073 -17.380   9.403  0.00  0.00    +0.218 C 
ENDBRANCH   8  10
ENDBRANCH   5   8
ENDBRANCH   1   2
BRANCH   1  14
ATOM     14  O   LIG    1       26.601 -20.294   4.528  0.00  0.00    -0.387 OA
ATOM     15  H   LIG    1       26.801 -19.430   4.121  0.00  0.00    +0.210 HD
ENDBRANCH   1  14
BRANCH   1  16
ATOM     16  C   LIG    1       26.274 -21.357   6.853  0.00  0.00    +0.037 C 
BRANCH  16  17
ATOM     17  C   LIG    1       26.497 -22.877   7.324  0.00  0.00    +0.018 C 
BRANCH  17  18
ATOM     18  C   LIG    1       25.883 -24.379   6.832  0.00  0.00    +0.084 C 
BRANCH  18  19
ATOM     19  N   LIG    1       24.771 -24.736   5.832  0.00  0.00    -0.303 NA
BRANCH  19  20
ATOM     20  C   LIG    1       23.347 -24.706   6.437  0.00  0.00    +0.081 C 
ATOM     21  C   LIG    1       22.736 -23.282   6.751  0.00  0.00    +0.020 C 
ENDBRANCH  19  20
BRANCH  19  22
ATOM     22  C   LIG    1       24.813 -26.120   5.400  0.00  0.00    +0.084 C 
BRANCH  22  23
ATOM     23  C   LIG    1       24.332 -27.231   6.234  0.00  0.00    +0.015 C 
BRANCH  23  24
ATOM     24  C   LIG    1       25.521 -27.798   7.021  0.00  0.00    +0.001 C 
BRANCH  24  25
ATOM     25  C   LIG    1       25.404 -28.921   8.174  0.00  0.00    +0.000 C 
BRANCH  25  26
ATOM     26  C   LIG    1       26.568 -29.391   9.175  0.00  0.00    -0.000 C 
BRANCH  26  28
ATOM     27  C   LIG    1       26.055 -28.241  11.676  0.00  0.00    +0.004 C 
ATOM     28  C   LIG    1       26.992 -28.654  10.523  0.00  0.00    -0.003 C 
ENDBRANCH  26  28
ENDBRANCH  25  26
ENDBRANCH  24  25
ENDBRANCH  23  24
ENDBRANCH  22  23
ENDBRANCH  19  22
ENDBRANCH  18  19
ENDBRANCH  17  18
ENDBRANCH  16  17
ENDBRANCH   1  16
TORSDOF 15
ENDMDL
MODEL 9
REMARK VINA RESULT:      -7.6      3.172      5.251
REMARK  Name = *****
REMARK                            x       y       z     vdW  Elec       q    Type
REMARK                         _______ _______ _______ _____ _____    ______ ____
ROOT
ATOM      1  C   LIG    1       25.093 -21.109   6.757  0.00  0.00    +0.144 C 
ENDROOT
BRANCH   1   2
ATOM      2  C   LIG    1       26.650 -20.913   6.631  0.00  0.00    -0.019 A 
ATOM      3  C   LIG    1       27.484 -21.609   7.545  0.00  0.00    +0.008 A 
ATOM      4  C   LIG    1       28.805 -21.305   7.755  0.00  0.00    +0.025 A 
ATOM      5  C   LIG    1       29.361 -20.309   6.990  0.00  0.00    +0.048 A 
ATOM      6  C   LIG    1       28.636 -19.679   5.975  0.00  0.00    +0.025 A 
ATOM      7  C   LIG    1       27.270 -19.963   5.801  0.00  0.00    +0.008 A 
BRANCH   5   8
ATOM      8  N   LIG    1       30.699 -19.990   7.255  0.00  0.00    -0.221 N 
ATOM      9  H   LIG    1       31.375 -20.716   6.991  0.00  0.00    +0.173 HD
BRANCH   8  10
ATOM     10  S   LIG    1       31.063 -19.396   8.783  0.00  0.00    +0.040 S 
ATOM     11  O   LIG    1       31.856 -20.381   9.389  0.00  0.00    -0.155 OA
ATOM     12  O   LIG    1       29.812 -18.913   9.422  0.00  0.00    -0.155 OA
ATOM     13  C   LIG    1       32.074 -17.977   8.401  0.00  0.00    +0.218 C 
ENDBRANCH   8  10
ENDBRANCH   5   8
ENDBRANCH   1   2
BRANCH   1  14
ATOM     14  O   LIG    1       24.428 -20.447   5.692  0.00  0.00    -0.387 OA
ATOM     15  H   LIG    1       23.530 -20.824   5.630  0.00  0.00    +0.210 HD
ENDBRANCH   1  14
BRANCH   1  16
ATOM     16  C   LIG    1       24.826 -22.676   6.924  0.00  0.00    +0.037 C 
BRANCH  16  17
ATOM     17  C   LIG    1       23.823 -23.909   6.689  0.00  0.00    +0.018 C 
BRANCH  17  18
ATOM     18  C   LIG    1       23.997 -25.493   6.110  0.00  0.00    +0.084 C 
BRANCH  18  19
ATOM     19  N   LIG    1       24.892 -26.649   6.585  0.00  0.00    -0.303 NA
BRANCH  19  20
ATOM     20  C   LIG    1       26.333 -26.602   6.023  0.00  0.00    +0.081 C 
ATOM     21  C   LIG    1       26.585 -27.335   4.645  0.00  0.00    +0.020 C 
ENDBRANCH  19  20
BRANCH  19  22
ATOM     22  C   LIG    1       24.481 -27.941   6.069  0.00  0.00    +0.084 C 
BRANCH  22  23
ATOM     23  C   LIG    1       24.313 -29.125   6.922  0.00  0.00    +0.015 C 
BRANCH  23  24
ATOM     24  C   LIG    1       24.382 -30.376   6.037  0.00  0.00    +0.001 C 
BRANCH  24  25
ATOM     25  C   LIG    1       25.737 -30.963   5.385  0.00  0.00    +0.000 C 
BRANCH  25  26
ATOM     26  C   LIG    1       26.069 -32.506   5.091  0.00  0.00    -0.000 C 
BRANCH  26  28
ATOM     27  C   LIG    1       26.189 -32.875   2.318  0.00  0.00    +0.004 C 
ATOM     28  C   LIG    1       26.715 -33.082   3.753  0.00  0.00    -0.003 C 
ENDBRANCH  26  28
ENDBRANCH  25  26
ENDBRANCH  24  25
ENDBRANCH  23  24
ENDBRANCH  22  23
ENDBRANCH  19  22
ENDBRANCH  18  19
ENDBRANCH  17  18
ENDBRANCH  16  17
ENDBRANCH   1  16
TORSDOF 15
ENDMDL
