MODEL 1
REMARK VINA RESULT:      -5.4      0.000      0.000
REMARK  Name = *****
REMARK                            x       y       z     vdW  Elec       q    Type
REMARK                         _______ _______ _______ _____ _____    ______ ____
ROOT
ATOM      1  C   LIG    1       22.431 -28.906  12.906  0.00  0.00    +0.064 A 
ATOM      2  C   LIG    1       22.636 -29.731  11.754  0.00  0.00    +0.049 A 
ATOM      3  I   LIG    1       20.915 -30.887  11.098  0.00  0.00    -0.041 I 
ATOM      4  C   LIG    1       23.924 -29.918  11.184  0.00  0.00    +0.065 A 
ATOM      5  C   LIG    1       25.006 -29.290  11.851  0.00  0.00    +0.040 A 
ATOM      6  I   LIG    1       26.719 -28.624  10.646  0.00  0.00    -0.042 I 
ATOM      7  C   LIG    1       24.868 -28.703  13.146  0.00  0.00    +0.065 A 
ATOM      8  C   LIG    1       23.561 -28.477  13.644  0.00  0.00    +0.049 A 
ATOM      9  I   LIG    1       23.174 -27.375  15.489  0.00  0.00    -0.041 I 
ENDROOT
BRANCH   1  11
ATOM     10  C   LIG    1       20.769 -27.040  12.703  0.00  0.00    +0.138 C 
ATOM     11  N   LIG    1       21.117 -28.369  13.202  0.00  0.00    -0.271 N 
ATOM     12  C   LIG    1       20.325 -29.044  14.148  0.00  0.00    +0.245 C 
ATOM     13  O   LIG    1       20.633 -30.147  14.610  0.00  0.00    -0.273 OA
BRANCH  12  14
ATOM     14  C   LIG    1       19.038 -28.339  14.621  0.00  0.00    +0.252 C 
BRANCH  14  15
ATOM     15  O   LIG    1       17.880 -28.726  13.895  0.00  0.00    -0.386 OA
ATOM     16  H   LIG    1       17.121 -28.326  14.361  0.00  0.00    +0.210 HD
ENDBRANCH  14  15
ENDBRANCH  12  14
ENDBRANCH   1  11
BRANCH   4  17
ATOM     17  C   LIG    1       24.097 -30.669   9.868  0.00  0.00    +0.246 C 
ATOM     18  N   LIG    1       23.951 -29.955   8.676  0.00  0.00    -0.309 N 
ATOM     19  H   LIG    1       23.761 -28.964   8.663  0.00  0.00    +0.149 HD
ATOM     20  O   LIG    1       24.344 -31.848   9.853  0.00  0.00    -0.270 OA
BRANCH  18  21
ATOM     21  C   LIG    1       24.141 -30.598   7.365  0.00  0.00    +0.138 C 
BRANCH  21  22
ATOM     22  C   LIG    1       24.319 -29.593   6.212  0.00  0.00    +0.157 C 
BRANCH  22  23
ATOM     23  O   LIG    1       23.133 -29.578   5.400  0.00  0.00    -0.388 OA
ATOM     24  H   LIG    1       23.288 -30.243   4.697  0.00  0.00    +0.210 HD
ENDBRANCH  22  23
BRANCH  22  25
ATOM     25  C   LIG    1       24.574 -28.170   6.735  0.00  0.00    +0.188 C 
BRANCH  25  26
ATOM     26  O   LIG    1       25.975 -27.993   6.970  0.00  0.00    -0.392 OA
ATOM     27  H   LIG    1       26.149 -27.035   7.003  0.00  0.00    +0.209 HD
ENDBRANCH  25  26
ENDBRANCH  22  25
ENDBRANCH  21  22
ENDBRANCH  18  21
ENDBRANCH   4  17
BRANCH   7  28
ATOM     28  C   LIG    1       26.162 -28.434  13.915  0.00  0.00    +0.246 C 
ATOM     29  N   LIG    1       26.529 -27.094  13.989  0.00  0.00    -0.309 N 
ATOM     30  H   LIG    1       25.794 -26.440  13.805  0.00  0.00    +0.149 HD
ATOM     31  O   LIG    1       26.783 -29.342  14.470  0.00  0.00    -0.270 OA
BRANCH  29  32
ATOM     32  C   LIG    1       27.610 -26.587  14.833  0.00  0.00    +0.138 C 
BRANCH  32  33
ATOM     33  C   LIG    1       27.661 -25.049  14.734  0.00  0.00    +0.157 C 
BRANCH  33  34
ATOM     34  O   LIG    1       28.061 -24.628  13.416  0.00  0.00    -0.388 OA
ATOM     35  H   LIG    1       28.532 -25.367  12.996  0.00  0.00    +0.210 HD
ENDBRANCH  33  34
BRANCH  33  36
ATOM     36  C   LIG    1       26.299 -24.405  14.974  0.00  0.00    +0.188 C 
BRANCH  36  37
ATOM     37  O   LIG    1       25.644 -24.234  13.713  0.00  0.00    -0.392 OA
ATOM     38  H   LIG    1       25.933 -24.997  13.172  0.00  0.00    +0.209 HD
ENDBRANCH  36  37
ENDBRANCH  33  36
ENDBRANCH  32  33
ENDBRANCH  29  32
ENDBRANCH   7  28
TORSDOF 15
ENDMDL
MODEL 2
REMARK VINA RESULT:      -5.3      1.355      6.501
REMARK  Name = *****
REMARK                            x       y       z     vdW  Elec       q    Type
REMARK                         _______ _______ _______ _____ _____    ______ ____
ROOT
ATOM      1  C   LIG    1       22.912 -29.069  12.819  0.00  0.00    +0.064 A 
ATOM      2  C   LIG    1       23.877 -28.150  13.343  0.00  0.00    +0.049 A 
ATOM      3  I   LIG    1       23.124 -26.701  14.778  0.00  0.00    -0.041 I 
ATOM      4  C   LIG    1       25.199 -28.073  12.827  0.00  0.00    +0.065 A 
ATOM      5  C   LIG    1       25.495 -28.918  11.727  0.00  0.00    +0.040 A 
ATOM      6  I   LIG    1       27.552 -29.665  11.520  0.00  0.00    -0.042 I 
ATOM      7  C   LIG    1       24.482 -29.629  11.014  0.00  0.00    +0.065 A 
ATOM      8  C   LIG    1       23.196 -29.732  11.600  0.00  0.00    +0.049 A 
ATOM      9  I   LIG    1       21.613 -30.980  10.764  0.00  0.00    -0.041 I 
ENDROOT
BRANCH   1  11
ATOM     10  C   LIG    1       21.858 -30.620  14.484  0.00  0.00    +0.138 C 
ATOM     11  N   LIG    1       21.758 -29.453  13.609  0.00  0.00    -0.271 N 
ATOM     12  C   LIG    1       20.528 -28.833  13.326  0.00  0.00    +0.245 C 
ATOM     13  O   LIG    1       20.426 -27.876  12.553  0.00  0.00    -0.273 OA
BRANCH  12  14
ATOM     14  C   LIG    1       19.273 -29.414  14.008  0.00  0.00    +0.252 C 
BRANCH  14  15
ATOM     15  O   LIG    1       18.185 -28.503  14.065  0.00  0.00    -0.386 OA
ATOM     16  H   LIG    1       18.409 -27.854  14.760  0.00  0.00    +0.210 HD
ENDBRANCH  14  15
ENDBRANCH  12  14
ENDBRANCH   1  11
BRANCH   4  17
ATOM     17  C   LIG    1       26.254 -27.204  13.501  0.00  0.00    +0.246 C 
ATOM     18  N   LIG    1       26.472 -25.919  12.996  0.00  0.00    -0.309 N 
ATOM     19  H   LIG    1       25.940 -25.548  12.224  0.00  0.00    +0.149 HD
ATOM     20  O   LIG    1       26.891 -27.613  14.438  0.00  0.00    -0.270 OA
BRANCH  18  21
ATOM     21  C   LIG    1       27.445 -25.003  13.616  0.00  0.00    +0.138 C 
BRANCH  21  22
ATOM     22  C   LIG    1       26.910 -24.310  14.882  0.00  0.00    +0.157 C 
BRANCH  22  23
ATOM     23  O   LIG    1       27.826 -23.282  15.292  0.00  0.00    -0.388 OA
ATOM     24  H   LIG    1       27.934 -22.699  14.511  0.00  0.00    +0.210 HD
ENDBRANCH  22  23
BRANCH  22  25
ATOM     25  C   LIG    1       25.532 -23.672  14.640  0.00  0.00    +0.188 C 
BRANCH  25  26
ATOM     26  O   LIG    1       25.648 -22.247  14.717  0.00  0.00    -0.392 OA
ATOM     27  H   LIG    1       25.182 -21.957  15.523  0.00  0.00    +0.209 HD
ENDBRANCH  25  26
ENDBRANCH  22  25
ENDBRANCH  21  22
ENDBRANCH  18  21
ENDBRANCH   4  17
BRANCH   7  28
ATOM     28  C   LIG    1       24.864 -30.160   9.633  0.00  0.00    +0.246 C 
ATOM     29  N   LIG    1       24.890 -29.202   8.625  0.00  0.00    -0.309 N 
ATOM     30  H   LIG    1       24.951 -28.253   8.940  0.00  0.00    +0.149 HD
ATOM     31  O   LIG    1       25.180 -31.338   9.459  0.00  0.00    -0.270 OA
BRANCH  29  32
ATOM     32  C   LIG    1       25.415 -29.440   7.281  0.00  0.00    +0.138 C 
BRANCH  32  33
ATOM     33  C   LIG    1       25.123 -28.216   6.391  0.00  0.00    +0.157 C 
BRANCH  33  34
ATOM     34  O   LIG    1       26.329 -27.724   5.775  0.00  0.00    -0.388 OA
ATOM     35  H   LIG    1       26.280 -27.919   4.825  0.00  0.00    +0.210 HD
ENDBRANCH  33  34
BRANCH  33  36
ATOM     36  C   LIG    1       24.181 -28.545   5.238  0.00  0.00    +0.188 C 
BRANCH  36  37
ATOM     37  O   LIG    1       23.274 -29.567   5.664  0.00  0.00    -0.392 OA
ATOM     38  H   LIG    1       23.812 -30.384   5.699  0.00  0.00    +0.209 HD
ENDBRANCH  36  37
ENDBRANCH  33  36
ENDBRANCH  32  33
ENDBRANCH  29  32
ENDBRANCH   7  28
TORSDOF 15
ENDMDL
MODEL 3
REMARK VINA RESULT:      -5.1      2.837      3.257
REMARK  Name = *****
REMARK                            x       y       z     vdW  Elec       q    Type
REMARK                         _______ _______ _______ _____ _____    ______ ____
ROOT
ATOM      1  C   LIG    1       23.171 -32.066  11.001  0.00  0.00    +0.064 A 
ATOM      2  C   LIG    1       23.806 -32.071   9.718  0.00  0.00    +0.049 A 
ATOM      3  I   LIG    1       22.996 -33.471   8.265  0.00  0.00    -0.041 I 
ATOM      4  C   LIG    1       24.998 -31.339   9.467  0.00  0.00    +0.065 A 
ATOM      5  C   LIG    1       25.557 -30.648  10.572  0.00  0.00    +0.040 A 
ATOM      6  I   LIG    1       26.652 -28.783  10.180  0.00  0.00    -0.042 I 
ATOM      7  C   LIG    1       25.105 -30.855  11.911  0.00  0.00    +0.065 A 
ATOM      8  C   LIG    1       23.877 -31.534  12.108  0.00  0.00    +0.049 A 
ATOM      9  I   LIG    1       22.929 -31.720  14.065  0.00  0.00    -0.041 I 
ENDROOT
BRANCH   1  11
ATOM     10  C   LIG    1       21.423 -33.800  11.478  0.00  0.00    +0.138 C 
ATOM     11  N   LIG    1       21.771 -32.423  11.130  0.00  0.00    -0.271 N 
ATOM     12  C   LIG    1       20.809 -31.498  10.687  0.00  0.00    +0.245 C 
ATOM     13  O   LIG    1       21.098 -30.347  10.348  0.00  0.00    -0.273 OA
BRANCH  12  14
ATOM     14  C   LIG    1       19.347 -31.981  10.615  0.00  0.00    +0.252 C 
BRANCH  14  15
ATOM     15  O   LIG    1       18.441 -30.985  10.165  0.00  0.00    -0.386 OA
ATOM     16  H   LIG    1       18.639 -30.182  10.685  0.00  0.00    +0.210 HD
ENDBRANCH  14  15
ENDBRANCH  12  14
ENDBRANCH   1  11
BRANCH   4  17
ATOM     17  C   LIG    1       25.568 -31.230   8.058  0.00  0.00    +0.246 C 
ATOM     18  N   LIG    1       24.887 -30.438   7.129  0.00  0.00    -0.309 N 
ATOM     19  H   LIG    1       24.053 -29.925   7.370  0.00  0.00    +0.149 HD
ATOM     20  O   LIG    1       26.574 -31.815   7.747  0.00  0.00    -0.270 OA
BRANCH  18  21
ATOM     21  C   LIG    1       25.394 -30.250   5.759  0.00  0.00    +0.138 C 
BRANCH  21  22
ATOM     22  C   LIG    1       24.656 -29.145   4.982  0.00  0.00    +0.157 C 
BRANCH  22  23
ATOM     23  O   LIG    1       23.255 -29.186   5.300  0.00  0.00    -0.388 OA
ATOM     24  H   LIG    1       23.153 -28.641   6.109  0.00  0.00    +0.210 HD
ENDBRANCH  22  23
BRANCH  22  25
ATOM     25  C   LIG    1       25.197 -27.749   5.328  0.00  0.00    +0.188 C 
BRANCH  25  26
ATOM     26  O   LIG    1       26.002 -27.830   6.510  0.00  0.00    -0.392 OA
ATOM     27  H   LIG    1       26.905 -28.072   6.235  0.00  0.00    +0.209 HD
ENDBRANCH  25  26
ENDBRANCH  22  25
ENDBRANCH  21  22
ENDBRANCH  18  21
ENDBRANCH   4  17
BRANCH   7  28
ATOM     28  C   LIG    1       26.035 -30.379  13.027  0.00  0.00    +0.246 C 
ATOM     29  N   LIG    1       25.654 -29.188  13.637  0.00  0.00    -0.309 N 
ATOM     30  H   LIG    1       24.697 -28.928  13.504  0.00  0.00    +0.149 HD
ATOM     31  O   LIG    1       27.009 -31.045  13.383  0.00  0.00    -0.270 OA
BRANCH  29  32
ATOM     32  C   LIG    1       26.276 -28.652  14.847  0.00  0.00    +0.138 C 
BRANCH  32  33
ATOM     33  C   LIG    1       27.357 -27.626  14.458  0.00  0.00    +0.157 C 
BRANCH  33  34
ATOM     34  O   LIG    1       28.450 -28.260  13.768  0.00  0.00    -0.388 OA
ATOM     35  H   LIG    1       28.152 -28.471  12.867  0.00  0.00    +0.210 HD
ENDBRANCH  33  34
BRANCH  33  36
ATOM     36  C   LIG    1       26.832 -26.561  13.501  0.00  0.00    +0.188 C 
BRANCH  36  37
ATOM     37  O   LIG    1       27.783 -25.494  13.434  0.00  0.00    -0.392 OA
ATOM     38  H   LIG    1       27.736 -25.171  12.511  0.00  0.00    +0.209 HD
ENDBRANCH  36  37
ENDBRANCH  33  36
ENDBRANCH  32  33
ENDBRANCH  29  32
ENDBRANCH   7  28
TORSDOF 15
ENDMDL
MODEL 4
REMARK VINA RESULT:      -5.1      1.349      5.998
REMARK  Name = *****
REMARK                            x       y       z     vdW  Elec       q    Type
REMARK                         _______ _______ _______ _____ _____    ______ ____
ROOT
ATOM      1  C   LIG    1       25.044 -27.983  13.345  0.00  0.00    +0.064 A 
ATOM      2  C   LIG    1       25.145 -28.811  12.182  0.00  0.00    +0.049 A 
ATOM      3  I   LIG    1       27.103 -28.890  11.241  0.00  0.00    -0.041 I 
ATOM      4  C   LIG    1       24.001 -29.401  11.578  0.00  0.00    +0.065 A 
ATOM      5  C   LIG    1       22.748 -29.079  12.157  0.00  0.00    +0.040 A 
ATOM      6  I   LIG    1       21.150 -30.585  12.069  0.00  0.00    -0.042 I 
ATOM      7  C   LIG    1       22.597 -28.044  13.129  0.00  0.00    +0.065 A 
ATOM      8  C   LIG    1       23.764 -27.532  13.750  0.00  0.00    +0.049 A 
ATOM      9  I   LIG    1       23.695 -26.128  15.420  0.00  0.00    -0.041 I 
ENDROOT
BRANCH   1  11
ATOM     10  C   LIG    1       26.456 -28.696  15.290  0.00  0.00    +0.138 C 
ATOM     11  N   LIG    1       26.199 -27.764  14.194  0.00  0.00    -0.271 N 
ATOM     12  C   LIG    1       26.885 -26.541  14.075  0.00  0.00    +0.245 C 
ATOM     13  O   LIG    1       26.644 -25.726  13.180  0.00  0.00    -0.273 OA
BRANCH  12  14
ATOM     14  C   LIG    1       27.958 -26.229  15.136  0.00  0.00    +0.252 C 
BRANCH  14  15
ATOM     15  O   LIG    1       29.255 -26.688  14.783  0.00  0.00    -0.386 OA
ATOM     16  H   LIG    1       29.701 -26.916  15.622  0.00  0.00    +0.210 HD
ENDBRANCH  14  15
ENDBRANCH  12  14
ENDBRANCH   1  11
BRANCH   4  17
ATOM     17  C   LIG    1       24.146 -30.405  10.440  0.00  0.00    +0.246 C 
ATOM     18  N   LIG    1       24.010 -29.942   9.129  0.00  0.00    -0.309 N 
ATOM     19  H   LIG    1       23.844 -28.969   8.918  0.00  0.00    +0.149 HD
ATOM     20  O   LIG    1       24.364 -31.569  10.662  0.00  0.00    -0.270 OA
BRANCH  18  21
ATOM     21  C   LIG    1       24.175 -30.840   7.974  0.00  0.00    +0.138 C 
BRANCH  21  22
ATOM     22  C   LIG    1       24.436 -30.094   6.653  0.00  0.00    +0.157 C 
BRANCH  22  23
ATOM     23  O   LIG    1       23.312 -30.263   5.774  0.00  0.00    -0.388 OA
ATOM     24  H   LIG    1       23.501 -29.701   4.994  0.00  0.00    +0.210 HD
ENDBRANCH  22  23
BRANCH  22  25
ATOM     25  C   LIG    1       24.655 -28.589   6.885  0.00  0.00    +0.188 C 
BRANCH  25  26
ATOM     26  O   LIG    1       25.867 -28.393   7.621  0.00  0.00    -0.392 OA
ATOM     27  H   LIG    1       26.433 -27.793   7.102  0.00  0.00    +0.209 HD
ENDBRANCH  25  26
ENDBRANCH  22  25
ENDBRANCH  21  22
ENDBRANCH  18  21
ENDBRANCH   4  17
BRANCH   7  28
ATOM     28  C   LIG    1       21.178 -27.526  13.363  0.00  0.00    +0.246 C 
ATOM     29  N   LIG    1       20.611 -27.905  14.575  0.00  0.00    -0.309 N 
ATOM     30  H   LIG    1       21.260 -28.208  15.274  0.00  0.00    +0.149 HD
ATOM     31  O   LIG    1       20.621 -26.784  12.553  0.00  0.00    -0.270 OA
BRANCH  29  32
ATOM     32  C   LIG    1       19.353 -27.369  15.094  0.00  0.00    +0.138 C 
BRANCH  32  33
ATOM     33  C   LIG    1       18.170 -28.048  14.377  0.00  0.00    +0.157 C 
BRANCH  33  34
ATOM     34  O   LIG    1       18.154 -29.466  14.631  0.00  0.00    -0.388 OA
ATOM     35  H   LIG    1       17.883 -29.600  15.555  0.00  0.00    +0.210 HD
ENDBRANCH  33  34
BRANCH  33  36
ATOM     36  C   LIG    1       16.820 -27.531  14.862  0.00  0.00    +0.188 C 
BRANCH  36  37
ATOM     37  O   LIG    1       15.858 -27.705  13.817  0.00  0.00    -0.392 OA
ATOM     38  H   LIG    1       15.438 -28.570  14.002  0.00  0.00    +0.209 HD
ENDBRANCH  36  37
ENDBRANCH  33  36
ENDBRANCH  32  33
ENDBRANCH  29  32
ENDBRANCH   7  28
TORSDOF 15
ENDMDL
MODEL 5
REMARK VINA RESULT:      -4.9      1.750      2.545
REMARK  Name = *****
REMARK                            x       y       z     vdW  Elec       q    Type
REMARK                         _______ _______ _______ _____ _____    ______ ____
ROOT
ATOM      1  C   LIG    1       22.593 -28.628  13.035  0.00  0.00    +0.064 A 
ATOM      2  C   LIG    1       22.765 -29.540  11.945  0.00  0.00    +0.049 A 
ATOM      3  I   LIG    1       21.057 -30.802  11.486  0.00  0.00    -0.041 I 
ATOM      4  C   LIG    1       24.027 -29.732  11.320  0.00  0.00    +0.065 A 
ATOM      5  C   LIG    1       25.119 -29.015  11.870  0.00  0.00    +0.040 A 
ATOM      6  I   LIG    1       26.738 -28.397  10.519  0.00  0.00    -0.042 I 
ATOM      7  C   LIG    1       25.030 -28.326  13.118  0.00  0.00    +0.065 A 
ATOM      8  C   LIG    1       23.745 -28.101  13.670  0.00  0.00    +0.049 A 
ATOM      9  I   LIG    1       23.416 -26.861  15.437  0.00  0.00    -0.041 I 
ENDROOT
BRANCH   1  11
ATOM     10  C   LIG    1       20.845 -26.851  12.757  0.00  0.00    +0.138 C 
ATOM     11  N   LIG    1       21.278 -28.111  13.360  0.00  0.00    -0.271 N 
ATOM     12  C   LIG    1       20.572 -28.716  14.417  0.00  0.00    +0.245 C 
ATOM     13  O   LIG    1       20.954 -29.754  14.964  0.00  0.00    -0.273 OA
BRANCH  12  14
ATOM     14  C   LIG    1       19.288 -28.013  14.899  0.00  0.00    +0.252 C 
BRANCH  14  15
ATOM     15  O   LIG    1       18.148 -28.307  14.105  0.00  0.00    -0.386 OA
ATOM     16  H   LIG    1       17.394 -27.862  14.537  0.00  0.00    +0.210 HD
ENDBRANCH  14  15
ENDBRANCH  12  14
ENDBRANCH   1  11
BRANCH   4  17
ATOM     17  C   LIG    1       24.156 -30.585  10.063  0.00  0.00    +0.246 C 
ATOM     18  N   LIG    1       23.942 -29.974   8.825  0.00  0.00    -0.309 N 
ATOM     19  H   LIG    1       23.731 -28.991   8.741  0.00  0.00    +0.149 HD
ATOM     20  O   LIG    1       24.428 -31.757  10.132  0.00  0.00    -0.270 OA
BRANCH  18  21
ATOM     21  C   LIG    1       24.086 -30.719   7.563  0.00  0.00    +0.138 C 
BRANCH  21  22
ATOM     22  C   LIG    1       24.350 -29.813   6.346  0.00  0.00    +0.157 C 
BRANCH  22  23
ATOM     23  O   LIG    1       23.161 -29.726   5.545  0.00  0.00    -0.388 OA
ATOM     24  H   LIG    1       22.534 -29.178   6.063  0.00  0.00    +0.210 HD
ENDBRANCH  22  23
BRANCH  22  25
ATOM     25  C   LIG    1       24.759 -28.394   6.774  0.00  0.00    +0.188 C 
BRANCH  25  26
ATOM     26  O   LIG    1       23.912 -27.439   6.127  0.00  0.00    -0.392 OA
ATOM     27  H   LIG    1       24.451 -26.967   5.467  0.00  0.00    +0.209 HD
ENDBRANCH  25  26
ENDBRANCH  22  25
ENDBRANCH  21  22
ENDBRANCH  18  21
ENDBRANCH   4  17
BRANCH   7  28
ATOM     28  C   LIG    1       26.352 -27.951  13.788  0.00  0.00    +0.246 C 
ATOM     29  N   LIG    1       27.078 -29.026  14.289  0.00  0.00    -0.309 N 
ATOM     30  H   LIG    1       26.828 -29.921  13.916  0.00  0.00    +0.149 HD
ATOM     31  O   LIG    1       26.754 -26.786  13.816  0.00  0.00    -0.270 OA
BRANCH  29  32
ATOM     32  C   LIG    1       28.449 -28.928  14.788  0.00  0.00    +0.138 C 
BRANCH  32  33
ATOM     33  C   LIG    1       29.378 -29.790  13.912  0.00  0.00    +0.157 C 
BRANCH  33  34
ATOM     34  O   LIG    1       29.446 -29.278  12.567  0.00  0.00    -0.388 OA
ATOM     35  H   LIG    1       29.384 -28.310  12.614  0.00  0.00    +0.210 HD
ENDBRANCH  33  34
BRANCH  33  36
ATOM     36  C   LIG    1       30.817 -29.797  14.420  0.00  0.00    +0.188 C 
BRANCH  36  37
ATOM     37  O   LIG    1       31.641 -30.460  13.456  0.00  0.00    -0.392 OA
ATOM     38  H   LIG    1       31.443 -31.412  13.566  0.00  0.00    +0.209 HD
ENDBRANCH  36  37
ENDBRANCH  33  36
ENDBRANCH  32  33
ENDBRANCH  29  32
ENDBRANCH   7  28
TORSDOF 15
ENDMDL
MODEL 6
REMARK VINA RESULT:      -4.9      2.238      6.241
REMARK  Name = *****
REMARK                            x       y       z     vdW  Elec       q    Type
REMARK                         _______ _______ _______ _____ _____    ______ ____
ROOT
ATOM      1  C   LIG    1       25.058 -29.827  12.500  0.00  0.00    +0.064 A 
ATOM      2  C   LIG    1       25.172 -30.295  11.152  0.00  0.00    +0.049 A 
ATOM      3  I   LIG    1       26.627 -29.264   9.910  0.00  0.00    -0.041 I 
ATOM      4  C   LIG    1       24.269 -31.251  10.611  0.00  0.00    +0.065 A 
ATOM      5  C   LIG    1       23.216 -31.673  11.459  0.00  0.00    +0.040 A 
ATOM      6  I   LIG    1       22.457 -33.723  11.226  0.00  0.00    -0.042 I 
ATOM      7  C   LIG    1       22.918 -31.019  12.694  0.00  0.00    +0.065 A 
ATOM      8  C   LIG    1       23.878 -30.123  13.226  0.00  0.00    +0.049 A 
ATOM      9  I   LIG    1       23.689 -29.229  15.209  0.00  0.00    -0.041 I 
ENDROOT
BRANCH   1  11
ATOM     10  C   LIG    1       27.129 -30.092  13.889  0.00  0.00    +0.138 C 
ATOM     11  N   LIG    1       26.196 -29.227  13.169  0.00  0.00    -0.271 N 
ATOM     12  C   LIG    1       26.226 -27.826  13.294  0.00  0.00    +0.245 C 
ATOM     13  O   LIG    1       25.415 -27.089  12.726  0.00  0.00    -0.273 OA
BRANCH  12  14
ATOM     14  C   LIG    1       27.316 -27.223  14.202  0.00  0.00    +0.252 C 
BRANCH  14  15
ATOM     15  O   LIG    1       27.812 -25.974  13.742  0.00  0.00    -0.386 OA
ATOM     16  H   LIG    1       28.282 -25.573  14.498  0.00  0.00    +0.210 HD
ENDBRANCH  14  15
ENDBRANCH  12  14
ENDBRANCH   1  11
BRANCH   4  17
ATOM     17  C   LIG    1       24.502 -31.853   9.230  0.00  0.00    +0.246 C 
ATOM     18  N   LIG    1       23.774 -31.341   8.154  0.00  0.00    -0.309 N 
ATOM     19  H   LIG    1       23.124 -30.576   8.261  0.00  0.00    +0.149 HD
ATOM     20  O   LIG    1       25.287 -32.753   9.069  0.00  0.00    -0.270 OA
BRANCH  18  21
ATOM     21  C   LIG    1       23.970 -31.841   6.783  0.00  0.00    +0.138 C 
BRANCH  21  22
ATOM     22  C   LIG    1       24.990 -31.020   5.973  0.00  0.00    +0.157 C 
BRANCH  22  23
ATOM     23  O   LIG    1       25.101 -31.563   4.648  0.00  0.00    -0.388 OA
ATOM     24  H   LIG    1       26.047 -31.800   4.539  0.00  0.00    +0.210 HD
ENDBRANCH  22  23
BRANCH  22  25
ATOM     25  C   LIG    1       24.571 -29.544   5.865  0.00  0.00    +0.188 C 
BRANCH  25  26
ATOM     26  O   LIG    1       23.182 -29.467   5.527  0.00  0.00    -0.392 OA
ATOM     27  H   LIG    1       22.939 -30.303   5.090  0.00  0.00    +0.209 HD
ENDBRANCH  25  26
ENDBRANCH  22  25
ENDBRANCH  21  22
ENDBRANCH  18  21
ENDBRANCH   4  17
BRANCH   7  28
ATOM     28  C   LIG    1       21.542 -31.295  13.299  0.00  0.00    +0.246 C 
ATOM     29  N   LIG    1       20.484 -30.654  12.662  0.00  0.00    -0.309 N 
ATOM     30  H   LIG    1       20.677 -30.335  11.733  0.00  0.00    +0.149 HD
ATOM     31  O   LIG    1       21.396 -32.075  14.241  0.00  0.00    -0.270 OA
BRANCH  29  32
ATOM     32  C   LIG    1       19.074 -30.925  12.941  0.00  0.00    +0.138 C 
BRANCH  32  33
ATOM     33  C   LIG    1       18.420 -31.569  11.703  0.00  0.00    +0.157 C 
BRANCH  33  34
ATOM     34  O   LIG    1       17.200 -30.889  11.349  0.00  0.00    -0.388 OA
ATOM     35  H   LIG    1       17.432 -29.991  11.060  0.00  0.00    +0.210 HD
ENDBRANCH  33  34
BRANCH  33  36
ATOM     36  C   LIG    1       19.308 -31.487  10.465  0.00  0.00    +0.188 C 
BRANCH  36  37
ATOM     37  O   LIG    1       19.152 -30.193   9.874  0.00  0.00    -0.392 OA
ATOM     38  H   LIG    1       18.342 -29.824  10.282  0.00  0.00    +0.209 HD
ENDBRANCH  36  37
ENDBRANCH  33  36
ENDBRANCH  32  33
ENDBRANCH  29  32
ENDBRANCH   7  28
TORSDOF 15
ENDMDL
MODEL 7
REMARK VINA RESULT:      -4.6      2.006      6.347
REMARK  Name = *****
REMARK                            x       y       z     vdW  Elec       q    Type
REMARK                         _______ _______ _______ _____ _____    ______ ____
ROOT
ATOM      1  C   LIG    1       21.841 -30.537  12.781  0.00  0.00    +0.064 A 
ATOM      2  C   LIG    1       22.018 -29.188  13.227  0.00  0.00    +0.049 A 
ATOM      3  I   LIG    1       20.352 -28.327  14.327  0.00  0.00    -0.041 I 
ATOM      4  C   LIG    1       23.134 -28.405  12.826  0.00  0.00    +0.065 A 
ATOM      5  C   LIG    1       24.034 -29.011  11.914  0.00  0.00    +0.040 A 
ATOM      6  I   LIG    1       26.154 -28.443  12.019  0.00  0.00    -0.042 I 
ATOM      7  C   LIG    1       23.733 -30.236  11.242  0.00  0.00    +0.065 A 
ATOM      8  C   LIG    1       22.650 -31.014  11.720  0.00  0.00    +0.049 A 
ATOM      9  I   LIG    1       22.208 -33.015  10.967  0.00  0.00    -0.041 I 
ENDROOT
BRANCH   1  11
ATOM     10  C   LIG    1       21.567 -32.232  14.608  0.00  0.00    +0.138 C 
ATOM     11  N   LIG    1       20.988 -31.449  13.518  0.00  0.00    -0.271 N 
ATOM     12  C   LIG    1       19.706 -31.716  13.003  0.00  0.00    +0.245 C 
ATOM     13  O   LIG    1       19.226 -31.092  12.053  0.00  0.00    -0.273 OA
BRANCH  12  14
ATOM     14  C   LIG    1       18.905 -32.855  13.664  0.00  0.00    +0.252 C 
BRANCH  14  15
ATOM     15  O   LIG    1       18.006 -32.409  14.669  0.00  0.00    -0.386 OA
ATOM     16  H   LIG    1       17.349 -31.847  14.215  0.00  0.00    +0.210 HD
ENDBRANCH  14  15
ENDBRANCH  12  14
ENDBRANCH   1  11
BRANCH   4  17
ATOM     17  C   LIG    1       23.387 -27.031  13.436  0.00  0.00    +0.246 C 
ATOM     18  N   LIG    1       24.382 -26.913  14.409  0.00  0.00    -0.309 N 
ATOM     19  H   LIG    1       24.948 -27.698  14.697  0.00  0.00    +0.149 HD
ATOM     20  O   LIG    1       22.741 -26.072  13.097  0.00  0.00    -0.270 OA
BRANCH  18  21
ATOM     21  C   LIG    1       24.714 -25.614  15.018  0.00  0.00    +0.138 C 
BRANCH  21  22
ATOM     22  C   LIG    1       25.662 -24.760  14.157  0.00  0.00    +0.157 C 
BRANCH  22  23
ATOM     23  O   LIG    1       25.392 -23.367  14.381  0.00  0.00    -0.388 OA
ATOM     24  H   LIG    1       25.741 -22.901  13.592  0.00  0.00    +0.210 HD
ENDBRANCH  22  23
BRANCH  22  25
ATOM     25  C   LIG    1       27.137 -25.034  14.494  0.00  0.00    +0.188 C 
BRANCH  25  26
ATOM     26  O   LIG    1       27.922 -24.948  13.300  0.00  0.00    -0.392 OA
ATOM     27  H   LIG    1       28.013 -24.005  13.075  0.00  0.00    +0.209 HD
ENDBRANCH  25  26
ENDBRANCH  22  25
ENDBRANCH  21  22
ENDBRANCH  18  21
ENDBRANCH   4  17
BRANCH   7  28
ATOM     28  C   LIG    1       24.575 -30.563  10.009  0.00  0.00    +0.246 C 
ATOM     29  N   LIG    1       24.238 -29.846   8.865  0.00  0.00    -0.309 N 
ATOM     30  H   LIG    1       23.710 -29.011   9.026  0.00  0.00    +0.149 HD
ATOM     31  O   LIG    1       25.512 -31.360  10.061  0.00  0.00    -0.270 OA
BRANCH  29  32
ATOM     32  C   LIG    1       25.028 -29.849   7.634  0.00  0.00    +0.138 C 
BRANCH  32  33
ATOM     33  C   LIG    1       24.851 -28.502   6.906  0.00  0.00    +0.157 C 
BRANCH  33  34
ATOM     34  O   LIG    1       26.123 -27.870   6.668  0.00  0.00    -0.388 OA
ATOM     35  H   LIG    1       26.498 -28.251   5.856  0.00  0.00    +0.210 HD
ENDBRANCH  33  34
BRANCH  33  36
ATOM     36  C   LIG    1       24.210 -28.663   5.531  0.00  0.00    +0.188 C 
BRANCH  36  37
ATOM     37  O   LIG    1       23.223 -29.696   5.603  0.00  0.00    -0.392 OA
ATOM     38  H   LIG    1       22.372 -29.225   5.715  0.00  0.00    +0.209 HD
ENDBRANCH  36  37
ENDBRANCH  33  36
ENDBRANCH  32  33
ENDBRANCH  29  32
ENDBRANCH   7  28
TORSDOF 15
ENDMDL
MODEL 8
REMARK VINA RESULT:      -4.5      2.863      3.445
REMARK  Name = *****
REMARK                            x       y       z     vdW  Elec       q    Type
REMARK                         _______ _______ _______ _____ _____    ______ ____
ROOT
ATOM      1  C   LIG    1       23.214 -31.347  12.224  0.00  0.00    +0.064 A 
ATOM      2  C   LIG    1       23.731 -31.305  10.890  0.00  0.00    +0.049 A 
ATOM      3  I   LIG    1       22.741 -32.595   9.448  0.00  0.00    -0.041 I 
ATOM      4  C   LIG    1       24.925 -30.603  10.569  0.00  0.00    +0.065 A 
ATOM      5  C   LIG    1       25.607 -29.992  11.652  0.00  0.00    +0.040 A 
ATOM      6  I   LIG    1       26.736 -28.149  11.258  0.00  0.00    -0.042 I 
ATOM      7  C   LIG    1       25.267 -30.255  13.015  0.00  0.00    +0.065 A 
ATOM      8  C   LIG    1       24.036 -30.900  13.287  0.00  0.00    +0.049 A 
ATOM      9  I   LIG    1       23.258 -31.157  15.311  0.00  0.00    -0.041 I 
ENDROOT
BRANCH   1  11
ATOM     10  C   LIG    1       21.436 -33.055  12.679  0.00  0.00    +0.138 C 
ATOM     11  N   LIG    1       21.818 -31.661  12.461  0.00  0.00    -0.271 N 
ATOM     12  C   LIG    1       20.865 -30.650  12.239  0.00  0.00    +0.245 C 
ATOM     13  O   LIG    1       21.179 -29.479  12.008  0.00  0.00    -0.273 OA
BRANCH  12  14
ATOM     14  C   LIG    1       19.380 -31.062  12.269  0.00  0.00    +0.252 C 
BRANCH  14  15
ATOM     15  O   LIG    1       18.541 -30.113  12.910  0.00  0.00    -0.386 OA
ATOM     16  H   LIG    1       19.072 -29.722  13.630  0.00  0.00    +0.210 HD
ENDBRANCH  14  15
ENDBRANCH  12  14
ENDBRANCH   1  11
BRANCH   4  17
ATOM     17  C   LIG    1       25.372 -30.438   9.121  0.00  0.00    +0.246 C 
ATOM     18  N   LIG    1       24.635 -29.585   8.296  0.00  0.00    -0.309 N 
ATOM     19  H   LIG    1       23.840 -29.064   8.634  0.00  0.00    +0.149 HD
ATOM     20  O   LIG    1       26.329 -31.032   8.695  0.00  0.00    -0.270 OA
BRANCH  18  21
ATOM     21  C   LIG    1       25.024 -29.341   6.897  0.00  0.00    +0.138 C 
BRANCH  21  22
ATOM     22  C   LIG    1       25.300 -27.858   6.589  0.00  0.00    +0.157 C 
BRANCH  22  23
ATOM     23  O   LIG    1       26.383 -27.390   7.408  0.00  0.00    -0.388 OA
ATOM     24  H   LIG    1       26.983 -26.907   6.801  0.00  0.00    +0.210 HD
ENDBRANCH  22  23
BRANCH  22  25
ATOM     25  C   LIG    1       25.674 -27.646   5.112  0.00  0.00    +0.188 C 
BRANCH  25  26
ATOM     26  O   LIG    1       27.042 -27.234   5.022  0.00  0.00    -0.392 OA
ATOM     27  H   LIG    1       27.234 -27.057   4.083  0.00  0.00    +0.209 HD
ENDBRANCH  25  26
ENDBRANCH  22  25
ENDBRANCH  21  22
ENDBRANCH  18  21
ENDBRANCH   4  17
BRANCH   7  28
ATOM     28  C   LIG    1       26.311 -29.873  14.064  0.00  0.00    +0.246 C 
ATOM     29  N   LIG    1       27.408 -30.726  14.134  0.00  0.00    -0.309 N 
ATOM     30  H   LIG    1       27.551 -31.303  13.329  0.00  0.00    +0.149 HD
ATOM     31  O   LIG    1       26.200 -28.851  14.743  0.00  0.00    -0.270 OA
BRANCH  29  32
ATOM     32  C   LIG    1       28.612 -30.451  14.917  0.00  0.00    +0.138 C 
BRANCH  32  33
ATOM     33  C   LIG    1       29.549 -29.530  14.112  0.00  0.00    +0.157 C 
BRANCH  33  34
ATOM     34  O   LIG    1       29.291 -28.143  14.405  0.00  0.00    -0.388 OA
ATOM     35  H   LIG    1       28.369 -27.954  14.164  0.00  0.00    +0.210 HD
ENDBRANCH  33  34
BRANCH  33  36
ATOM     36  C   LIG    1       31.019 -29.752  14.454  0.00  0.00    +0.188 C 
BRANCH  36  37
ATOM     37  O   LIG    1       31.639 -30.460  13.376  0.00  0.00    -0.392 OA
ATOM     38  H   LIG    1       31.704 -29.807  12.649  0.00  0.00    +0.209 HD
ENDBRANCH  36  37
ENDBRANCH  33  36
ENDBRANCH  32  33
ENDBRANCH  29  32
ENDBRANCH   7  28
TORSDOF 15
ENDMDL
MODEL 9
REMARK VINA RESULT:      -4.5      1.973      2.299
REMARK  Name = *****
REMARK                            x       y       z     vdW  Elec       q    Type
REMARK                         _______ _______ _______ _____ _____    ______ ____
ROOT
ATOM      1  C   LIG    1       23.127 -31.209  12.478  0.00  0.00    +0.064 A 
ATOM      2  C   LIG    1       23.470 -31.824  11.231  0.00  0.00    +0.049 A 
ATOM      3  I   LIG    1       22.338 -33.605  10.710  0.00  0.00    -0.041 I 
ATOM      4  C   LIG    1       24.595 -31.404  10.471  0.00  0.00    +0.065 A 
ATOM      5  C   LIG    1       25.393 -30.380  11.040  0.00  0.00    +0.040 A 
ATOM      6  I   LIG    1       26.415 -28.988   9.682  0.00  0.00    -0.042 I 
ATOM      7  C   LIG    1       25.236 -29.952  12.394  0.00  0.00    +0.065 A 
ATOM      8  C   LIG    1       24.066 -30.344  13.091  0.00  0.00    +0.049 A 
ATOM      9  I   LIG    1       23.558 -29.582  15.072  0.00  0.00    -0.041 I 
ENDROOT
BRANCH   1  11
ATOM     10  C   LIG    1       21.467 -32.426  13.910  0.00  0.00    +0.138 C 
ATOM     11  N   LIG    1       21.781 -31.321  13.007  0.00  0.00    -0.271 N 
ATOM     12  C   LIG    1       20.781 -30.505  12.447  0.00  0.00    +0.245 C 
ATOM     13  O   LIG    1       21.031 -29.598  11.647  0.00  0.00    -0.273 OA
BRANCH  12  14
ATOM     14  C   LIG    1       19.324 -30.797  12.854  0.00  0.00    +0.252 C 
BRANCH  14  15
ATOM     15  O   LIG    1       18.632 -29.657  13.343  0.00  0.00    -0.386 OA
ATOM     16  H   LIG    1       19.318 -29.027  13.636  0.00  0.00    +0.210 HD
ENDBRANCH  14  15
ENDBRANCH  12  14
ENDBRANCH   1  11
BRANCH   4  17
ATOM     17  C   LIG    1       24.850 -31.962   9.075  0.00  0.00    +0.246 C 
ATOM     18  N   LIG    1       24.064 -31.489   8.021  0.00  0.00    -0.309 N 
ATOM     19  H   LIG    1       23.359 -30.779   8.153  0.00  0.00    +0.149 HD
ATOM     20  O   LIG    1       25.699 -32.795   8.884  0.00  0.00    -0.270 OA
BRANCH  18  21
ATOM     21  C   LIG    1       24.275 -31.948   6.638  0.00  0.00    +0.138 C 
BRANCH  21  22
ATOM     22  C   LIG    1       25.141 -30.989   5.801  0.00  0.00    +0.157 C 
BRANCH  22  23
ATOM     23  O   LIG    1       25.163 -31.430   4.434  0.00  0.00    -0.388 OA
ATOM     24  H   LIG    1       26.082 -31.282   4.124  0.00  0.00    +0.210 HD
ENDBRANCH  22  23
BRANCH  22  25
ATOM     25  C   LIG    1       24.599 -29.551   5.845  0.00  0.00    +0.188 C 
BRANCH  25  26
ATOM     26  O   LIG    1       23.203 -29.558   5.527  0.00  0.00    -0.392 OA
ATOM     27  H   LIG    1       22.927 -28.634   5.392  0.00  0.00    +0.209 HD
ENDBRANCH  25  26
ENDBRANCH  22  25
ENDBRANCH  21  22
ENDBRANCH  18  21
ENDBRANCH   4  17
BRANCH   7  28
ATOM     28  C   LIG    1       26.395 -29.158  12.998  0.00  0.00    +0.246 C 
ATOM     29  N   LIG    1       26.165 -27.792  13.121  0.00  0.00    -0.309 N 
ATOM     30  H   LIG    1       25.203 -27.516  13.088  0.00  0.00    +0.149 HD
ATOM     31  O   LIG    1       27.420 -29.714  13.394  0.00  0.00    -0.270 OA
BRANCH  29  32
ATOM     32  C   LIG    1       27.044 -26.875  13.846  0.00  0.00    +0.138 C 
BRANCH  32  33
ATOM     33  C   LIG    1       26.194 -25.828  14.591  0.00  0.00    +0.157 C 
BRANCH  33  34
ATOM     34  O   LIG    1       27.019 -24.776  15.126  0.00  0.00    -0.388 OA
ATOM     35  H   LIG    1       26.870 -24.738  16.086  0.00  0.00    +0.210 HD
ENDBRANCH  33  34
BRANCH  33  36
ATOM     36  C   LIG    1       25.190 -25.135  13.676  0.00  0.00    +0.188 C 
BRANCH  36  37
ATOM     37  O   LIG    1       23.976 -25.892  13.669  0.00  0.00    -0.392 OA
ATOM     38  H   LIG    1       23.264 -25.232  13.792  0.00  0.00    +0.209 HD
ENDBRANCH  36  37
ENDBRANCH  33  36
ENDBRANCH  32  33
ENDBRANCH  29  32
ENDBRANCH   7  28
TORSDOF 15
ENDMDL
