MODEL 1
REMARK VINA RESULT:     -10.0      0.000      0.000
REMARK  Name = *****
REMARK                            x       y       z     vdW  Elec       q    Type
REMARK                         _______ _______ _______ _____ _____    ______ ____
ROOT
ATOM      1  C   UNK A  0       23.757 -21.504   5.576  0.00  0.00    +0.037 C 
ENDROOT
BRANCH   1   2
ATOM      2  C   UNK A  0       24.015 -23.019   5.642  0.00  0.00    -0.043 A 
ATOM      3  C   UNK A  0       23.445 -23.873   6.597  0.00  0.00    +0.005 A 
ATOM      4  C   UNK A  0       23.756 -25.245   6.612  0.00  0.00    +0.013 A 
ATOM      5  C   UNK A  0       24.604 -25.802   5.646  0.00  0.00    +0.037 A 
ATOM      6  C   UNK A  0       25.094 -24.979   4.632  0.00  0.00    +0.013 A 
ATOM      7  C   UNK A  0       24.841 -23.603   4.662  0.00  0.00    +0.005 A 
BRANCH   5   8
ATOM      8  C   UNK A  0       25.002 -27.244   5.773  0.00  0.00    +0.245 C 
ATOM      9  N   GLU A  1       24.490 -27.924   6.863  0.00  0.00    -0.298 N 
ATOM     10  H   GLU A  1       24.115 -27.383   7.632  0.00  0.00    +0.150 HD
ATOM     11  O   UNK A  0       25.672 -27.787   4.906  0.00  0.00    -0.270 OA
BRANCH   9  12
ATOM     12  CA  GLU A  1       24.730 -29.357   7.125  0.00  0.00    +0.182 C 
BRANCH  12  13
ATOM     13  C   GLU A  1       23.747 -30.200   6.285  0.00  0.00    +0.325 C 
ATOM     14  O   GLU A  1       23.604 -31.411   6.364  0.00  0.00    -0.249 OA
BRANCH  13  15
ATOM     15  OXT GLU A  1       23.098 -29.464   5.343  0.00  0.00    -0.479 OA
ATOM     16  HXT GLU A  1       22.264 -29.896   5.067  0.00  0.00    +0.295 HD
ENDBRANCH  13  15
ENDBRANCH  12  13
BRANCH  12  17
ATOM     17  CB  GLU A  1       24.712 -29.691   8.621  0.00  0.00    +0.045 C 
BRANCH  17  18
ATOM     18  CG  GLU A  1       25.826 -30.635   9.061  0.00  0.00    +0.123 C 
BRANCH  18  19
ATOM     19  CD  GLU A  1       26.999 -29.853   9.579  0.00  0.00    +0.305 C 
ATOM     20  OE1 GLU A  1       27.809 -30.236  10.407  0.00  0.00    -0.251 OA
BRANCH  19  21
ATOM     21  OE2 GLU A  1       27.058 -28.610   9.071  0.00  0.00    -0.481 OA
ATOM     22  HE2 GLU A  1       26.288 -28.145   9.458  0.00  0.00    +0.295 HD
ENDBRANCH  19  21
ENDBRANCH  18  19
ENDBRANCH  17  18
ENDBRANCH  12  17
ENDBRANCH   9  12
ENDBRANCH   5   8
ENDBRANCH   1   2
BRANCH   1  23
ATOM     23  C   UNK A  0       22.319 -21.175   5.095  0.00  0.00    +0.097 C 
BRANCH  23  25
ATOM     24  C   UNK A  0       21.956 -18.616   4.421  0.00  0.00    +0.004 C 
ATOM     25  C   UNK A  0       22.103 -19.758   4.726  0.00  0.00    -0.105 C 
ENDBRANCH  23  25
ENDBRANCH   1  23
BRANCH   1  26
ATOM     26  C   UNK A  0       24.055 -20.772   6.916  0.00  0.00    +0.066 C 
BRANCH  26  27
ATOM     27  C   UNK A  0       25.495 -20.832   7.360  0.00  0.00    +0.061 A 
ATOM     28  N   UNK A  0       26.421 -20.214   6.596  0.00  0.00    -0.243 NA
ATOM     29  C   UNK A  0       27.727 -20.301   7.010  0.00  0.00    +0.148 A 
ATOM     30  C   UNK A  0       28.111 -21.016   8.149  0.00  0.00    +0.185 A 
ATOM     31  N   UNK A  0       29.379 -21.159   8.526  0.00  0.00    -0.193 NA
ATOM     32  C   UNK A  0       30.315 -20.596   7.773  0.00  0.00    +0.216 A 
ATOM     33  N   UNK A  0       30.079 -19.841   6.704  0.00  0.00    -0.198 NA
ATOM     34  N   UNK A  0       27.170 -21.602   8.902  0.00  0.00    -0.233 NA
ATOM     35  C   UNK A  0       28.794 -19.711   6.338  0.00  0.00    +0.149 A 
ATOM     36  C   UNK A  0       25.879 -21.502   8.506  0.00  0.00    +0.136 A 
BRANCH  32  37
ATOM     37  N   UNK A  0       31.631 -20.790   8.133  0.00  0.00    -0.327 N 
ATOM     38  H   UNK A  0       31.942 -20.060   8.758  0.00  0.00    +0.145 HD
ATOM     39  H   UNK A  0       31.782 -21.747   8.419  0.00  0.00    +0.145 HD
ENDBRANCH  32  37
BRANCH  35  40
ATOM     40  N   UNK A  0       28.566 -18.857   5.246  0.00  0.00    -0.341 N 
ATOM     41  H   UNK A  0       29.407 -18.723   4.696  0.00  0.00    +0.144 HD
ATOM     42  H   UNK A  0       28.137 -17.998   5.576  0.00  0.00    +0.144 HD
ENDBRANCH  35  40
ENDBRANCH  26  27
ENDBRANCH   1  26
TORSDOF 15
ENDMDL
MODEL 2
REMARK VINA RESULT:      -9.9      1.328      2.271
REMARK  Name = *****
REMARK                            x       y       z     vdW  Elec       q    Type
REMARK                         _______ _______ _______ _____ _____    ______ ____
ROOT
ATOM      1  C   UNK A  0       25.026 -22.818   6.906  0.00  0.00    +0.037 C 
ENDROOT
BRANCH   1   2
ATOM      2  C   UNK A  0       25.038 -24.316   6.556  0.00  0.00    -0.043 A 
ATOM      3  C   UNK A  0       23.895 -25.053   6.219  0.00  0.00    +0.005 A 
ATOM      4  C   UNK A  0       23.982 -26.430   5.942  0.00  0.00    +0.013 A 
ATOM      5  C   UNK A  0       25.219 -27.089   5.950  0.00  0.00    +0.037 A 
ATOM      6  C   UNK A  0       26.373 -26.341   6.185  0.00  0.00    +0.013 A 
ATOM      7  C   UNK A  0       26.274 -24.989   6.530  0.00  0.00    +0.005 A 
BRANCH   5   8
ATOM      8  C   UNK A  0       25.249 -28.578   5.768  0.00  0.00    +0.245 C 
ATOM      9  N   GLU A  1       25.357 -29.331   6.923  0.00  0.00    -0.298 N 
ATOM     10  H   GLU A  1       25.670 -28.871   7.768  0.00  0.00    +0.150 HD
ATOM     11  O   UNK A  0       25.099 -29.077   4.661  0.00  0.00    -0.270 OA
BRANCH   9  12
ATOM     12  CA  GLU A  1       25.352 -30.808   6.945  0.00  0.00    +0.182 C 
BRANCH  12  13
ATOM     13  C   GLU A  1       23.893 -31.312   6.963  0.00  0.00    +0.325 C 
ATOM     14  O   GLU A  1       23.298 -31.728   7.946  0.00  0.00    -0.249 OA
BRANCH  13  15
ATOM     15  OXT GLU A  1       23.336 -31.347   5.722  0.00  0.00    -0.479 OA
ATOM     16  HXT GLU A  1       23.961 -31.714   5.064  0.00  0.00    +0.295 HD
ENDBRANCH  13  15
ENDBRANCH  12  13
BRANCH  12  17
ATOM     17  CB  GLU A  1       26.221 -31.380   8.071  0.00  0.00    +0.045 C 
BRANCH  17  18
ATOM     18  CG  GLU A  1       25.984 -30.731   9.431  0.00  0.00    +0.123 C 
BRANCH  18  19
ATOM     19  CD  GLU A  1       27.179 -29.915   9.835  0.00  0.00    +0.305 C 
ATOM     20  OE1 GLU A  1       27.982 -30.201  10.706  0.00  0.00    -0.251 OA
BRANCH  19  21
ATOM     21  OE2 GLU A  1       27.264 -28.755   9.162  0.00  0.00    -0.481 OA
ATOM     22  HE2 GLU A  1       27.685 -28.132   9.790  0.00  0.00    +0.295 HD
ENDBRANCH  19  21
ENDBRANCH  18  19
ENDBRANCH  17  18
ENDBRANCH  12  17
ENDBRANCH   9  12
ENDBRANCH   5   8
ENDBRANCH   1   2
BRANCH   1  23
ATOM     23  C   UNK A  0       23.588 -22.278   7.126  0.00  0.00    +0.097 C 
BRANCH  23  25
ATOM     24  C   UNK A  0       23.018 -20.093   5.699  0.00  0.00    +0.004 C 
ATOM     25  C   UNK A  0       23.260 -21.065   6.344  0.00  0.00    -0.105 C 
ENDBRANCH  23  25
ENDBRANCH   1  23
BRANCH   1  26
ATOM     26  C   UNK A  0       25.923 -22.466   8.128  0.00  0.00    +0.066 C 
BRANCH  26  27
ATOM     27  C   UNK A  0       27.103 -21.584   7.810  0.00  0.00    +0.061 A 
ATOM     28  N   UNK A  0       28.256 -21.800   8.479  0.00  0.00    -0.243 NA
ATOM     29  C   UNK A  0       29.309 -20.970   8.187  0.00  0.00    +0.148 A 
ATOM     30  C   UNK A  0       29.211 -19.921   7.267  0.00  0.00    +0.185 A 
ATOM     31  N   UNK A  0       30.206 -19.072   7.021  0.00  0.00    -0.193 NA
ATOM     32  C   UNK A  0       31.339 -19.236   7.693  0.00  0.00    +0.216 A 
ATOM     33  N   UNK A  0       31.580 -20.227   8.545  0.00  0.00    -0.198 NA
ATOM     34  N   UNK A  0       28.063 -19.741   6.601  0.00  0.00    -0.233 NA
ATOM     35  C   UNK A  0       30.564 -21.071   8.782  0.00  0.00    +0.149 A 
ATOM     36  C   UNK A  0       27.027 -20.571   6.873  0.00  0.00    +0.136 A 
BRANCH  32  37
ATOM     37  N   UNK A  0       32.349 -18.324   7.478  0.00  0.00    -0.327 N 
ATOM     38  H   UNK A  0       32.531 -18.217   6.490  0.00  0.00    +0.145 HD
ATOM     39  H   UNK A  0       32.190 -17.486   8.018  0.00  0.00    +0.145 HD
ENDBRANCH  32  37
BRANCH  35  40
ATOM     40  N   UNK A  0       30.865 -22.145   9.636  0.00  0.00    -0.341 N 
ATOM     41  H   UNK A  0       31.750 -22.007  10.113  0.00  0.00    +0.144 HD
ATOM     42  H   UNK A  0       30.797 -23.015   9.118  0.00  0.00    +0.144 HD
ENDBRANCH  35  40
ENDBRANCH  26  27
ENDBRANCH   1  26
TORSDOF 15
ENDMDL
MODEL 3
REMARK VINA RESULT:      -9.1      1.448      2.894
REMARK  Name = *****
REMARK                            x       y       z     vdW  Elec       q    Type
REMARK                         _______ _______ _______ _____ _____    ______ ____
ROOT
ATOM      1  C   UNK A  0       25.173 -22.729   5.512  0.00  0.00    +0.037 C 
ENDROOT
BRANCH   1   2
ATOM      2  C   UNK A  0       25.064 -24.240   5.780  0.00  0.00    -0.043 A 
ATOM      3  C   UNK A  0       24.169 -25.093   5.120  0.00  0.00    +0.005 A 
ATOM      4  C   UNK A  0       24.106 -26.460   5.444  0.00  0.00    +0.013 A 
ATOM      5  C   UNK A  0       24.967 -27.014   6.401  0.00  0.00    +0.037 A 
ATOM      6  C   UNK A  0       25.930 -26.193   6.989  0.00  0.00    +0.013 A 
ATOM      7  C   UNK A  0       25.941 -24.820   6.717  0.00  0.00    +0.005 A 
BRANCH   5   8
ATOM      8  C   UNK A  0       24.783 -28.449   6.800  0.00  0.00    +0.245 C 
ATOM      9  N   GLU A  1       25.800 -29.008   7.552  0.00  0.00    -0.298 N 
ATOM     10  H   GLU A  1       26.698 -28.540   7.568  0.00  0.00    +0.150 HD
ATOM     11  O   UNK A  0       23.747 -29.044   6.538  0.00  0.00    -0.270 OA
BRANCH   9  12
ATOM     12  CA  GLU A  1       25.772 -30.388   8.078  0.00  0.00    +0.182 C 
BRANCH  12  13
ATOM     13  C   GLU A  1       26.652 -30.469   9.343  0.00  0.00    +0.325 C 
ATOM     14  O   GLU A  1       26.578 -31.333  10.204  0.00  0.00    -0.249 OA
BRANCH  13  15
ATOM     15  OXT GLU A  1       27.483 -29.400   9.472  0.00  0.00    -0.479 OA
ATOM     16  HXT GLU A  1       27.476 -29.054  10.388  0.00  0.00    +0.295 HD
ENDBRANCH  13  15
ENDBRANCH  12  13
BRANCH  12  17
ATOM     17  CB  GLU A  1       26.122 -31.429   7.009  0.00  0.00    +0.045 C 
BRANCH  17  18
ATOM     18  CG  GLU A  1       25.105 -32.559   6.884  0.00  0.00    +0.123 C 
BRANCH  18  19
ATOM     19  CD  GLU A  1       24.338 -32.430   5.599  0.00  0.00    +0.305 C 
ATOM     20  OE1 GLU A  1       24.621 -32.960   4.537  0.00  0.00    -0.251 OA
BRANCH  19  21
ATOM     21  OE2 GLU A  1       23.289 -31.596   5.703  0.00  0.00    -0.481 OA
ATOM     22  HE2 GLU A  1       22.553 -32.062   5.255  0.00  0.00    +0.295 HD
ENDBRANCH  19  21
ENDBRANCH  18  19
ENDBRANCH  17  18
ENDBRANCH  12  17
ENDBRANCH   9  12
ENDBRANCH   5   8
ENDBRANCH   1   2
BRANCH   1  23
ATOM     23  C   UNK A  0       24.035 -22.213   4.593  0.00  0.00    +0.097 C 
BRANCH  23  25
ATOM     24  C   UNK A  0       22.829 -19.978   5.422  0.00  0.00    +0.004 C 
ATOM     25  C   UNK A  0       23.375 -20.976   5.066  0.00  0.00    -0.105 C 
ENDBRANCH  23  25
ENDBRANCH   1  23
BRANCH   1  26
ATOM     26  C   UNK A  0       25.238 -21.878   6.814  0.00  0.00    +0.066 C 
BRANCH  26  27
ATOM     27  C   UNK A  0       26.606 -21.337   7.145  0.00  0.00    +0.061 A 
ATOM     28  N   UNK A  0       27.143 -20.418   6.314  0.00  0.00    -0.243 NA
ATOM     29  C   UNK A  0       28.398 -19.957   6.627  0.00  0.00    +0.148 A 
ATOM     30  C   UNK A  0       29.120 -20.422   7.730  0.00  0.00    +0.185 A 
ATOM     31  N   UNK A  0       30.361 -20.028   8.008  0.00  0.00    -0.193 NA
ATOM     32  C   UNK A  0       30.930 -19.156   7.186  0.00  0.00    +0.216 A 
ATOM     33  N   UNK A  0       30.331 -18.591   6.142  0.00  0.00    -0.198 NA
ATOM     34  N   UNK A  0       28.555 -21.318   8.551  0.00  0.00    -0.233 NA
ATOM     35  C   UNK A  0       29.082 -19.004   5.877  0.00  0.00    +0.149 A 
ATOM     36  C   UNK A  0       27.310 -21.761   8.256  0.00  0.00    +0.136 A 
BRANCH  32  37
ATOM     37  N   UNK A  0       32.233 -18.789   7.444  0.00  0.00    -0.327 N 
ATOM     38  H   UNK A  0       32.711 -18.541   6.590  0.00  0.00    +0.145 HD
ATOM     39  H   UNK A  0       32.271 -18.132   8.211  0.00  0.00    +0.145 HD
ENDBRANCH  32  37
BRANCH  35  40
ATOM     40  N   UNK A  0       28.449 -18.346   4.809  0.00  0.00    -0.341 N 
ATOM     41  H   UNK A  0       28.603 -18.829   3.930  0.00  0.00    +0.144 HD
ATOM     42  H   UNK A  0       28.722 -17.369   4.807  0.00  0.00    +0.144 HD
ENDBRANCH  35  40
ENDBRANCH  26  27
ENDBRANCH   1  26
TORSDOF 15
ENDMDL
MODEL 4
REMARK VINA RESULT:      -9.1      5.174      9.951
REMARK  Name = *****
REMARK                            x       y       z     vdW  Elec       q    Type
REMARK                         _______ _______ _______ _____ _____    ______ ____
ROOT
ATOM      1  C   UNK A  0       25.193 -23.747   6.945  0.00  0.00    +0.037 C 
ENDROOT
BRANCH   1   2
ATOM      2  C   UNK A  0       26.120 -22.521   7.018  0.00  0.00    -0.043 A 
ATOM      3  C   UNK A  0       26.311 -21.616   5.965  0.00  0.00    +0.005 A 
ATOM      4  C   UNK A  0       27.202 -20.535   6.097  0.00  0.00    +0.013 A 
ATOM      5  C   UNK A  0       27.886 -20.308   7.299  0.00  0.00    +0.037 A 
ATOM      6  C   UNK A  0       27.624 -21.145   8.385  0.00  0.00    +0.013 A 
ATOM      7  C   UNK A  0       26.792 -22.260   8.227  0.00  0.00    +0.005 A 
BRANCH   5   8
ATOM      8  C   UNK A  0       28.914 -19.217   7.355  0.00  0.00    +0.245 C 
ATOM      9  N   GLU A  1       29.308 -18.815   8.618  0.00  0.00    -0.298 N 
ATOM     10  H   GLU A  1       28.722 -19.063   9.405  0.00  0.00    +0.150 HD
ATOM     11  O   UNK A  0       29.424 -18.784   6.331  0.00  0.00    -0.270 OA
BRANCH   9  12
ATOM     12  CA  GLU A  1       30.343 -17.792   8.870  0.00  0.00    +0.182 C 
BRANCH  12  13
ATOM     13  C   GLU A  1       31.739 -18.446   8.771  0.00  0.00    +0.325 C 
ATOM     14  O   GLU A  1       32.012 -19.588   9.110  0.00  0.00    -0.249 OA
BRANCH  13  15
ATOM     15  OXT GLU A  1       32.696 -17.576   8.350  0.00  0.00    -0.479 OA
ATOM     16  HXT GLU A  1       33.492 -17.623   8.918  0.00  0.00    +0.295 HD
ENDBRANCH  13  15
ENDBRANCH  12  13
BRANCH  12  17
ATOM     17  CB  GLU A  1       30.106 -17.028  10.177  0.00  0.00    +0.045 C 
BRANCH  17  18
ATOM     18  CG  GLU A  1       31.033 -17.440  11.316  0.00  0.00    +0.123 C 
BRANCH  18  19
ATOM     19  CD  GLU A  1       31.722 -16.235  11.890  0.00  0.00    +0.305 C 
ATOM     20  OE1 GLU A  1       31.559 -15.779  13.009  0.00  0.00    -0.251 OA
BRANCH  19  21
ATOM     21  OE2 GLU A  1       32.536 -15.633  11.006  0.00  0.00    -0.481 OA
ATOM     22  HE2 GLU A  1       32.571 -16.244  10.241  0.00  0.00    +0.295 HD
ENDBRANCH  19  21
ENDBRANCH  18  19
ENDBRANCH  17  18
ENDBRANCH  12  17
ENDBRANCH   9  12
ENDBRANCH   5   8
ENDBRANCH   1   2
BRANCH   1  23
ATOM     23  C   UNK A  0       23.700 -23.345   6.816  0.00  0.00    +0.097 C 
BRANCH  23  25
ATOM     24  C   UNK A  0       23.218 -20.746   7.198  0.00  0.00    +0.004 C 
ATOM     25  C   UNK A  0       23.427 -21.908   7.042  0.00  0.00    -0.105 C 
ENDBRANCH  23  25
ENDBRANCH   1  23
BRANCH   1  26
ATOM     26  C   UNK A  0       25.580 -24.742   5.815  0.00  0.00    +0.066 C 
BRANCH  26  27
ATOM     27  C   UNK A  0       25.196 -26.177   6.079  0.00  0.00    +0.061 A 
ATOM     28  N   UNK A  0       25.748 -26.794   7.146  0.00  0.00    -0.243 NA
ATOM     29  C   UNK A  0       25.399 -28.106   7.353  0.00  0.00    +0.148 A 
ATOM     30  C   UNK A  0       24.540 -28.803   6.497  0.00  0.00    +0.185 A 
ATOM     31  N   UNK A  0       24.243 -30.091   6.653  0.00  0.00    -0.193 NA
ATOM     32  C   UNK A  0       24.802 -30.735   7.670  0.00  0.00    +0.216 A 
ATOM     33  N   UNK A  0       25.583 -30.174   8.588  0.00  0.00    -0.198 NA
ATOM     34  N   UNK A  0       23.990 -28.160   5.459  0.00  0.00    -0.233 NA
ATOM     35  C   UNK A  0       25.873 -28.876   8.412  0.00  0.00    +0.149 A 
ATOM     36  C   UNK A  0       24.317 -26.860   5.262  0.00  0.00    +0.136 A 
BRANCH  32  37
ATOM     37  N   UNK A  0       24.537 -32.081   7.799  0.00  0.00    -0.327 N 
ATOM     38  H   UNK A  0       24.053 -32.269   8.664  0.00  0.00    +0.145 HD
ATOM     39  H   UNK A  0       24.134 -32.445   6.947  0.00  0.00    +0.145 HD
ENDBRANCH  32  37
BRANCH  35  40
ATOM     40  N   UNK A  0       26.647 -28.292   9.429  0.00  0.00    -0.341 N 
ATOM     41  H   UNK A  0       26.541 -28.786  10.308  0.00  0.00    +0.144 HD
ATOM     42  H   UNK A  0       26.445 -27.299   9.476  0.00  0.00    +0.144 HD
ENDBRANCH  35  40
ENDBRANCH  26  27
ENDBRANCH   1  26
TORSDOF 15
ENDMDL
MODEL 5
REMARK VINA RESULT:      -9.0      2.115      3.745
REMARK  Name = *****
REMARK                            x       y       z     vdW  Elec       q    Type
REMARK                         _______ _______ _______ _____ _____    ______ ____
ROOT
ATOM      1  C   UNK A  0       25.704 -22.894   6.263  0.00  0.00    +0.037 C 
ENDROOT
BRANCH   1   2
ATOM      2  C   UNK A  0       25.457 -24.405   6.105  0.00  0.00    -0.043 A 
ATOM      3  C   UNK A  0       24.806 -24.985   5.007  0.00  0.00    +0.005 A 
ATOM      4  C   UNK A  0       24.589 -26.374   4.951  0.00  0.00    +0.013 A 
ATOM      5  C   UNK A  0       25.058 -27.218   5.966  0.00  0.00    +0.037 A 
ATOM      6  C   UNK A  0       25.796 -26.660   7.011  0.00  0.00    +0.013 A 
ATOM      7  C   UNK A  0       25.947 -25.272   7.100  0.00  0.00    +0.005 A 
BRANCH   5   8
ATOM      8  C   UNK A  0       24.700 -28.674   5.923  0.00  0.00    +0.245 C 
ATOM      9  N   GLU A  1       25.692 -29.558   6.307  0.00  0.00    -0.298 N 
ATOM     10  H   GLU A  1       26.647 -29.224   6.335  0.00  0.00    +0.150 HD
ATOM     11  O   UNK A  0       23.563 -29.032   5.645  0.00  0.00    -0.270 OA
BRANCH   9  12
ATOM     12  CA  GLU A  1       25.507 -31.022   6.377  0.00  0.00    +0.182 C 
BRANCH  12  13
ATOM     13  C   GLU A  1       25.968 -31.527   7.761  0.00  0.00    +0.325 C 
ATOM     14  O   GLU A  1       25.586 -32.553   8.304  0.00  0.00    -0.249 OA
BRANCH  13  15
ATOM     15  OXT GLU A  1       26.793 -30.649   8.392  0.00  0.00    -0.479 OA
ATOM     16  HXT GLU A  1       26.472 -29.729   8.296  0.00  0.00    +0.295 HD
ENDBRANCH  13  15
ENDBRANCH  12  13
BRANCH  12  17
ATOM     17  CB  GLU A  1       26.162 -31.752   5.199  0.00  0.00    +0.045 C 
BRANCH  17  18
ATOM     18  CG  GLU A  1       25.499 -33.079   4.844  0.00  0.00    +0.123 C 
BRANCH  18  19
ATOM     19  CD  GLU A  1       25.153 -33.115   3.383  0.00  0.00    +0.305 C 
ATOM     20  OE1 GLU A  1       25.869 -32.751   2.465  0.00  0.00    -0.251 OA
BRANCH  19  21
ATOM     21  OE2 GLU A  1       23.901 -33.551   3.158  0.00  0.00    -0.481 OA
ATOM     22  HE2 GLU A  1       23.751 -34.242   3.836  0.00  0.00    +0.295 HD
ENDBRANCH  19  21
ENDBRANCH  18  19
ENDBRANCH  17  18
ENDBRANCH  12  17
ENDBRANCH   9  12
ENDBRANCH   5   8
ENDBRANCH   1   2
BRANCH   1  23
ATOM     23  C   UNK A  0       24.409 -22.065   6.058  0.00  0.00    +0.097 C 
BRANCH  23  25
ATOM     24  C   UNK A  0       24.365 -20.594   3.829  0.00  0.00    +0.004 C 
ATOM     25  C   UNK A  0       24.394 -21.240   4.830  0.00  0.00    -0.105 C 
ENDBRANCH  23  25
ENDBRANCH   1  23
BRANCH   1  26
ATOM     26  C   UNK A  0       26.372 -22.521   7.617  0.00  0.00    +0.066 C 
BRANCH  26  27
ATOM     27  C   UNK A  0       27.512 -21.540   7.508  0.00  0.00    +0.061 A 
ATOM     28  N   UNK A  0       28.595 -21.735   8.291  0.00  0.00    -0.243 NA
ATOM     29  C   UNK A  0       29.609 -20.817   8.188  0.00  0.00    +0.148 A 
ATOM     30  C   UNK A  0       29.539 -19.705   7.342  0.00  0.00    +0.185 A 
ATOM     31  N   UNK A  0       30.489 -18.775   7.280  0.00  0.00    -0.193 NA
ATOM     32  C   UNK A  0       31.547 -18.919   8.067  0.00  0.00    +0.216 A 
ATOM     33  N   UNK A  0       31.764 -19.959   8.867  0.00  0.00    -0.198 NA
ATOM     34  N   UNK A  0       28.463 -19.546   6.560  0.00  0.00    -0.233 NA
ATOM     35  C   UNK A  0       30.793 -20.884   8.919  0.00  0.00    +0.149 A 
ATOM     36  C   UNK A  0       27.468 -20.461   6.645  0.00  0.00    +0.136 A 
BRANCH  32  37
ATOM     37  N   UNK A  0       32.505 -17.929   8.041  0.00  0.00    -0.327 N 
ATOM     38  H   UNK A  0       32.269 -17.221   7.362  0.00  0.00    +0.145 HD
ATOM     39  H   UNK A  0       32.725 -17.625   8.979  0.00  0.00    +0.145 HD
ENDBRANCH  32  37
BRANCH  35  40
ATOM     40  N   UNK A  0       31.074 -22.003   9.722  0.00  0.00    -0.341 N 
ATOM     41  H   UNK A  0       30.353 -22.151  10.420  0.00  0.00    +0.144 HD
ATOM     42  H   UNK A  0       32.013 -21.919  10.096  0.00  0.00    +0.144 HD
ENDBRANCH  35  40
ENDBRANCH  26  27
ENDBRANCH   1  26
TORSDOF 15
ENDMDL
MODEL 6
REMARK VINA RESULT:      -8.4      5.096      9.466
REMARK  Name = *****
REMARK                            x       y       z     vdW  Elec       q    Type
REMARK                         _______ _______ _______ _____ _____    ______ ____
ROOT
ATOM      1  C   UNK A  0       24.309 -22.120   6.289  0.00  0.00    +0.037 C 
ENDROOT
BRANCH   1   2
ATOM      2  C   UNK A  0       25.593 -21.342   6.626  0.00  0.00    -0.043 A 
ATOM      3  C   UNK A  0       26.066 -21.132   7.928  0.00  0.00    +0.005 A 
ATOM      4  C   UNK A  0       27.234 -20.381   8.157  0.00  0.00    +0.013 A 
ATOM      5  C   UNK A  0       27.979 -19.864   7.089  0.00  0.00    +0.037 A 
ATOM      6  C   UNK A  0       27.571 -20.155   5.787  0.00  0.00    +0.013 A 
ATOM      7  C   UNK A  0       26.371 -20.840   5.564  0.00  0.00    +0.005 A 
BRANCH   5   8
ATOM      8  C   UNK A  0       29.147 -18.970   7.383  0.00  0.00    +0.245 C 
ATOM      9  N   GLU A  1       29.380 -18.690   8.718  0.00  0.00    -0.298 N 
ATOM     10  H   GLU A  1       28.635 -18.864   9.381  0.00  0.00    +0.150 HD
ATOM     11  O   UNK A  0       29.889 -18.592   6.486  0.00  0.00    -0.270 OA
BRANCH   9  12
ATOM     12  CA  GLU A  1       30.510 -17.871   9.202  0.00  0.00    +0.182 C 
BRANCH  12  13
ATOM     13  C   GLU A  1       31.838 -18.546   8.794  0.00  0.00    +0.325 C 
ATOM     14  O   GLU A  1       32.623 -18.118   7.961  0.00  0.00    -0.249 OA
BRANCH  13  15
ATOM     15  OXT GLU A  1       32.018 -19.753   9.394  0.00  0.00    -0.479 OA
ATOM     16  HXT GLU A  1       32.800 -19.743   9.983  0.00  0.00    +0.295 HD
ENDBRANCH  13  15
ENDBRANCH  12  13
BRANCH  12  17
ATOM     17  CB  GLU A  1       30.407 -17.556  10.698  0.00  0.00    +0.045 C 
BRANCH  17  18
ATOM     18  CG  GLU A  1       31.110 -16.268  11.113  0.00  0.00    +0.123 C 
BRANCH  18  19
ATOM     19  CD  GLU A  1       31.716 -16.421  12.479  0.00  0.00    +0.305 C 
ATOM     20  OE1 GLU A  1       32.254 -17.423  12.918  0.00  0.00    -0.251 OA
BRANCH  19  21
ATOM     21  OE2 GLU A  1       31.561 -15.324  13.240  0.00  0.00    -0.481 OA
ATOM     22  HE2 GLU A  1       31.992 -14.605  12.732  0.00  0.00    +0.295 HD
ENDBRANCH  19  21
ENDBRANCH  18  19
ENDBRANCH  17  18
ENDBRANCH  12  17
ENDBRANCH   9  12
ENDBRANCH   5   8
ENDBRANCH   1   2
BRANCH   1  23
ATOM     23  C   UNK A  0       23.165 -21.185   5.815  0.00  0.00    +0.097 C 
BRANCH  23  25
ATOM     24  C   UNK A  0       23.707 -19.763   3.619  0.00  0.00    +0.004 C 
ATOM     25  C   UNK A  0       23.471 -20.410   4.592  0.00  0.00    -0.105 C 
ENDBRANCH  23  25
ENDBRANCH   1  23
BRANCH   1  26
ATOM     26  C   UNK A  0       24.536 -23.259   5.253  0.00  0.00    +0.066 C 
BRANCH  26  27
ATOM     27  C   UNK A  0       24.936 -24.584   5.851  0.00  0.00    +0.061 A 
ATOM     28  N   UNK A  0       24.441 -25.708   5.291  0.00  0.00    -0.243 NA
ATOM     29  C   UNK A  0       24.804 -26.900   5.867  0.00  0.00    +0.148 A 
ATOM     30  C   UNK A  0       25.622 -26.974   6.999  0.00  0.00    +0.185 A 
ATOM     31  N   UNK A  0       25.930 -28.120   7.602  0.00  0.00    -0.193 NA
ATOM     32  C   UNK A  0       25.425 -29.239   7.098  0.00  0.00    +0.216 A 
ATOM     33  N   UNK A  0       24.688 -29.310   5.994  0.00  0.00    -0.198 NA
ATOM     34  N   UNK A  0       26.118 -25.845   7.522  0.00  0.00    -0.233 NA
ATOM     35  C   UNK A  0       24.386 -28.145   5.402  0.00  0.00    +0.149 A 
ATOM     36  C   UNK A  0       25.777 -24.667   6.945  0.00  0.00    +0.136 A 
BRANCH  32  37
ATOM     37  N   UNK A  0       25.701 -30.418   7.754  0.00  0.00    -0.327 N 
ATOM     38  H   UNK A  0       25.898 -31.157   7.095  0.00  0.00    +0.145 HD
ATOM     39  H   UNK A  0       26.367 -30.263   8.497  0.00  0.00    +0.145 HD
ENDBRANCH  32  37
BRANCH  35  40
ATOM     40  N   UNK A  0       23.661 -28.252   4.203  0.00  0.00    -0.341 N 
ATOM     41  H   UNK A  0       23.719 -27.400   3.655  0.00  0.00    +0.144 HD
ATOM     42  H   UNK A  0       22.716 -28.558   4.408  0.00  0.00    +0.144 HD
ENDBRANCH  35  40
ENDBRANCH  26  27
ENDBRANCH   1  26
TORSDOF 15
ENDMDL
MODEL 7
REMARK VINA RESULT:      -8.1      4.103      9.326
REMARK  Name = *****
REMARK                            x       y       z     vdW  Elec       q    Type
REMARK                         _______ _______ _______ _____ _____    ______ ____
ROOT
ATOM      1  C   UNK A  0       24.996 -29.841   6.880  0.00  0.00    +0.037 C 
ENDROOT
BRANCH   1   2
ATOM      2  C   UNK A  0       25.061 -28.319   6.665  0.00  0.00    -0.043 A 
ATOM      3  C   UNK A  0       25.977 -27.473   7.305  0.00  0.00    +0.005 A 
ATOM      4  C   UNK A  0       25.952 -26.084   7.080  0.00  0.00    +0.013 A 
ATOM      5  C   UNK A  0       25.044 -25.516   6.177  0.00  0.00    +0.037 A 
ATOM      6  C   UNK A  0       24.198 -26.363   5.460  0.00  0.00    +0.013 A 
ATOM      7  C   UNK A  0       24.176 -27.734   5.739  0.00  0.00    +0.005 A 
BRANCH   5   8
ATOM      8  C   UNK A  0       24.973 -24.022   6.060  0.00  0.00    +0.245 C 
ATOM      9  N   GLU A  1       25.059 -23.313   7.244  0.00  0.00    -0.298 N 
ATOM     10  H   GLU A  1       24.898 -23.808   8.112  0.00  0.00    +0.150 HD
ATOM     11  O   UNK A  0       24.929 -23.481   4.963  0.00  0.00    -0.270 OA
BRANCH   9  12
ATOM     12  CA  GLU A  1       25.058 -21.838   7.321  0.00  0.00    +0.182 C 
BRANCH  12  13
ATOM     13  C   GLU A  1       26.076 -21.384   8.390  0.00  0.00    +0.325 C 
ATOM     14  O   GLU A  1       25.820 -20.688   9.362  0.00  0.00    -0.249 OA
BRANCH  13  15
ATOM     15  OXT GLU A  1       27.349 -21.757   8.092  0.00  0.00    -0.479 OA
ATOM     16  HXT GLU A  1       27.993 -21.075   8.373  0.00  0.00    +0.295 HD
ENDBRANCH  13  15
ENDBRANCH  12  13
BRANCH  12  17
ATOM     17  CB  GLU A  1       23.651 -21.262   7.518  0.00  0.00    +0.045 C 
BRANCH  17  18
ATOM     18  CG  GLU A  1       23.251 -20.226   6.474  0.00  0.00    +0.123 C 
BRANCH  18  19
ATOM     19  CD  GLU A  1       23.016 -20.887   5.146  0.00  0.00    +0.305 C 
ATOM     20  OE1 GLU A  1       23.494 -20.544   4.077  0.00  0.00    -0.251 OA
BRANCH  19  21
ATOM     21  OE2 GLU A  1       22.146 -21.909   5.223  0.00  0.00    -0.481 OA
ATOM     22  HE2 GLU A  1       21.957 -22.005   6.179  0.00  0.00    +0.295 HD
ENDBRANCH  19  21
ENDBRANCH  18  19
ENDBRANCH  17  18
ENDBRANCH  12  17
ENDBRANCH   9  12
ENDBRANCH   5   8
ENDBRANCH   1   2
BRANCH   1  23
ATOM     23  C   UNK A  0       25.415 -30.630   5.612  0.00  0.00    +0.097 C 
BRANCH  23  25
ATOM     24  C   UNK A  0       26.982 -32.746   6.065  0.00  0.00    +0.004 C 
ATOM     25  C   UNK A  0       26.291 -31.794   5.874  0.00  0.00    -0.105 C 
ENDBRANCH  23  25
ENDBRANCH   1  23
BRANCH   1  26
ATOM     26  C   UNK A  0       25.820 -30.322   8.109  0.00  0.00    +0.066 C 
BRANCH  26  27
ATOM     27  C   UNK A  0       25.237 -29.942   9.447  0.00  0.00    +0.061 A 
ATOM     28  N   UNK A  0       26.016 -29.249  10.304  0.00  0.00    -0.243 NA
ATOM     29  C   UNK A  0       25.470 -28.933  11.523  0.00  0.00    +0.148 A 
ATOM     30  C   UNK A  0       24.180 -29.326  11.897  0.00  0.00    +0.185 A 
ATOM     31  N   UNK A  0       23.663 -29.080  13.099  0.00  0.00    -0.193 NA
ATOM     32  C   UNK A  0       24.420 -28.434  13.977  0.00  0.00    +0.216 A 
ATOM     33  N   UNK A  0       25.634 -27.953  13.726  0.00  0.00    -0.198 NA
ATOM     34  N   UNK A  0       23.421 -29.995  11.020  0.00  0.00    -0.233 NA
ATOM     35  C   UNK A  0       26.139 -28.215  12.510  0.00  0.00    +0.149 A 
ATOM     36  C   UNK A  0       23.950 -30.291   9.809  0.00  0.00    +0.136 A 
BRANCH  32  37
ATOM     37  N   UNK A  0       23.904 -28.227  15.237  0.00  0.00    -0.327 N 
ATOM     38  H   UNK A  0       24.640 -28.219  15.928  0.00  0.00    +0.145 HD
ATOM     39  H   UNK A  0       23.258 -27.450  15.231  0.00  0.00    +0.145 HD
ENDBRANCH  32  37
BRANCH  35  40
ATOM     40  N   UNK A  0       27.395 -27.641  12.248  0.00  0.00    -0.341 N 
ATOM     41  H   UNK A  0       28.083 -28.346  12.006  0.00  0.00    +0.144 HD
ATOM     42  H   UNK A  0       27.660 -27.043  13.024  0.00  0.00    +0.144 HD
ENDBRANCH  35  40
ENDBRANCH  26  27
ENDBRANCH   1  26
TORSDOF 15
ENDMDL
MODEL 8
REMARK VINA RESULT:      -8.0      2.046      3.223
REMARK  Name = *****
REMARK                            x       y       z     vdW  Elec       q    Type
REMARK                         _______ _______ _______ _____ _____    ______ ____
ROOT
ATOM      1  C   UNK A  0       25.741 -23.111   6.109  0.00  0.00    +0.037 C 
ENDROOT
BRANCH   1   2
ATOM      2  C   UNK A  0       25.463 -24.624   6.138  0.00  0.00    -0.043 A 
ATOM      3  C   UNK A  0       24.495 -25.261   5.349  0.00  0.00    +0.005 A 
ATOM      4  C   UNK A  0       24.277 -26.646   5.457  0.00  0.00    +0.013 A 
ATOM      5  C   UNK A  0       25.053 -27.433   6.319  0.00  0.00    +0.037 A 
ATOM      6  C   UNK A  0       26.086 -26.823   7.031  0.00  0.00    +0.013 A 
ATOM      7  C   UNK A  0       26.252 -25.435   6.976  0.00  0.00    +0.005 A 
BRANCH   5   8
ATOM      8  C   UNK A  0       24.705 -28.883   6.490  0.00  0.00    +0.245 C 
ATOM      9  N   GLU A  1       25.578 -29.632   7.256  0.00  0.00    -0.298 N 
ATOM     10  H   GLU A  1       26.504 -29.261   7.431  0.00  0.00    +0.150 HD
ATOM     11  O   UNK A  0       23.661 -29.334   6.039  0.00  0.00    -0.270 OA
BRANCH   9  12
ATOM     12  CA  GLU A  1       25.375 -31.060   7.575  0.00  0.00    +0.182 C 
BRANCH  12  13
ATOM     13  C   GLU A  1       25.924 -31.923   6.419  0.00  0.00    +0.325 C 
ATOM     14  O   GLU A  1       26.119 -31.536   5.276  0.00  0.00    -0.249 OA
BRANCH  13  15
ATOM     15  OXT GLU A  1       26.087 -33.227   6.770  0.00  0.00    -0.479 OA
ATOM     16  HXT GLU A  1       25.822 -33.826   6.042  0.00  0.00    +0.295 HD
ENDBRANCH  13  15
ENDBRANCH  12  13
BRANCH  12  17
ATOM     17  CB  GLU A  1       23.923 -31.376   7.950  0.00  0.00    +0.045 C 
BRANCH  17  18
ATOM     18  CG  GLU A  1       23.753 -31.944   9.355  0.00  0.00    +0.123 C 
BRANCH  18  19
ATOM     19  CD  GLU A  1       22.404 -31.579   9.906  0.00  0.00    +0.305 C 
ATOM     20  OE1 GLU A  1       21.414 -32.290   9.912  0.00  0.00    -0.251 OA
BRANCH  19  21
ATOM     21  OE2 GLU A  1       22.357 -30.317  10.368  0.00  0.00    -0.481 OA
ATOM     22  HE2 GLU A  1       21.583 -30.299  10.968  0.00  0.00    +0.295 HD
ENDBRANCH  19  21
ENDBRANCH  18  19
ENDBRANCH  17  18
ENDBRANCH  12  17
ENDBRANCH   9  12
ENDBRANCH   5   8
ENDBRANCH   1   2
BRANCH   1  23
ATOM     23  C   UNK A  0       24.525 -22.301   5.587  0.00  0.00    +0.097 C 
BRANCH  23  25
ATOM     24  C   UNK A  0       23.316 -20.787   7.426  0.00  0.00    +0.004 C 
ATOM     25  C   UNK A  0       23.868 -21.453   6.607  0.00  0.00    -0.105 C 
ENDBRANCH  23  25
ENDBRANCH   1  23
BRANCH   1  26
ATOM     26  C   UNK A  0       26.212 -22.547   7.480  0.00  0.00    +0.066 C 
BRANCH  26  27
ATOM     27  C   UNK A  0       27.376 -21.591   7.402  0.00  0.00    +0.061 A 
ATOM     28  N   UNK A  0       28.437 -21.816   8.207  0.00  0.00    -0.243 NA
ATOM     29  C   UNK A  0       29.473 -20.920   8.133  0.00  0.00    +0.148 A 
ATOM     30  C   UNK A  0       29.446 -19.800   7.294  0.00  0.00    +0.185 A 
ATOM     31  N   UNK A  0       30.417 -18.892   7.259  0.00  0.00    -0.193 NA
ATOM     32  C   UNK A  0       31.455 -19.065   8.068  0.00  0.00    +0.216 A 
ATOM     33  N   UNK A  0       31.631 -20.114   8.865  0.00  0.00    -0.198 NA
ATOM     34  N   UNK A  0       28.391 -19.613   6.490  0.00  0.00    -0.233 NA
ATOM     35  C   UNK A  0       30.639 -21.018   8.889  0.00  0.00    +0.149 A 
ATOM     36  C   UNK A  0       27.374 -20.506   6.547  0.00  0.00    +0.136 A 
BRANCH  32  37
ATOM     37  N   UNK A  0       32.434 -18.096   8.070  0.00  0.00    -0.327 N 
ATOM     38  H   UNK A  0       33.077 -18.238   8.835  0.00  0.00    +0.145 HD
ATOM     39  H   UNK A  0       32.824 -17.985   7.144  0.00  0.00    +0.145 HD
ENDBRANCH  32  37
BRANCH  35  40
ATOM     40  N   UNK A  0       30.878 -22.148   9.689  0.00  0.00    -0.341 N 
ATOM     41  H   UNK A  0       31.437 -21.917  10.502  0.00  0.00    +0.144 HD
ATOM     42  H   UNK A  0       31.258 -22.892   9.113  0.00  0.00    +0.144 HD
ENDBRANCH  35  40
ENDBRANCH  26  27
ENDBRANCH   1  26
TORSDOF 15
ENDMDL
MODEL 9
REMARK VINA RESULT:      -8.0      4.105      9.906
REMARK  Name = *****
REMARK                            x       y       z     vdW  Elec       q    Type
REMARK                         _______ _______ _______ _____ _____    ______ ____
ROOT
ATOM      1  C   UNK A  0       24.894 -29.927   7.064  0.00  0.00    +0.037 C 
ENDROOT
BRANCH   1   2
ATOM      2  C   UNK A  0       25.012 -28.415   6.804  0.00  0.00    -0.043 A 
ATOM      3  C   UNK A  0       25.940 -27.578   7.440  0.00  0.00    +0.005 A 
ATOM      4  C   UNK A  0       25.965 -26.198   7.172  0.00  0.00    +0.013 A 
ATOM      5  C   UNK A  0       25.097 -25.631   6.229  0.00  0.00    +0.037 A 
ATOM      6  C   UNK A  0       24.241 -26.473   5.518  0.00  0.00    +0.013 A 
ATOM      7  C   UNK A  0       24.169 -27.833   5.838  0.00  0.00    +0.005 A 
BRANCH   5   8
ATOM      8  C   UNK A  0       25.077 -24.139   6.064  0.00  0.00    +0.245 C 
ATOM      9  N   GLU A  1       25.230 -23.396   7.220  0.00  0.00    -0.298 N 
ATOM     10  H   GLU A  1       25.081 -23.856   8.109  0.00  0.00    +0.150 HD
ATOM     11  O   UNK A  0       25.014 -23.633   4.952  0.00  0.00    -0.270 OA
BRANCH   9  12
ATOM     12  CA  GLU A  1       25.286 -21.920   7.248  0.00  0.00    +0.182 C 
BRANCH  12  13
ATOM     13  C   GLU A  1       26.156 -21.466   8.439  0.00  0.00    +0.325 C 
ATOM     14  O   GLU A  1       25.747 -20.890   9.437  0.00  0.00    -0.249 OA
BRANCH  13  15
ATOM     15  OXT GLU A  1       27.482 -21.684   8.232  0.00  0.00    -0.479 OA
ATOM     16  HXT GLU A  1       27.964 -21.772   9.080  0.00  0.00    +0.295 HD
ENDBRANCH  13  15
ENDBRANCH  12  13
BRANCH  12  17
ATOM     17  CB  GLU A  1       23.893 -21.280   7.216  0.00  0.00    +0.045 C 
BRANCH  17  18
ATOM     18  CG  GLU A  1       23.684 -20.302   6.065  0.00  0.00    +0.123 C 
BRANCH  18  19
ATOM     19  CD  GLU A  1       22.899 -20.953   4.962  0.00  0.00    +0.305 C 
ATOM     20  OE1 GLU A  1       21.690 -21.107   4.936  0.00  0.00    -0.251 OA
BRANCH  19  21
ATOM     21  OE2 GLU A  1       23.683 -21.429   3.979  0.00  0.00    -0.481 OA
ATOM     22  HE2 GLU A  1       23.078 -21.562   3.220  0.00  0.00    +0.295 HD
ENDBRANCH  19  21
ENDBRANCH  18  19
ENDBRANCH  17  18
ENDBRANCH  12  17
ENDBRANCH   9  12
ENDBRANCH   5   8
ENDBRANCH   1   2
BRANCH   1  23
ATOM     23  C   UNK A  0       25.362 -30.770   5.848  0.00  0.00    +0.097 C 
BRANCH  23  25
ATOM     24  C   UNK A  0       27.219 -32.611   6.394  0.00  0.00    +0.004 C 
ATOM     25  C   UNK A  0       26.385 -31.791   6.165  0.00  0.00    -0.105 C 
ENDBRANCH  23  25
ENDBRANCH   1  23
BRANCH   1  26
ATOM     26  C   UNK A  0       25.634 -30.388   8.352  0.00  0.00    +0.066 C 
BRANCH  26  27
ATOM     27  C   UNK A  0       24.928 -30.049   9.641  0.00  0.00    +0.061 A 
ATOM     28  N   UNK A  0       23.619 -30.361   9.748  0.00  0.00    -0.243 NA
ATOM     29  C   UNK A  0       22.994 -30.023  10.922  0.00  0.00    +0.148 A 
ATOM     30  C   UNK A  0       23.650 -29.358  11.963  0.00  0.00    +0.185 A 
ATOM     31  N   UNK A  0       23.040 -28.970  13.080  0.00  0.00    -0.193 NA
ATOM     32  C   UNK A  0       21.743 -29.229  13.197  0.00  0.00    +0.216 A 
ATOM     33  N   UNK A  0       21.020 -29.907  12.311  0.00  0.00    -0.198 NA
ATOM     34  N   UNK A  0       24.954 -29.079  11.840  0.00  0.00    -0.233 NA
ATOM     35  C   UNK A  0       21.653 -30.286  11.190  0.00  0.00    +0.149 A 
ATOM     36  C   UNK A  0       25.579 -29.428  10.689  0.00  0.00    +0.136 A 
BRANCH  32  37
ATOM     37  N   UNK A  0       21.100 -28.780  14.330  0.00  0.00    -0.327 N 
ATOM     38  H   UNK A  0       21.768 -28.512  15.038  0.00  0.00    +0.145 HD
ATOM     39  H   UNK A  0       20.381 -28.113  14.087  0.00  0.00    +0.145 HD
ENDBRANCH  32  37
BRANCH  35  40
ATOM     40  N   UNK A  0       20.884 -31.056  10.300  0.00  0.00    -0.341 N 
ATOM     41  H   UNK A  0       21.105 -30.839   9.334  0.00  0.00    +0.144 HD
ATOM     42  H   UNK A  0       19.902 -30.965  10.539  0.00  0.00    +0.144 HD
ENDBRANCH  35  40
ENDBRANCH  26  27
ENDBRANCH   1  26
TORSDOF 15
ENDMDL
