MODEL 1
REMARK VINA RESULT:      -4.6      0.000      0.000
REMARK  Name = *****
REMARK                            x       y       z     vdW  Elec       q    Type
REMARK                         _______ _______ _______ _____ _____    ______ ____
ROOT
ATOM      1  C   LIG    1       24.132 -16.466   3.797  0.00  0.00    -0.032 C 
ATOM      2  C   LIG    1       23.806 -17.887   4.003  0.00  0.00    -0.018 A 
ATOM      3  C   LIG    1       24.946 -18.656   3.738  0.00  0.00    -0.036 A 
ATOM      4  C   LIG    1       24.950 -20.034   3.884  0.00  0.00    +0.004 A 
ATOM      5  C   LIG    1       23.775 -20.653   4.311  0.00  0.00    +0.000 A 
ATOM      6  C   LIG    1       22.625 -19.892   4.571  0.00  0.00    +0.001 A 
ATOM      7  C   LIG    1       26.072 -17.776   3.319  0.00  0.00    +0.067 C 
ATOM      8  C   LIG    1       22.636 -18.503   4.413  0.00  0.00    +0.008 A 
ATOM      9  C   LIG    1       25.420 -16.414   3.403  0.00  0.00    -0.060 C 
ENDROOT
BRANCH   1  11
ATOM     10  C   LIG    1       22.716 -15.311   5.525  0.00  0.00    +0.019 C 
ATOM     11  C   LIG    1       23.172 -15.316   4.055  0.00  0.00    +0.065 C 
BRANCH  11  12
ATOM     12  C   LIG    1       23.678 -13.942   3.603  0.00  0.00    +0.048 A 
ATOM     13  N   LIG    1       23.901 -13.011   4.568  0.00  0.00    -0.259 NA
ATOM     14  C   LIG    1       24.361 -11.798   4.190  0.00  0.00    +0.111 A 
ATOM     15  C   LIG    1       24.616 -11.447   2.878  0.00  0.00    +0.020 A 
ATOM     16  C   LIG    1       24.355 -12.387   1.892  0.00  0.00    +0.003 A 
ATOM     17  C   LIG    1       23.860 -13.638   2.251  0.00  0.00    +0.024 A 
ENDBRANCH  11  12
ENDBRANCH   1  11
BRANCH   9  18
ATOM     18  C   LIG    1       26.230 -15.208   3.014  0.00  0.00    +0.047 C 
BRANCH  18  19
ATOM     19  C   LIG    1       27.397 -14.916   3.977  0.00  0.00    +0.088 C 
BRANCH  19  20
ATOM     20  N   LIG    1       27.484 -13.489   4.355  0.00  0.00    -0.308 NA
ATOM     21  C   LIG    1       28.775 -12.922   3.950  0.00  0.00    +0.104 C 
ATOM     22  C   LIG    1       27.312 -13.306   5.799  0.00  0.00    +0.104 C 
ENDBRANCH  19  20
ENDBRANCH  18  19
ENDBRANCH   9  18
TORSDOF 5
ENDMDL
MODEL 2
REMARK VINA RESULT:      -4.1      2.972      6.881
REMARK  Name = *****
REMARK                            x       y       z     vdW  Elec       q    Type
REMARK                         _______ _______ _______ _____ _____    ______ ____
ROOT
ATOM      1  C   LIG    1       24.596 -17.906   3.815  0.00  0.00    -0.032 C 
ATOM      2  C   LIG    1       25.251 -16.597   3.650  0.00  0.00    -0.018 A 
ATOM      3  C   LIG    1       24.327 -15.588   3.954  0.00  0.00    -0.036 A 
ATOM      4  C   LIG    1       24.672 -14.246   3.922  0.00  0.00    +0.004 A 
ATOM      5  C   LIG    1       25.980 -13.912   3.578  0.00  0.00    +0.000 A 
ATOM      6  C   LIG    1       26.911 -14.914   3.263  0.00  0.00    +0.001 A 
ATOM      7  C   LIG    1       23.011 -16.188   4.309  0.00  0.00    +0.067 C 
ATOM      8  C   LIG    1       26.546 -16.264   3.295  0.00  0.00    +0.008 A 
ATOM      9  C   LIG    1       23.323 -17.663   4.184  0.00  0.00    -0.060 C 
ENDROOT
BRANCH   1  11
ATOM     10  C   LIG    1       25.878 -19.375   2.227  0.00  0.00    +0.019 C 
ATOM     11  C   LIG    1       25.295 -19.245   3.645  0.00  0.00    +0.065 C 
BRANCH  11  12
ATOM     12  C   LIG    1       26.330 -19.572   4.726  0.00  0.00    +0.048 A 
ATOM     13  N   LIG    1       25.954 -20.429   5.710  0.00  0.00    -0.259 NA
ATOM     14  C   LIG    1       26.857 -20.741   6.666  0.00  0.00    +0.111 A 
ATOM     15  C   LIG    1       28.143 -20.236   6.702  0.00  0.00    +0.020 A 
ATOM     16  C   LIG    1       28.514 -19.334   5.715  0.00  0.00    +0.003 A 
ATOM     17  C   LIG    1       27.596 -18.978   4.730  0.00  0.00    +0.024 A 
ENDBRANCH  11  12
ENDBRANCH   1  11
BRANCH   9  18
ATOM     18  C   LIG    1       22.217 -18.652   4.430  0.00  0.00    +0.047 C 
BRANCH  18  19
ATOM     19  C   LIG    1       22.393 -19.457   5.732  0.00  0.00    +0.088 C 
BRANCH  19  20
ATOM     20  N   LIG    1       22.711 -20.880   5.486  0.00  0.00    -0.308 NA
ATOM     21  C   LIG    1       21.575 -21.566   4.864  0.00  0.00    +0.104 C 
ATOM     22  C   LIG    1       23.068 -21.572   6.728  0.00  0.00    +0.104 C 
ENDBRANCH  19  20
ENDBRANCH  18  19
ENDBRANCH   9  18
TORSDOF 5
ENDMDL
MODEL 3
REMARK VINA RESULT:      -3.9      2.539      6.119
REMARK  Name = *****
REMARK                            x       y       z     vdW  Elec       q    Type
REMARK                         _______ _______ _______ _____ _____    ______ ____
ROOT
ATOM      1  C   LIG    1       23.902 -17.257   4.054  0.00  0.00    -0.032 C 
ATOM      2  C   LIG    1       24.243 -15.831   3.926  0.00  0.00    -0.018 A 
ATOM      3  C   LIG    1       25.550 -15.721   3.431  0.00  0.00    -0.036 A 
ATOM      4  C   LIG    1       26.133 -14.491   3.171  0.00  0.00    +0.004 A 
ATOM      5  C   LIG    1       25.382 -13.342   3.414  0.00  0.00    +0.000 A 
ATOM      6  C   LIG    1       24.075 -13.441   3.917  0.00  0.00    +0.001 A 
ATOM      7  C   LIG    1       26.139 -17.075   3.235  0.00  0.00    +0.067 C 
ATOM      8  C   LIG    1       23.502 -14.689   4.180  0.00  0.00    +0.008 A 
ATOM      9  C   LIG    1       24.987 -17.955   3.665  0.00  0.00    -0.060 C 
ENDROOT
BRANCH   1  11
ATOM     10  C   LIG    1       21.546 -17.744   3.322  0.00  0.00    +0.019 C 
ATOM     11  C   LIG    1       22.544 -17.781   4.493  0.00  0.00    +0.065 C 
BRANCH  11  12
ATOM     12  C   LIG    1       22.574 -19.148   5.182  0.00  0.00    +0.048 A 
ATOM     13  N   LIG    1       23.168 -19.219   6.402  0.00  0.00    -0.259 NA
ATOM     14  C   LIG    1       23.193 -20.414   7.033  0.00  0.00    +0.111 A 
ATOM     15  C   LIG    1       22.650 -21.571   6.508  0.00  0.00    +0.020 A 
ATOM     16  C   LIG    1       22.075 -21.505   5.247  0.00  0.00    +0.003 A 
ATOM     17  C   LIG    1       22.055 -20.291   4.565  0.00  0.00    +0.024 A 
ENDBRANCH  11  12
ENDBRANCH   1  11
BRANCH   9  18
ATOM     18  C   LIG    1       25.183 -19.447   3.654  0.00  0.00    +0.047 C 
BRANCH  18  19
ATOM     19  C   LIG    1       26.583 -19.884   4.128  0.00  0.00    +0.088 C 
BRANCH  19  20
ATOM     20  N   LIG    1       26.664 -20.051   5.595  0.00  0.00    -0.308 NA
ATOM     21  C   LIG    1       28.043 -19.870   6.062  0.00  0.00    +0.104 C 
ATOM     22  C   LIG    1       26.186 -21.373   6.011  0.00  0.00    +0.104 C 
ENDBRANCH  19  20
ENDBRANCH  18  19
ENDBRANCH   9  18
TORSDOF 5
ENDMDL
MODEL 4
REMARK VINA RESULT:      -3.7      2.913      5.763
REMARK  Name = *****
REMARK                            x       y       z     vdW  Elec       q    Type
REMARK                         _______ _______ _______ _____ _____    ______ ____
ROOT
ATOM      1  C   LIG    1       26.257 -18.620   4.116  0.00  0.00    -0.032 C 
ATOM      2  C   LIG    1       27.290 -19.242   4.961  0.00  0.00    -0.018 A 
ATOM      3  C   LIG    1       28.315 -18.313   5.181  0.00  0.00    -0.036 A 
ATOM      4  C   LIG    1       29.411 -18.606   5.977  0.00  0.00    +0.004 A 
ATOM      5  C   LIG    1       29.475 -19.867   6.568  0.00  0.00    +0.000 A 
ATOM      6  C   LIG    1       28.457 -20.809   6.347  0.00  0.00    +0.001 A 
ATOM      7  C   LIG    1       28.015 -17.041   4.466  0.00  0.00    +0.067 C 
ATOM      8  C   LIG    1       27.360 -20.499   5.537  0.00  0.00    +0.008 A 
ATOM      9  C   LIG    1       26.681 -17.372   3.836  0.00  0.00    -0.060 C 
ENDROOT
BRANCH   1  11
ATOM     10  C   LIG    1       25.143 -20.136   2.446  0.00  0.00    +0.019 C 
ATOM     11  C   LIG    1       24.952 -19.290   3.717  0.00  0.00    +0.065 C 
BRANCH  11  12
ATOM     12  C   LIG    1       24.266 -20.079   4.837  0.00  0.00    +0.048 A 
ATOM     13  N   LIG    1       23.025 -20.570   4.584  0.00  0.00    -0.259 NA
ATOM     14  C   LIG    1       22.409 -21.281   5.555  0.00  0.00    +0.111 A 
ATOM     15  C   LIG    1       22.968 -21.536   6.793  0.00  0.00    +0.020 A 
ATOM     16  C   LIG    1       24.221 -21.004   7.062  0.00  0.00    +0.003 A 
ATOM     17  C   LIG    1       24.869 -20.249   6.087  0.00  0.00    +0.024 A 
ENDBRANCH  11  12
ENDBRANCH   1  11
BRANCH   9  18
ATOM     18  C   LIG    1       26.024 -16.335   2.967  0.00  0.00    +0.047 C 
BRANCH  18  19
ATOM     19  C   LIG    1       26.517 -14.901   3.243  0.00  0.00    +0.088 C 
BRANCH  19  20
ATOM     20  N   LIG    1       25.736 -14.220   4.297  0.00  0.00    -0.308 NA
ATOM     21  C   LIG    1       24.751 -13.308   3.706  0.00  0.00    +0.104 C 
ATOM     22  C   LIG    1       26.604 -13.465   5.205  0.00  0.00    +0.104 C 
ENDBRANCH  19  20
ENDBRANCH  18  19
ENDBRANCH   9  18
TORSDOF 5
ENDMDL
MODEL 5
REMARK VINA RESULT:      -3.6      3.027      6.307
REMARK  Name = *****
REMARK                            x       y       z     vdW  Elec       q    Type
REMARK                         _______ _______ _______ _____ _____    ______ ____
ROOT
ATOM      1  C   LIG    1       26.214 -17.628   3.568  0.00  0.00    -0.032 C 
ATOM      2  C   LIG    1       26.264 -16.165   3.418  0.00  0.00    -0.018 A 
ATOM      3  C   LIG    1       27.413 -15.684   4.061  0.00  0.00    -0.036 A 
ATOM      4  C   LIG    1       27.745 -14.339   4.055  0.00  0.00    +0.004 A 
ATOM      5  C   LIG    1       26.902 -13.455   3.382  0.00  0.00    +0.000 A 
ATOM      6  C   LIG    1       25.745 -13.926   2.742  0.00  0.00    +0.001 A 
ATOM      7  C   LIG    1       28.159 -16.810   4.688  0.00  0.00    +0.067 C 
ATOM      8  C   LIG    1       25.420 -15.286   2.761  0.00  0.00    +0.008 A 
ATOM      9  C   LIG    1       27.291 -17.985   4.295  0.00  0.00    -0.060 C 
ENDROOT
BRANCH   1  11
ATOM     10  C   LIG    1       25.784 -19.473   1.913  0.00  0.00    +0.019 C 
ATOM     11  C   LIG    1       25.153 -18.522   2.944  0.00  0.00    +0.065 C 
BRANCH  11  12
ATOM     12  C   LIG    1       24.267 -19.265   3.949  0.00  0.00    +0.048 A 
ATOM     13  N   LIG    1       24.633 -20.528   4.289  0.00  0.00    -0.259 NA
ATOM     14  C   LIG    1       23.872 -21.196   5.184  0.00  0.00    +0.111 A 
ATOM     15  C   LIG    1       22.739 -20.668   5.774  0.00  0.00    +0.020 A 
ATOM     16  C   LIG    1       22.347 -19.390   5.399  0.00  0.00    +0.003 A 
ATOM     17  C   LIG    1       23.100 -18.688   4.462  0.00  0.00    +0.024 A 
ENDBRANCH  11  12
ENDBRANCH   1  11
BRANCH   9  18
ATOM     18  C   LIG    1       27.682 -19.356   4.775  0.00  0.00    +0.047 C 
BRANCH  18  19
ATOM     19  C   LIG    1       28.735 -19.334   5.900  0.00  0.00    +0.088 C 
BRANCH  19  20
ATOM     20  N   LIG    1       28.350 -20.165   7.061  0.00  0.00    -0.308 NA
ATOM     21  C   LIG    1       29.092 -21.430   7.062  0.00  0.00    +0.104 C 
ATOM     22  C   LIG    1       26.913 -20.451   7.062  0.00  0.00    +0.104 C 
ENDBRANCH  19  20
ENDBRANCH  18  19
ENDBRANCH   9  18
TORSDOF 5
ENDMDL
MODEL 6
REMARK VINA RESULT:      -3.3      2.261      5.182
REMARK  Name = *****
REMARK                            x       y       z     vdW  Elec       q    Type
REMARK                         _______ _______ _______ _____ _____    ______ ____
ROOT
ATOM      1  C   LIG    1       24.974 -18.213   3.982  0.00  0.00    -0.032 C 
ATOM      2  C   LIG    1       24.099 -19.349   4.313  0.00  0.00    -0.018 A 
ATOM      3  C   LIG    1       22.780 -18.887   4.422  0.00  0.00    -0.036 A 
ATOM      4  C   LIG    1       21.725 -19.744   4.692  0.00  0.00    +0.004 A 
ATOM      5  C   LIG    1       22.004 -21.101   4.854  0.00  0.00    +0.000 A 
ATOM      6  C   LIG    1       23.322 -21.572   4.755  0.00  0.00    +0.001 A 
ATOM      7  C   LIG    1       22.731 -17.417   4.192  0.00  0.00    +0.067 C 
ATOM      8  C   LIG    1       24.377 -20.694   4.487  0.00  0.00    +0.008 A 
ATOM      9  C   LIG    1       24.189 -17.119   3.921  0.00  0.00    -0.060 C 
ENDROOT
BRANCH   1  11
ATOM     10  C   LIG    1       27.043 -16.964   3.285  0.00  0.00    +0.019 C 
ATOM     11  C   LIG    1       26.466 -18.325   3.711  0.00  0.00    +0.065 C 
BRANCH  11  12
ATOM     12  C   LIG    1       27.277 -18.968   4.841  0.00  0.00    +0.048 A 
ATOM     13  N   LIG    1       28.519 -18.470   5.079  0.00  0.00    -0.259 NA
ATOM     14  C   LIG    1       29.245 -19.014   6.080  0.00  0.00    +0.111 A 
ATOM     15  C   LIG    1       28.799 -20.051   6.876  0.00  0.00    +0.020 A 
ATOM     16  C   LIG    1       27.545 -20.582   6.609  0.00  0.00    +0.003 A 
ATOM     17  C   LIG    1       26.784 -20.055   5.569  0.00  0.00    +0.024 A 
ENDBRANCH  11  12
ENDBRANCH   1  11
BRANCH   9  18
ATOM     18  C   LIG    1       24.592 -15.692   3.667  0.00  0.00    +0.047 C 
BRANCH  18  19
ATOM     19  C   LIG    1       23.680 -14.664   4.364  0.00  0.00    +0.088 C 
BRANCH  19  20
ATOM     20  N   LIG    1       24.252 -13.301   4.369  0.00  0.00    -0.308 NA
ATOM     21  C   LIG    1       24.115 -12.675   3.050  0.00  0.00    +0.104 C 
ATOM     22  C   LIG    1       25.668 -13.315   4.748  0.00  0.00    +0.104 C 
ENDBRANCH  19  20
ENDBRANCH  18  19
ENDBRANCH   9  18
TORSDOF 5
ENDMDL
MODEL 7
REMARK VINA RESULT:      -2.2      2.001      3.168
REMARK  Name = *****
REMARK                            x       y       z     vdW  Elec       q    Type
REMARK                         _______ _______ _______ _____ _____    ______ ____
ROOT
ATOM      1  C   LIG    1       24.597 -17.258   3.734  0.00  0.00    -0.032 C 
ATOM      2  C   LIG    1       23.523 -18.234   3.982  0.00  0.00    -0.018 A 
ATOM      3  C   LIG    1       24.096 -19.501   4.159  0.00  0.00    -0.036 A 
ATOM      4  C   LIG    1       23.327 -20.618   4.447  0.00  0.00    +0.004 A 
ATOM      5  C   LIG    1       21.948 -20.455   4.562  0.00  0.00    +0.000 A 
ATOM      6  C   LIG    1       21.364 -19.192   4.378  0.00  0.00    +0.001 A 
ATOM      7  C   LIG    1       25.576 -19.420   4.009  0.00  0.00    +0.067 C 
ATOM      8  C   LIG    1       22.152 -18.075   4.083  0.00  0.00    +0.008 A 
ATOM      9  C   LIG    1       25.758 -17.943   3.746  0.00  0.00    -0.060 C 
ENDROOT
BRANCH   1  11
ATOM     10  C   LIG    1       23.271 -15.267   4.509  0.00  0.00    +0.019 C 
ATOM     11  C   LIG    1       24.379 -15.763   3.564  0.00  0.00    +0.065 C 
BRANCH  11  12
ATOM     12  C   LIG    1       25.649 -14.913   3.667  0.00  0.00    +0.048 A 
ATOM     13  N   LIG    1       26.392 -14.762   2.540  0.00  0.00    -0.259 NA
ATOM     14  C   LIG    1       27.509 -14.004   2.607  0.00  0.00    +0.111 A 
ATOM     15  C   LIG    1       27.941 -13.373   3.758  0.00  0.00    +0.020 A 
ATOM     16  C   LIG    1       27.199 -13.556   4.917  0.00  0.00    +0.003 A 
ATOM     17  C   LIG    1       26.056 -14.350   4.881  0.00  0.00    +0.024 A 
ENDBRANCH  11  12
ENDBRANCH   1  11
BRANCH   9  18
ATOM     18  C   LIG    1       27.149 -17.428   3.493  0.00  0.00    +0.047 C 
BRANCH  18  19
ATOM     19  C   LIG    1       27.987 -17.270   4.776  0.00  0.00    +0.088 C 
BRANCH  19  20
ATOM     20  N   LIG    1       28.774 -18.480   5.099  0.00  0.00    -0.308 NA
ATOM     21  C   LIG    1       27.908 -19.662   5.154  0.00  0.00    +0.104 C 
ATOM     22  C   LIG    1       29.475 -18.338   6.378  0.00  0.00    +0.104 C 
ENDBRANCH  19  20
ENDBRANCH  18  19
ENDBRANCH   9  18
TORSDOF 5
ENDMDL
MODEL 8
REMARK VINA RESULT:      -2.2      2.362      6.890
REMARK  Name = *****
REMARK                            x       y       z     vdW  Elec       q    Type
REMARK                         _______ _______ _______ _____ _____    ______ ____
ROOT
ATOM      1  C   LIG    1       24.914 -16.626   3.619  0.00  0.00    -0.032 C 
ATOM      2  C   LIG    1       25.225 -15.201   3.414  0.00  0.00    -0.018 A 
ATOM      3  C   LIG    1       24.147 -14.432   3.873  0.00  0.00    -0.036 A 
ATOM      4  C   LIG    1       24.171 -13.047   3.841  0.00  0.00    +0.004 A 
ATOM      5  C   LIG    1       25.309 -12.420   3.337  0.00  0.00    +0.000 A 
ATOM      6  C   LIG    1       26.391 -13.181   2.867  0.00  0.00    +0.001 A 
ATOM      7  C   LIG    1       23.063 -15.319   4.379  0.00  0.00    +0.067 C 
ATOM      8  C   LIG    1       26.349 -14.579   2.901  0.00  0.00    +0.008 A 
ATOM      9  C   LIG    1       23.681 -16.682   4.162  0.00  0.00    -0.060 C 
ENDROOT
BRANCH   1  11
ATOM     10  C   LIG    1       27.301 -17.407   3.740  0.00  0.00    +0.019 C 
ATOM     11  C   LIG    1       25.868 -17.768   3.311  0.00  0.00    +0.065 C 
BRANCH  11  12
ATOM     12  C   LIG    1       25.432 -19.134   3.851  0.00  0.00    +0.048 A 
ATOM     13  N   LIG    1       25.937 -19.521   5.052  0.00  0.00    -0.259 NA
ATOM     14  C   LIG    1       25.553 -20.716   5.551  0.00  0.00    +0.111 A 
ATOM     15  C   LIG    1       24.676 -21.571   4.911  0.00  0.00    +0.020 A 
ATOM     16  C   LIG    1       24.188 -21.190   3.669  0.00  0.00    +0.003 A 
ATOM     17  C   LIG    1       24.585 -19.973   3.120  0.00  0.00    +0.024 A 
ENDBRANCH  11  12
ENDBRANCH   1  11
BRANCH   9  18
ATOM     18  C   LIG    1       22.873 -17.900   4.520  0.00  0.00    +0.047 C 
BRANCH  18  19
ATOM     19  C   LIG    1       21.374 -17.758   4.191  0.00  0.00    +0.088 C 
BRANCH  19  20
ATOM     20  N   LIG    1       20.840 -18.916   3.442  0.00  0.00    -0.308 NA
ATOM     21  C   LIG    1       19.433 -18.702   3.090  0.00  0.00    +0.104 C 
ATOM     22  C   LIG    1       20.959 -20.155   4.215  0.00  0.00    +0.104 C 
ENDBRANCH  19  20
ENDBRANCH  18  19
ENDBRANCH   9  18
TORSDOF 5
ENDMDL
MODEL 9
REMARK VINA RESULT:      -1.6      2.546      6.037
REMARK  Name = *****
REMARK                            x       y       z     vdW  Elec       q    Type
REMARK                         _______ _______ _______ _____ _____    ______ ____
ROOT
ATOM      1  C   LIG    1       24.578 -16.631   4.005  0.00  0.00    -0.032 C 
ATOM      2  C   LIG    1       24.719 -15.206   3.666  0.00  0.00    -0.018 A 
ATOM      3  C   LIG    1       26.018 -14.979   3.193  0.00  0.00    -0.036 A 
ATOM      4  C   LIG    1       26.432 -13.730   2.760  0.00  0.00    +0.004 A 
ATOM      5  C   LIG    1       25.514 -12.681   2.802  0.00  0.00    +0.000 A 
ATOM      6  C   LIG    1       24.212 -12.896   3.282  0.00  0.00    +0.001 A 
ATOM      7  C   LIG    1       26.803 -16.245   3.224  0.00  0.00    +0.067 C 
ATOM      8  C   LIG    1       23.811 -14.162   3.720  0.00  0.00    +0.008 A 
ATOM      9  C   LIG    1       25.769 -17.212   3.756  0.00  0.00    -0.060 C 
ENDROOT
BRANCH   1  11
ATOM     10  C   LIG    1       22.079 -16.701   3.729  0.00  0.00    +0.019 C 
ATOM     11  C   LIG    1       23.289 -17.279   4.485  0.00  0.00    +0.065 C 
BRANCH  11  12
ATOM     12  C   LIG    1       23.297 -18.811   4.476  0.00  0.00    +0.048 A 
ATOM     13  N   LIG    1       23.672 -19.426   3.324  0.00  0.00    -0.259 NA
ATOM     14  C   LIG    1       23.699 -20.777   3.301  0.00  0.00    +0.111 A 
ATOM     15  C   LIG    1       23.364 -21.571   4.381  0.00  0.00    +0.020 A 
ATOM     16  C   LIG    1       22.947 -20.941   5.545  0.00  0.00    +0.003 A 
ATOM     17  C   LIG    1       22.889 -19.551   5.590  0.00  0.00    +0.024 A 
ENDBRANCH  11  12
ENDBRANCH   1  11
BRANCH   9  18
ATOM     18  C   LIG    1       26.176 -18.642   3.982  0.00  0.00    +0.047 C 
BRANCH  18  19
ATOM     19  C   LIG    1       27.531 -18.788   4.702  0.00  0.00    +0.088 C 
BRANCH  19  20
ATOM     20  N   LIG    1       27.680 -20.091   5.383  0.00  0.00    -0.308 NA
ATOM     21  C   LIG    1       26.467 -20.424   6.139  0.00  0.00    +0.104 C 
ATOM     22  C   LIG    1       28.828 -20.092   6.294  0.00  0.00    +0.104 C 
ENDBRANCH  19  20
ENDBRANCH  18  19
ENDBRANCH   9  18
TORSDOF 5
ENDMDL
