MODEL 1
REMARK VINA RESULT:      -7.7      0.000      0.000
REMARK  Name = *****
REMARK                            x       y       z     vdW  Elec       q    Type
REMARK                         _______ _______ _______ _____ _____    ______ ____
ROOT
ATOM      1  C   LIG    1       26.725 -20.313   6.165  0.00  0.00    -0.037 C 
ATOM      2  C   LIG    1       27.074 -20.503   7.462  0.00  0.00    -0.037 C 
ENDROOT
BRANCH   1   3
ATOM      3  C   LIG    1       25.332 -20.527   5.720  0.00  0.00    -0.021 A 
ATOM      4  C   LIG    1       24.290 -20.536   6.656  0.00  0.00    +0.012 A 
ATOM      5  C   LIG    1       22.971 -20.731   6.240  0.00  0.00    +0.046 A 
ATOM      6  C   LIG    1       22.696 -20.925   4.891  0.00  0.00    +0.117 A 
ATOM      7  C   LIG    1       23.719 -20.932   3.948  0.00  0.00    +0.046 A 
ATOM      8  C   LIG    1       25.038 -20.732   4.365  0.00  0.00    +0.012 A 
BRANCH   6   9
ATOM      9  O   LIG    1       21.394 -21.106   4.530  0.00  0.00    -0.507 OA
ATOM     10  H   LIG    1       21.267 -20.748   3.638  0.00  0.00    +0.292 HD
ENDBRANCH   6   9
ENDBRANCH   1   3
BRANCH   2  11
ATOM     11  C   LIG    1       28.460 -20.265   7.912  0.00  0.00    -0.021 A 
ATOM     12  C   LIG    1       28.870 -18.978   8.284  0.00  0.00    +0.012 A 
ATOM     13  C   LIG    1       30.180 -18.754   8.716  0.00  0.00    +0.046 A 
ATOM     14  C   LIG    1       31.073 -19.815   8.782  0.00  0.00    +0.117 A 
ATOM     15  C   LIG    1       30.685 -21.100   8.413  0.00  0.00    +0.046 A 
ATOM     16  C   LIG    1       29.378 -21.322   7.974  0.00  0.00    +0.012 A 
BRANCH  14  17
ATOM     17  O   LIG    1       32.337 -19.555   9.219  0.00  0.00    -0.507 OA
ATOM     18  H   LIG    1       32.967 -19.978   8.612  0.00  0.00    +0.292 HD
ENDBRANCH  14  17
ENDBRANCH   2  11
BRANCH   1  20
ATOM     19  C   LIG    1       28.059 -18.484   4.977  0.00  0.00    +0.009 C 
ATOM     20  C   LIG    1       27.681 -19.959   5.036  0.00  0.00    +0.033 C 
ENDBRANCH   1  20
BRANCH   2  21
ATOM     21  C   LIG    1       26.129 -20.902   8.583  0.00  0.00    +0.033 C 
ATOM     22  C   LIG    1       25.973 -22.414   8.712  0.00  0.00    +0.009 C 
ENDBRANCH   2  21
TORSDOF 6
ENDMDL
MODEL 2
REMARK VINA RESULT:      -7.7      0.531      6.601
REMARK  Name = *****
REMARK                            x       y       z     vdW  Elec       q    Type
REMARK                         _______ _______ _______ _____ _____    ______ ____
ROOT
ATOM      1  C   LIG    1       27.466 -20.114   6.600  0.00  0.00    -0.037 C 
ATOM      2  C   LIG    1       26.353 -20.623   7.184  0.00  0.00    -0.037 C 
ENDROOT
BRANCH   1   3
ATOM      3  C   LIG    1       28.729 -19.996   7.359  0.00  0.00    -0.021 A 
ATOM      4  C   LIG    1       29.594 -21.093   7.457  0.00  0.00    +0.012 A 
ATOM      5  C   LIG    1       30.791 -20.985   8.167  0.00  0.00    +0.046 A 
ATOM      6  C   LIG    1       31.119 -19.785   8.786  0.00  0.00    +0.117 A 
ATOM      7  C   LIG    1       30.267 -18.687   8.711  0.00  0.00    +0.046 A 
ATOM      8  C   LIG    1       29.071 -18.795   7.995  0.00  0.00    +0.012 A 
BRANCH   6   9
ATOM      9  O   LIG    1       32.300 -19.723   9.464  0.00  0.00    -0.507 OA
ATOM     10  H   LIG    1       32.336 -18.883   9.949  0.00  0.00    +0.292 HD
ENDBRANCH   6   9
ENDBRANCH   1   3
BRANCH   2  11
ATOM     11  C   LIG    1       25.098 -20.764   6.418  0.00  0.00    -0.021 A 
ATOM     12  C   LIG    1       23.878 -20.369   6.984  0.00  0.00    +0.012 A 
ATOM     13  C   LIG    1       22.692 -20.497   6.258  0.00  0.00    +0.046 A 
ATOM     14  C   LIG    1       22.727 -21.011   4.969  0.00  0.00    +0.117 A 
ATOM     15  C   LIG    1       23.929 -21.411   4.391  0.00  0.00    +0.046 A 
ATOM     16  C   LIG    1       25.114 -21.290   5.120  0.00  0.00    +0.012 A 
BRANCH  14  17
ATOM     17  O   LIG    1       21.548 -21.108   4.291  0.00  0.00    -0.507 OA
ATOM     18  H   LIG    1       21.638 -20.637   3.446  0.00  0.00    +0.292 HD
ENDBRANCH  14  17
ENDBRANCH   2  11
BRANCH   1  20
ATOM     19  C   LIG    1       28.548 -18.411   5.030  0.00  0.00    +0.009 C 
ATOM     20  C   LIG    1       27.543 -19.545   5.191  0.00  0.00    +0.033 C 
ENDBRANCH   1  20
BRANCH   2  21
ATOM     21  C   LIG    1       26.262 -21.149   8.606  0.00  0.00    +0.033 C 
ATOM     22  C   LIG    1       25.951 -22.642   8.663  0.00  0.00    +0.009 C 
ENDBRANCH   2  21
TORSDOF 6
ENDMDL
MODEL 3
REMARK VINA RESULT:      -7.7      0.058      6.992
REMARK  Name = *****
REMARK                            x       y       z     vdW  Elec       q    Type
REMARK                         _______ _______ _______ _____ _____    ______ ____
ROOT
ATOM      1  C   LIG    1       27.053 -20.465   7.497  0.00  0.00    -0.037 C 
ATOM      2  C   LIG    1       26.716 -20.356   6.188  0.00  0.00    -0.037 C 
ENDROOT
BRANCH   1   3
ATOM      3  C   LIG    1       28.448 -20.252   7.937  0.00  0.00    -0.021 A 
ATOM      4  C   LIG    1       28.882 -18.971   8.300  0.00  0.00    +0.012 A 
ATOM      5  C   LIG    1       30.198 -18.767   8.722  0.00  0.00    +0.046 A 
ATOM      6  C   LIG    1       31.079 -19.840   8.774  0.00  0.00    +0.117 A 
ATOM      7  C   LIG    1       30.670 -21.118   8.405  0.00  0.00    +0.046 A 
ATOM      8  C   LIG    1       29.353 -21.323   7.987  0.00  0.00    +0.012 A 
BRANCH   6   9
ATOM      9  O   LIG    1       32.352 -19.594   9.197  0.00  0.00    -0.507 OA
ATOM     10  H   LIG    1       32.670 -20.368   9.689  0.00  0.00    +0.292 HD
ENDBRANCH   6   9
ENDBRANCH   1   3
BRANCH   2  11
ATOM     11  C   LIG    1       25.318 -20.544   5.751  0.00  0.00    -0.021 A 
ATOM     12  C   LIG    1       25.029 -20.816   4.407  0.00  0.00    +0.012 A 
ATOM     13  C   LIG    1       23.707 -20.999   3.996  0.00  0.00    +0.046 A 
ATOM     14  C   LIG    1       22.679 -20.917   4.925  0.00  0.00    +0.117 A 
ATOM     15  C   LIG    1       22.947 -20.644   6.264  0.00  0.00    +0.046 A 
ATOM     16  C   LIG    1       24.268 -20.454   6.674  0.00  0.00    +0.012 A 
BRANCH  14  17
ATOM     17  O   LIG    1       21.405 -21.113   4.483  0.00  0.00    -0.507 OA
ATOM     18  H   LIG    1       20.887 -21.510   5.202  0.00  0.00    +0.292 HD
ENDBRANCH  14  17
ENDBRANCH   2  11
BRANCH   1  20
ATOM     19  C   LIG    1       25.928 -22.389   8.749  0.00  0.00    +0.009 C 
ATOM     20  C   LIG    1       26.114 -20.882   8.619  0.00  0.00    +0.033 C 
ENDBRANCH   1  20
BRANCH   2  21
ATOM     21  C   LIG    1       27.663 -19.984   5.059  0.00  0.00    +0.033 C 
ATOM     22  C   LIG    1       27.967 -18.489   5.013  0.00  0.00    +0.009 C 
ENDBRANCH   2  21
TORSDOF 6
ENDMDL
MODEL 4
REMARK VINA RESULT:      -7.7      0.528      2.338
REMARK  Name = *****
REMARK                            x       y       z     vdW  Elec       q    Type
REMARK                         _______ _______ _______ _____ _____    ______ ____
ROOT
ATOM      1  C   LIG    1       26.373 -20.653   7.150  0.00  0.00    -0.037 C 
ATOM      2  C   LIG    1       27.465 -20.074   6.590  0.00  0.00    -0.037 C 
ENDROOT
BRANCH   1   3
ATOM      3  C   LIG    1       25.109 -20.767   6.393  0.00  0.00    -0.021 A 
ATOM      4  C   LIG    1       23.901 -20.367   6.978  0.00  0.00    +0.012 A 
ATOM      5  C   LIG    1       22.705 -20.467   6.264  0.00  0.00    +0.046 A 
ATOM      6  C   LIG    1       22.716 -20.974   4.970  0.00  0.00    +0.117 A 
ATOM      7  C   LIG    1       23.904 -21.389   4.376  0.00  0.00    +0.046 A 
ATOM      8  C   LIG    1       25.101 -21.285   5.089  0.00  0.00    +0.012 A 
BRANCH   6   9
ATOM      9  O   LIG    1       21.526 -21.049   4.309  0.00  0.00    -0.507 OA
ATOM     10  H   LIG    1       21.560 -20.456   3.541  0.00  0.00    +0.292 HD
ENDBRANCH   6   9
ENDBRANCH   1   3
BRANCH   2  11
ATOM     11  C   LIG    1       28.735 -19.982   7.337  0.00  0.00    -0.021 A 
ATOM     12  C   LIG    1       29.134 -18.765   7.905  0.00  0.00    +0.012 A 
ATOM     13  C   LIG    1       30.333 -18.680   8.617  0.00  0.00    +0.046 A 
ATOM     14  C   LIG    1       31.126 -19.809   8.765  0.00  0.00    +0.117 A 
ATOM     15  C   LIG    1       30.748 -21.026   8.205  0.00  0.00    +0.046 A 
ATOM     16  C   LIG    1       29.553 -21.110   7.488  0.00  0.00    +0.012 A 
BRANCH  14  17
ATOM     17  O   LIG    1       32.282 -19.684   9.476  0.00  0.00    -0.507 OA
ATOM     18  H   LIG    1       32.061 -19.653  10.422  0.00  0.00    +0.292 HD
ENDBRANCH  14  17
ENDBRANCH   2  11
BRANCH   1  20
ATOM     19  C   LIG    1       25.934 -22.636   8.702  0.00  0.00    +0.009 C 
ATOM     20  C   LIG    1       26.277 -21.156   8.582  0.00  0.00    +0.033 C 
ENDBRANCH   1  20
BRANCH   2  21
ATOM     21  C   LIG    1       27.549 -19.529   5.174  0.00  0.00    +0.033 C 
ATOM     22  C   LIG    1       28.564 -18.397   5.038  0.00  0.00    +0.009 C 
ENDBRANCH   2  21
TORSDOF 6
ENDMDL
MODEL 5
REMARK VINA RESULT:      -7.3      1.495      6.601
REMARK  Name = *****
REMARK                            x       y       z     vdW  Elec       q    Type
REMARK                         _______ _______ _______ _____ _____    ______ ____
ROOT
ATOM      1  C   LIG    1       28.559 -19.748   6.771  0.00  0.00    -0.037 C 
ATOM      2  C   LIG    1       27.391 -20.300   7.182  0.00  0.00    -0.037 C 
ENDROOT
BRANCH   1   3
ATOM      3  C   LIG    1       29.576 -19.316   7.754  0.00  0.00    -0.021 A 
ATOM      4  C   LIG    1       29.478 -18.056   8.357  0.00  0.00    +0.012 A 
ATOM      5  C   LIG    1       30.432 -17.647   9.291  0.00  0.00    +0.046 A 
ATOM      6  C   LIG    1       31.486 -18.492   9.615  0.00  0.00    +0.117 A 
ATOM      7  C   LIG    1       31.608 -19.743   9.016  0.00  0.00    +0.046 A 
ATOM      8  C   LIG    1       30.650 -20.154   8.086  0.00  0.00    +0.012 A 
BRANCH   6   9
ATOM      9  O   LIG    1       32.391 -18.053  10.535  0.00  0.00    -0.507 OA
ATOM     10  H   LIG    1       31.950 -17.424  11.129  0.00  0.00    +0.292 HD
ENDBRANCH   6   9
ENDBRANCH   1   3
BRANCH   2  11
ATOM     11  C   LIG    1       26.386 -20.755   6.200  0.00  0.00    -0.021 A 
ATOM     12  C   LIG    1       25.946 -19.891   5.188  0.00  0.00    +0.012 A 
ATOM     13  C   LIG    1       25.000 -20.324   4.256  0.00  0.00    +0.046 A 
ATOM     14  C   LIG    1       24.502 -21.617   4.331  0.00  0.00    +0.117 A 
ATOM     15  C   LIG    1       24.924 -22.489   5.332  0.00  0.00    +0.046 A 
ATOM     16  C   LIG    1       25.865 -22.054   6.268  0.00  0.00    +0.012 A 
BRANCH  14  17
ATOM     17  O   LIG    1       23.589 -22.002   3.396  0.00  0.00    -0.507 OA
ATOM     18  H   LIG    1       23.631 -22.969   3.302  0.00  0.00    +0.292 HD
ENDBRANCH  14  17
ENDBRANCH   2  11
BRANCH   1  20
ATOM     19  C   LIG    1       29.064 -17.946   5.030  0.00  0.00    +0.009 C 
ATOM     20  C   LIG    1       28.929 -19.434   5.330  0.00  0.00    +0.033 C 
ENDBRANCH   1  20
BRANCH   2  21
ATOM     21  C   LIG    1       27.000 -20.573   8.625  0.00  0.00    +0.033 C 
ATOM     22  C   LIG    1       25.489 -20.584   8.835  0.00  0.00    +0.009 C 
ENDBRANCH   2  21
TORSDOF 6
ENDMDL
MODEL 6
REMARK VINA RESULT:      -7.2      1.505      3.001
REMARK  Name = *****
REMARK                            x       y       z     vdW  Elec       q    Type
REMARK                         _______ _______ _______ _____ _____    ______ ____
ROOT
ATOM      1  C   LIG    1       27.422 -20.286   7.249  0.00  0.00    -0.037 C 
ATOM      2  C   LIG    1       28.573 -19.696   6.842  0.00  0.00    -0.037 C 
ENDROOT
BRANCH   1   3
ATOM      3  C   LIG    1       26.424 -20.753   6.264  0.00  0.00    -0.021 A 
ATOM      4  C   LIG    1       25.914 -22.055   6.343  0.00  0.00    +0.012 A 
ATOM      5  C   LIG    1       24.967 -22.498   5.418  0.00  0.00    +0.046 A 
ATOM      6  C   LIG    1       24.536 -21.644   4.410  0.00  0.00    +0.117 A 
ATOM      7  C   LIG    1       25.040 -20.351   4.307  0.00  0.00    +0.046 A 
ATOM      8  C   LIG    1       25.985 -19.906   5.236  0.00  0.00    +0.012 A 
BRANCH   6   9
ATOM      9  O   LIG    1       23.607 -22.118   3.533  0.00  0.00    -0.507 OA
ATOM     10  H   LIG    1       22.928 -22.600   4.031  0.00  0.00    +0.292 HD
ENDBRANCH   6   9
ENDBRANCH   1   3
BRANCH   2  11
ATOM     11  C   LIG    1       29.581 -19.252   7.825  0.00  0.00    -0.021 A 
ATOM     12  C   LIG    1       30.645 -20.095   8.175  0.00  0.00    +0.012 A 
ATOM     13  C   LIG    1       31.602 -19.673   9.101  0.00  0.00    +0.046 A 
ATOM     14  C   LIG    1       31.500 -18.410   9.668  0.00  0.00    +0.117 A 
ATOM     15  C   LIG    1       30.449 -17.560   9.335  0.00  0.00    +0.046 A 
ATOM     16  C   LIG    1       29.488 -17.985   8.415  0.00  0.00    +0.012 A 
BRANCH  14  17
ATOM     17  O   LIG    1       32.461 -18.033  10.558  0.00  0.00    -0.507 OA
ATOM     18  H   LIG    1       32.360 -18.565  11.365  0.00  0.00    +0.292 HD
ENDBRANCH  14  17
ENDBRANCH   2  11
BRANCH   1  20
ATOM     19  C   LIG    1       25.476 -20.604   8.876  0.00  0.00    +0.009 C 
ATOM     20  C   LIG    1       26.982 -20.459   8.695  0.00  0.00    +0.033 C 
ENDBRANCH   1  20
BRANCH   2  21
ATOM     21  C   LIG    1       28.994 -19.480   5.398  0.00  0.00    +0.033 C 
ATOM     22  C   LIG    1       29.108 -18.003   5.032  0.00  0.00    +0.009 C 
ENDBRANCH   2  21
TORSDOF 6
ENDMDL
MODEL 7
REMARK VINA RESULT:      -6.6      9.663     10.779
REMARK  Name = *****
REMARK                            x       y       z     vdW  Elec       q    Type
REMARK                         _______ _______ _______ _____ _____    ______ ____
ROOT
ATOM      1  C   LIG    1       23.504 -27.191  13.474  0.00  0.00    -0.037 C 
ATOM      2  C   LIG    1       23.927 -28.392  13.008  0.00  0.00    -0.037 C 
ENDROOT
BRANCH   1   3
ATOM      3  C   LIG    1       22.087 -26.978  13.834  0.00  0.00    -0.021 A 
ATOM      4  C   LIG    1       21.660 -27.177  15.154  0.00  0.00    +0.012 A 
ATOM      5  C   LIG    1       20.323 -26.971  15.500  0.00  0.00    +0.046 A 
ATOM      6  C   LIG    1       19.413 -26.576  14.527  0.00  0.00    +0.117 A 
ATOM      7  C   LIG    1       19.814 -26.386  13.209  0.00  0.00    +0.046 A 
ATOM      8  C   LIG    1       21.154 -26.587  12.863  0.00  0.00    +0.012 A 
BRANCH   6   9
ATOM      9  O   LIG    1       18.119 -26.382  14.912  0.00  0.00    -0.507 OA
ATOM     10  H   LIG    1       18.060 -25.537  15.386  0.00  0.00    +0.292 HD
ENDBRANCH   6   9
ENDBRANCH   1   3
BRANCH   2  11
ATOM     11  C   LIG    1       25.348 -28.613  12.672  0.00  0.00    -0.021 A 
ATOM     12  C   LIG    1       26.243 -29.065  13.651  0.00  0.00    +0.012 A 
ATOM     13  C   LIG    1       27.586 -29.280  13.331  0.00  0.00    +0.046 A 
ATOM     14  C   LIG    1       28.030 -29.049  12.036  0.00  0.00    +0.117 A 
ATOM     15  C   LIG    1       27.156 -28.596  11.052  0.00  0.00    +0.046 A 
ATOM     16  C   LIG    1       25.815 -28.375  11.372  0.00  0.00    +0.012 A 
BRANCH  14  17
ATOM     17  O   LIG    1       29.345 -29.281  11.765  0.00  0.00    -0.507 OA
ATOM     18  H   LIG    1       29.402 -29.844  10.975  0.00  0.00    +0.292 HD
ENDBRANCH  14  17
ENDBRANCH   2  11
BRANCH   1  20
ATOM     19  C   LIG    1       24.915 -25.703  15.001  0.00  0.00    +0.009 C 
ATOM     20  C   LIG    1       24.362 -25.941  13.601  0.00  0.00    +0.033 C 
ENDBRANCH   1  20
BRANCH   2  21
ATOM     21  C   LIG    1       23.061 -29.629  12.837  0.00  0.00    +0.033 C 
ATOM     22  C   LIG    1       22.474 -29.748  11.433  0.00  0.00    +0.009 C 
ENDBRANCH   2  21
TORSDOF 6
ENDMDL
MODEL 8
REMARK VINA RESULT:      -6.5      9.627     12.095
REMARK  Name = *****
REMARK                            x       y       z     vdW  Elec       q    Type
REMARK                         _______ _______ _______ _____ _____    ______ ____
ROOT
ATOM      1  C   LIG    1       23.939 -28.339  13.140  0.00  0.00    -0.037 C 
ATOM      2  C   LIG    1       23.532 -27.091  13.482  0.00  0.00    -0.037 C 
ENDROOT
BRANCH   1   3
ATOM      3  C   LIG    1       25.356 -28.607  12.816  0.00  0.00    -0.021 A 
ATOM      4  C   LIG    1       25.879 -28.219  11.576  0.00  0.00    +0.012 A 
ATOM      5  C   LIG    1       27.219 -28.464  11.268  0.00  0.00    +0.046 A 
ATOM      6  C   LIG    1       28.033 -29.103  12.196  0.00  0.00    +0.117 A 
ATOM      7  C   LIG    1       27.529 -29.507  13.429  0.00  0.00    +0.046 A 
ATOM      8  C   LIG    1       26.189 -29.257  13.738  0.00  0.00    +0.012 A 
BRANCH   6   9
ATOM      9  O   LIG    1       29.335 -29.317  11.855  0.00  0.00    -0.507 OA
ATOM     10  H   LIG    1       29.512 -30.270  11.887  0.00  0.00    +0.292 HD
ENDBRANCH   6   9
ENDBRANCH   1   3
BRANCH   2  11
ATOM     11  C   LIG    1       22.121 -26.828  13.830  0.00  0.00    -0.021 A 
ATOM     12  C   LIG    1       21.158 -26.696  12.821  0.00  0.00    +0.012 A 
ATOM     13  C   LIG    1       19.822 -26.453  13.151  0.00  0.00    +0.046 A 
ATOM     14  C   LIG    1       19.451 -26.350  14.484  0.00  0.00    +0.117 A 
ATOM     15  C   LIG    1       20.395 -26.474  15.500  0.00  0.00    +0.046 A 
ATOM     16  C   LIG    1       21.731 -26.710  15.170  0.00  0.00    +0.012 A 
BRANCH  14  17
ATOM     17  O   LIG    1       18.136 -26.123  14.762  0.00  0.00    -0.507 OA
ATOM     18  H   LIG    1       17.796 -25.465  14.133  0.00  0.00    +0.292 HD
ENDBRANCH  14  17
ENDBRANCH   2  11
BRANCH   1  20
ATOM     19  C   LIG    1       22.659 -29.845  11.519  0.00  0.00    +0.009 C 
ATOM     20  C   LIG    1       23.032 -29.547  12.966  0.00  0.00    +0.033 C 
ENDBRANCH   1  20
BRANCH   2  21
ATOM     21  C   LIG    1       24.429 -25.872  13.611  0.00  0.00    +0.033 C 
ATOM     22  C   LIG    1       25.133 -25.799  14.963  0.00  0.00    +0.009 C 
ENDBRANCH   2  21
TORSDOF 6
ENDMDL
MODEL 9
REMARK VINA RESULT:      -6.4      9.568     12.084
REMARK  Name = *****
REMARK                            x       y       z     vdW  Elec       q    Type
REMARK                         _______ _______ _______ _____ _____    ______ ____
ROOT
ATOM      1  C   LIG    1       24.338 -27.343  13.334  0.00  0.00    -0.037 C 
ATOM      2  C   LIG    1       23.245 -28.143  13.405  0.00  0.00    -0.037 C 
ENDROOT
BRANCH   1   3
ATOM      3  C   LIG    1       25.646 -27.889  12.914  0.00  0.00    -0.021 A 
ATOM      4  C   LIG    1       26.011 -27.877  11.562  0.00  0.00    +0.012 A 
ATOM      5  C   LIG    1       27.248 -28.386  11.162  0.00  0.00    +0.046 A 
ATOM      6  C   LIG    1       28.115 -28.915  12.111  0.00  0.00    +0.117 A 
ATOM      7  C   LIG    1       27.765 -28.947  13.458  0.00  0.00    +0.046 A 
ATOM      8  C   LIG    1       26.529 -28.433  13.858  0.00  0.00    +0.012 A 
BRANCH   6   9
ATOM      9  O   LIG    1       29.314 -29.396  11.676  0.00  0.00    -0.507 OA
ATOM     10  H   LIG    1       29.387 -29.231  10.722  0.00  0.00    +0.292 HD
ENDBRANCH   6   9
ENDBRANCH   1   3
BRANCH   2  11
ATOM     11  C   LIG    1       21.933 -27.592  13.799  0.00  0.00    -0.021 A 
ATOM     12  C   LIG    1       21.107 -26.983  12.844  0.00  0.00    +0.012 A 
ATOM     13  C   LIG    1       19.863 -26.468  13.216  0.00  0.00    +0.046 A 
ATOM     14  C   LIG    1       19.444 -26.568  14.536  0.00  0.00    +0.117 A 
ATOM     15  C   LIG    1       20.252 -27.167  15.498  0.00  0.00    +0.046 A 
ATOM     16  C   LIG    1       21.499 -27.675  15.128  0.00  0.00    +0.012 A 
BRANCH  14  17
ATOM     17  O   LIG    1       18.219 -26.062  14.854  0.00  0.00    -0.507 OA
ATOM     18  H   LIG    1       17.718 -25.927  14.032  0.00  0.00    +0.292 HD
ENDBRANCH  14  17
ENDBRANCH   2  11
BRANCH   1  20
ATOM     19  C   LIG    1       24.616 -25.646  15.225  0.00  0.00    +0.009 C 
ATOM     20  C   LIG    1       24.387 -25.877  13.736  0.00  0.00    +0.033 C 
ENDBRANCH   1  20
BRANCH   2  21
ATOM     21  C   LIG    1       23.204 -29.619  13.047  0.00  0.00    +0.033 C 
ATOM     22  C   LIG    1       22.831 -29.861  11.587  0.00  0.00    +0.009 C 
ENDBRANCH   2  21
TORSDOF 6
ENDMDL
