MODEL 1
REMARK VINA RESULT:      -6.8      0.000      0.000
REMARK  Name = *****
REMARK                            x       y       z     vdW  Elec       q    Type
REMARK                         _______ _______ _______ _____ _____    ______ ____
ROOT
ATOM      1  C   LIG    1       25.624 -21.141   7.900  0.00  0.00    +0.161 A 
ATOM      2  C   LIG    1       26.821 -20.617   7.395  0.00  0.00    +0.115 A 
ATOM      3  C   LIG    1       26.846 -20.181   6.050  0.00  0.00    +0.022 A 
ATOM      4  C   LIG    1       28.063 -19.644   5.571  0.00  0.00    +0.013 A 
ATOM      5  C   LIG    1       29.175 -19.549   6.398  0.00  0.00    +0.020 A 
ATOM      6  C   LIG    1       29.051 -20.004   7.690  0.00  0.00    +0.111 A 
ATOM      7  C   LIG    1       25.670 -20.294   5.265  0.00  0.00    +0.052 A 
ATOM      8 CL   LIG    1       25.623 -19.793   3.606  0.00  0.00    -0.083 Cl
ATOM      9  C   LIG    1       24.490 -20.811   5.795  0.00  0.00    +0.044 A 
ATOM     10  N   LIG    1       27.914 -20.529   8.189  0.00  0.00    -0.251 NA
ATOM     11  C   LIG    1       24.470 -21.232   7.115  0.00  0.00    +0.086 A 
ATOM     12 CL   LIG    1       23.005 -21.859   7.776  0.00  0.00    -0.080 Cl
ENDROOT
BRANCH   1  13
ATOM     13  O   LIG    1       25.588 -21.572   9.211  0.00  0.00    -0.503 OA
ATOM     14  H   LIG    1       24.692 -21.418   9.557  0.00  0.00    +0.292 HD
ENDBRANCH   1  13
TORSDOF 1
ENDMDL
MODEL 2
REMARK VINA RESULT:      -6.5      2.716      4.460
REMARK  Name = *****
REMARK                            x       y       z     vdW  Elec       q    Type
REMARK                         _______ _______ _______ _____ _____    ______ ____
ROOT
ATOM      1  C   LIG    1       26.683 -20.394   5.617  0.00  0.00    +0.161 A 
ATOM      2  C   LIG    1       25.429 -20.042   5.102  0.00  0.00    +0.115 A 
ATOM      3  C   LIG    1       24.275 -20.521   5.764  0.00  0.00    +0.022 A 
ATOM      4  C   LIG    1       23.023 -20.139   5.230  0.00  0.00    +0.013 A 
ATOM      5  C   LIG    1       22.944 -19.323   4.110  0.00  0.00    +0.020 A 
ATOM      6  C   LIG    1       24.124 -18.910   3.536  0.00  0.00    +0.111 A 
ATOM      7  C   LIG    1       24.426 -21.341   6.912  0.00  0.00    +0.052 A 
ATOM      8 CL   LIG    1       23.063 -21.978   7.772  0.00  0.00    -0.083 Cl
ATOM      9  C   LIG    1       25.687 -21.670   7.408  0.00  0.00    +0.044 A 
ATOM     10  N   LIG    1       25.340 -19.255   4.005  0.00  0.00    -0.251 NA
ATOM     11  C   LIG    1       26.813 -21.192   6.759  0.00  0.00    +0.086 A 
ATOM     12 CL   LIG    1       28.373 -21.587   7.381  0.00  0.00    -0.080 Cl
ENDROOT
BRANCH   1  13
ATOM     13  O   LIG    1       27.817 -19.934   4.979  0.00  0.00    -0.503 OA
ATOM     14  H   LIG    1       28.522 -19.837   5.643  0.00  0.00    +0.292 HD
ENDBRANCH   1  13
TORSDOF 1
ENDMDL
MODEL 3
REMARK VINA RESULT:      -6.5      2.752      4.226
REMARK  Name = *****
REMARK                            x       y       z     vdW  Elec       q    Type
REMARK                         _______ _______ _______ _____ _____    ______ ____
ROOT
ATOM      1  C   LIG    1       25.895 -20.164   4.947  0.00  0.00    +0.161 A 
ATOM      2  C   LIG    1       25.381 -21.231   5.693  0.00  0.00    +0.115 A 
ATOM      3  C   LIG    1       23.992 -21.489   5.623  0.00  0.00    +0.022 A 
ATOM      4  C   LIG    1       23.502 -22.581   6.376  0.00  0.00    +0.013 A 
ATOM      5  C   LIG    1       24.359 -23.362   7.141  0.00  0.00    +0.020 A 
ATOM      6  C   LIG    1       25.694 -23.029   7.146  0.00  0.00    +0.111 A 
ATOM      7  C   LIG    1       23.175 -20.660   4.812  0.00  0.00    +0.052 A 
ATOM      8 CL   LIG    1       21.464 -20.903   4.683  0.00  0.00    -0.083 Cl
ATOM      9  C   LIG    1       23.714 -19.609   4.073  0.00  0.00    +0.044 A 
ATOM     10  N   LIG    1       26.205 -21.993   6.450  0.00  0.00    -0.251 NA
ATOM     11  C   LIG    1       25.077 -19.366   4.141  0.00  0.00    +0.086 A 
ATOM     12 CL   LIG    1       25.747 -18.074   3.214  0.00  0.00    -0.080 Cl
ENDROOT
BRANCH   1  13
ATOM     13  O   LIG    1       27.249 -19.902   5.008  0.00  0.00    -0.503 OA
ATOM     14  H   LIG    1       27.627 -20.423   5.738  0.00  0.00    +0.292 HD
ENDBRANCH   1  13
TORSDOF 1
ENDMDL
MODEL 4
REMARK VINA RESULT:      -6.5      3.353      4.675
REMARK  Name = *****
REMARK                            x       y       z     vdW  Elec       q    Type
REMARK                         _______ _______ _______ _____ _____    ______ ____
ROOT
ATOM      1  C   LIG    1       24.408 -21.869   4.592  0.00  0.00    +0.161 A 
ATOM      2  C   LIG    1       24.885 -22.987   5.288  0.00  0.00    +0.115 A 
ATOM      3  C   LIG    1       25.368 -22.800   6.604  0.00  0.00    +0.022 A 
ATOM      4  C   LIG    1       25.831 -23.947   7.288  0.00  0.00    +0.013 A 
ATOM      5  C   LIG    1       25.798 -25.197   6.686  0.00  0.00    +0.020 A 
ATOM      6  C   LIG    1       25.312 -25.276   5.402  0.00  0.00    +0.111 A 
ATOM      7  C   LIG    1       25.361 -21.496   7.164  0.00  0.00    +0.052 A 
ATOM      8 CL   LIG    1       25.947 -21.182   8.765  0.00  0.00    -0.083 Cl
ATOM      9  C   LIG    1       24.873 -20.402   6.452  0.00  0.00    +0.044 A 
ATOM     10  N   LIG    1       24.868 -24.209   4.708  0.00  0.00    -0.251 NA
ATOM     11  C   LIG    1       24.395 -20.594   5.165  0.00  0.00    +0.086 A 
ATOM     12 CL   LIG    1       23.778 -19.242   4.288  0.00  0.00    -0.080 Cl
ENDROOT
BRANCH   1  13
ATOM     13  O   LIG    1       23.935 -22.039   3.306  0.00  0.00    -0.503 OA
ATOM     14  H   LIG    1       23.476 -22.896   3.262  0.00  0.00    +0.292 HD
ENDBRANCH   1  13
TORSDOF 1
ENDMDL
MODEL 5
REMARK VINA RESULT:      -6.4      3.558      4.603
REMARK  Name = *****
REMARK                            x       y       z     vdW  Elec       q    Type
REMARK                         _______ _______ _______ _____ _____    ______ ____
ROOT
ATOM      1  C   LIG    1       23.169 -22.233   6.021  0.00  0.00    +0.161 A 
ATOM      2  C   LIG    1       23.966 -23.359   6.266  0.00  0.00    +0.115 A 
ATOM      3  C   LIG    1       25.324 -23.158   6.602  0.00  0.00    +0.022 A 
ATOM      4  C   LIG    1       26.101 -24.311   6.857  0.00  0.00    +0.013 A 
ATOM      5  C   LIG    1       25.540 -25.579   6.785  0.00  0.00    +0.020 A 
ATOM      6  C   LIG    1       24.209 -25.671   6.447  0.00  0.00    +0.111 A 
ATOM      7  C   LIG    1       25.831 -21.834   6.671  0.00  0.00    +0.052 A 
ATOM      8 CL   LIG    1       27.486 -21.504   7.064  0.00  0.00    -0.083 Cl
ATOM      9  C   LIG    1       25.014 -20.731   6.430  0.00  0.00    +0.044 A 
ATOM     10  N   LIG    1       23.432 -24.600   6.188  0.00  0.00    -0.251 NA
ATOM     11  C   LIG    1       23.682 -20.935   6.107  0.00  0.00    +0.086 A 
ATOM     12 CL   LIG    1       22.668 -19.568   5.823  0.00  0.00    -0.080 Cl
ENDROOT
BRANCH   1  13
ATOM     13  O   LIG    1       21.842 -22.417   5.690  0.00  0.00    -0.503 OA
ATOM     14  H   LIG    1       21.746 -22.284   4.730  0.00  0.00    +0.292 HD
ENDBRANCH   1  13
TORSDOF 1
ENDMDL
MODEL 6
REMARK VINA RESULT:      -6.4      2.098      3.822
REMARK  Name = *****
REMARK                            x       y       z     vdW  Elec       q    Type
REMARK                         _______ _______ _______ _____ _____    ______ ____
ROOT
ATOM      1  C   LIG    1       26.721 -20.982   7.505  0.00  0.00    +0.161 A 
ATOM      2  C   LIG    1       25.397 -21.169   7.088  0.00  0.00    +0.115 A 
ATOM      3  C   LIG    1       25.019 -20.674   5.818  0.00  0.00    +0.022 A 
ATOM      4  C   LIG    1       23.680 -20.888   5.417  0.00  0.00    +0.013 A 
ATOM      5  C   LIG    1       22.789 -21.563   6.240  0.00  0.00    +0.020 A 
ATOM      6  C   LIG    1       23.252 -22.004   7.458  0.00  0.00    +0.111 A 
ATOM      7  C   LIG    1       25.984 -20.005   5.022  0.00  0.00    +0.052 A 
ATOM      8 CL   LIG    1       25.597 -19.359   3.461  0.00  0.00    -0.083 Cl
ATOM      9  C   LIG    1       27.297 -19.840   5.458  0.00  0.00    +0.044 A 
ATOM     10  N   LIG    1       24.517 -21.817   7.886  0.00  0.00    -0.251 NA
ATOM     11  C   LIG    1       27.663 -20.332   6.700  0.00  0.00    +0.086 A 
ATOM     12 CL   LIG    1       29.292 -20.141   7.234  0.00  0.00    -0.080 Cl
ENDROOT
BRANCH   1  13
ATOM     13  O   LIG    1       27.102 -21.460   8.743  0.00  0.00    -0.503 OA
ATOM     14  H   LIG    1       27.542 -22.318   8.616  0.00  0.00    +0.292 HD
ENDBRANCH   1  13
TORSDOF 1
ENDMDL
MODEL 7
REMARK VINA RESULT:      -6.3      3.552      4.504
REMARK  Name = *****
REMARK                            x       y       z     vdW  Elec       q    Type
REMARK                         _______ _______ _______ _____ _____    ______ ____
ROOT
ATOM      1  C   LIG    1       25.032 -23.899   5.429  0.00  0.00    +0.161 A 
ATOM      2  C   LIG    1       24.771 -22.549   5.161  0.00  0.00    +0.115 A 
ATOM      3  C   LIG    1       25.079 -21.597   6.161  0.00  0.00    +0.022 A 
ATOM      4  C   LIG    1       24.818 -20.240   5.859  0.00  0.00    +0.013 A 
ATOM      5  C   LIG    1       24.291 -19.873   4.629  0.00  0.00    +0.020 A 
ATOM      6  C   LIG    1       24.022 -20.873   3.723  0.00  0.00    +0.111 A 
ATOM      7  C   LIG    1       25.630 -22.040   7.391  0.00  0.00    +0.052 A 
ATOM      8 CL   LIG    1       26.022 -20.938   8.670  0.00  0.00    -0.083 Cl
ATOM      9  C   LIG    1       25.886 -23.389   7.628  0.00  0.00    +0.044 A 
ATOM     10  N   LIG    1       24.247 -22.180   3.969  0.00  0.00    -0.251 NA
ATOM     11  C   LIG    1       25.588 -24.316   6.643  0.00  0.00    +0.086 A 
ATOM     12 CL   LIG    1       25.919 -25.985   6.930  0.00  0.00    -0.080 Cl
ENDROOT
BRANCH   1  13
ATOM     13  O   LIG    1       24.734 -24.838   4.461  0.00  0.00    -0.503 OA
ATOM     14  H   LIG    1       24.449 -25.654   4.907  0.00  0.00    +0.292 HD
ENDBRANCH   1  13
TORSDOF 1
ENDMDL
MODEL 8
REMARK VINA RESULT:      -6.2      2.252      3.175
REMARK  Name = *****
REMARK                            x       y       z     vdW  Elec       q    Type
REMARK                         _______ _______ _______ _____ _____    ______ ____
ROOT
ATOM      1  C   LIG    1       26.244 -19.872   4.839  0.00  0.00    +0.161 A 
ATOM      2  C   LIG    1       27.310 -20.084   5.723  0.00  0.00    +0.115 A 
ATOM      3  C   LIG    1       27.191 -21.118   6.679  0.00  0.00    +0.022 A 
ATOM      4  C   LIG    1       28.287 -21.319   7.550  0.00  0.00    +0.013 A 
ATOM      5  C   LIG    1       29.427 -20.532   7.453  0.00  0.00    +0.020 A 
ATOM      6  C   LIG    1       29.446 -19.549   6.491  0.00  0.00    +0.111 A 
ATOM      7  C   LIG    1       26.003 -21.894   6.715  0.00  0.00    +0.052 A 
ATOM      8 CL   LIG    1       25.775 -23.170   7.864  0.00  0.00    -0.083 Cl
ATOM      9  C   LIG    1       24.960 -21.666   5.818  0.00  0.00    +0.044 A 
ATOM     10  N   LIG    1       28.422 -19.317   5.644  0.00  0.00    -0.251 NA
ATOM     11  C   LIG    1       25.086 -20.655   4.879  0.00  0.00    +0.086 A 
ATOM     12 CL   LIG    1       23.802 -20.384   3.760  0.00  0.00    -0.080 Cl
ENDROOT
BRANCH   1  13
ATOM     13  O   LIG    1       26.348 -18.863   3.901  0.00  0.00    -0.503 OA
ATOM     14  H   LIG    1       25.480 -18.431   3.822  0.00  0.00    +0.292 HD
ENDBRANCH   1  13
TORSDOF 1
ENDMDL
MODEL 9
REMARK VINA RESULT:      -6.1      2.900      4.605
REMARK  Name = *****
REMARK                            x       y       z     vdW  Elec       q    Type
REMARK                         _______ _______ _______ _____ _____    ______ ____
ROOT
ATOM      1  C   LIG    1       27.853 -19.771   5.630  0.00  0.00    +0.161 A 
ATOM      2  C   LIG    1       26.543 -20.082   5.245  0.00  0.00    +0.115 A 
ATOM      3  C   LIG    1       25.866 -21.109   5.941  0.00  0.00    +0.022 A 
ATOM      4  C   LIG    1       24.540 -21.392   5.540  0.00  0.00    +0.013 A 
ATOM      5  C   LIG    1       23.939 -20.680   4.511  0.00  0.00    +0.020 A 
ATOM      6  C   LIG    1       24.682 -19.700   3.893  0.00  0.00    +0.111 A 
ATOM      7  C   LIG    1       26.534 -21.789   6.992  0.00  0.00    +0.052 A 
ATOM      8 CL   LIG    1       25.778 -23.067   7.886  0.00  0.00    -0.083 Cl
ATOM      9  C   LIG    1       27.836 -21.454   7.361  0.00  0.00    +0.044 A 
ATOM     10  N   LIG    1       25.951 -19.401   4.236  0.00  0.00    -0.251 NA
ATOM     11  C   LIG    1       28.492 -20.442   6.678  0.00  0.00    +0.086 A 
ATOM     12 CL   LIG    1       30.098 -20.018   7.144  0.00  0.00    -0.080 Cl
ENDROOT
BRANCH   1  13
ATOM     13  O   LIG    1       28.525 -18.771   4.957  0.00  0.00    -0.503 OA
ATOM     14  H   LIG    1       28.197 -17.913   5.279  0.00  0.00    +0.292 HD
ENDBRANCH   1  13
TORSDOF 1
ENDMDL
