MODEL 1
REMARK VINA RESULT:     -10.5      0.000      0.000
REMARK  Name = *****
REMARK                            x       y       z     vdW  Elec       q    Type
REMARK                         _______ _______ _______ _____ _____    ______ ____
ROOT
ATOM      1  C   LIG    1       25.751 -21.420   6.561  0.00  0.00    +0.117 C 
ENDROOT
BRANCH   1   6
ATOM      2  F   LIG    1       31.097 -19.193   6.656  0.00  0.00    -0.205 F 
ATOM      3  C   LIG    1       29.857 -19.694   6.638  0.00  0.00    +0.123 A 
ATOM      4  C   LIG    1       28.957 -19.277   5.682  0.00  0.00    +0.039 A 
ATOM      5  C   LIG    1       27.648 -19.789   5.690  0.00  0.00    +0.008 A 
ATOM      6  C   LIG    1       27.187 -20.744   6.623  0.00  0.00    -0.026 A 
ATOM      7  C   LIG    1       28.174 -21.162   7.542  0.00  0.00    +0.008 A 
ATOM      8  C   LIG    1       29.476 -20.636   7.569  0.00  0.00    +0.039 A 
ENDBRANCH   1   6
BRANCH   1   9
ATOM      9  C   LIG    1       24.669 -20.646   5.697  0.00  0.00    -0.026 A 
ATOM     10  C   LIG    1       24.897 -20.148   4.405  0.00  0.00    +0.008 A 
ATOM     11  C   LIG    1       24.049 -19.295   3.721  0.00  0.00    +0.039 A 
ATOM     12  C   LIG    1       22.831 -19.019   4.290  0.00  0.00    +0.123 A 
ATOM     13  F   LIG    1       21.959 -18.225   3.625  0.00  0.00    -0.205 F 
ATOM     14  C   LIG    1       22.461 -19.594   5.485  0.00  0.00    +0.039 A 
ATOM     15  C   LIG    1       23.351 -20.433   6.162  0.00  0.00    +0.008 A 
ENDBRANCH   1   9
BRANCH   1  16
ATOM     16  N   LIG    1       25.721 -22.910   6.315  0.00  0.00    -0.289 NA
ATOM     17  C   LIG    1       25.826 -23.791   7.494  0.00  0.00    +0.100 C 
ATOM     18  C   LIG    1       25.849 -25.307   7.161  0.00  0.00    +0.100 C 
ATOM     19  N   LIG    1       24.817 -25.775   6.226  0.00  0.00    -0.296 NA
ATOM     20  C   LIG    1       23.914 -24.653   5.915  0.00  0.00    +0.100 C 
ATOM     21  C   LIG    1       24.663 -23.386   5.387  0.00  0.00    +0.100 C 
BRANCH  19  22
ATOM     22  C   LIG    1       25.433 -26.333   5.014  0.00  0.00    +0.112 C 
BRANCH  22  23
ATOM     23  C   LIG    1       25.495 -27.819   5.117  0.00  0.00    -0.011 C 
ATOM     24  C   LIG    1       24.787 -28.562   6.001  0.00  0.00    +0.005 C 
BRANCH  24  25
ATOM     25  C   LIG    1       24.908 -30.014   6.064  0.00  0.00    -0.025 A 
ATOM     26  C   LIG    1       25.630 -30.749   5.098  0.00  0.00    +0.008 A 
ATOM     27  C   LIG    1       25.681 -32.143   5.183  0.00  0.00    +0.001 A 
ATOM     28  C   LIG    1       25.048 -32.819   6.232  0.00  0.00    +0.000 A 
ATOM     29  C   LIG    1       24.365 -32.089   7.203  0.00  0.00    +0.001 A 
ATOM     30  C   LIG    1       24.300 -30.699   7.129  0.00  0.00    +0.008 A 
ENDBRANCH  24  25
ENDBRANCH  22  23
ENDBRANCH  19  22
ENDBRANCH   1  16
TORSDOF 6
ENDMDL
MODEL 2
REMARK VINA RESULT:     -10.5      0.304      1.266
REMARK  Name = *****
REMARK                            x       y       z     vdW  Elec       q    Type
REMARK                         _______ _______ _______ _____ _____    ______ ____
ROOT
ATOM      1  C   LIG    1       25.628 -21.527   6.491  0.00  0.00    +0.117 C 
ENDROOT
BRANCH   1   6
ATOM      2  F   LIG    1       30.900 -19.142   6.748  0.00  0.00    -0.205 F 
ATOM      3  C   LIG    1       29.689 -19.706   6.684  0.00  0.00    +0.123 A 
ATOM      4  C   LIG    1       29.334 -20.687   7.585  0.00  0.00    +0.039 A 
ATOM      5  C   LIG    1       28.070 -21.292   7.490  0.00  0.00    +0.008 A 
ATOM      6  C   LIG    1       27.102 -20.938   6.524  0.00  0.00    -0.026 A 
ATOM      7  C   LIG    1       27.513 -19.894   5.667  0.00  0.00    +0.008 A 
ATOM      8  C   LIG    1       28.786 -19.303   5.725  0.00  0.00    +0.039 A 
ENDBRANCH   1   6
BRANCH   1   9
ATOM      9  C   LIG    1       24.579 -20.695   5.643  0.00  0.00    -0.026 A 
ATOM     10  C   LIG    1       24.787 -20.273   4.321  0.00  0.00    +0.008 A 
ATOM     11  C   LIG    1       23.986 -19.376   3.638  0.00  0.00    +0.039 A 
ATOM     12  C   LIG    1       22.826 -18.967   4.248  0.00  0.00    +0.123 A 
ATOM     13  F   LIG    1       21.997 -18.125   3.587  0.00  0.00    -0.205 F 
ATOM     14  C   LIG    1       22.465 -19.457   5.483  0.00  0.00    +0.039 A 
ATOM     15  C   LIG    1       23.309 -20.345   6.156  0.00  0.00    +0.008 A 
ENDBRANCH   1   9
BRANCH   1  16
ATOM     16  N   LIG    1       25.506 -23.014   6.255  0.00  0.00    -0.289 NA
ATOM     17  C   LIG    1       25.966 -23.910   7.333  0.00  0.00    +0.100 C 
ATOM     18  C   LIG    1       25.867 -25.423   6.996  0.00  0.00    +0.100 C 
ATOM     19  N   LIG    1       24.587 -25.871   6.429  0.00  0.00    -0.296 NA
ATOM     20  C   LIG    1       23.646 -24.738   6.428  0.00  0.00    +0.100 C 
ATOM     21  C   LIG    1       24.205 -23.471   5.702  0.00  0.00    +0.100 C 
BRANCH  19  22
ATOM     22  C   LIG    1       24.785 -26.419   5.081  0.00  0.00    +0.112 C 
BRANCH  22  23
ATOM     23  C   LIG    1       25.015 -27.890   5.162  0.00  0.00    -0.011 C 
ATOM     24  C   LIG    1       24.431 -28.714   6.065  0.00  0.00    +0.005 C 
BRANCH  24  25
ATOM     25  C   LIG    1       24.714 -30.144   6.104  0.00  0.00    -0.025 A 
ATOM     26  C   LIG    1       24.039 -31.019   6.982  0.00  0.00    +0.008 A 
ATOM     27  C   LIG    1       24.377 -32.375   7.006  0.00  0.00    +0.001 A 
ATOM     28  C   LIG    1       25.359 -32.883   6.148  0.00  0.00    +0.000 A 
ATOM     29  C   LIG    1       26.000 -32.024   5.257  0.00  0.00    +0.001 A 
ATOM     30  C   LIG    1       25.678 -30.668   5.225  0.00  0.00    +0.008 A 
ENDBRANCH  24  25
ENDBRANCH  22  23
ENDBRANCH  19  22
ENDBRANCH   1  16
TORSDOF 6
ENDMDL
MODEL 3
REMARK VINA RESULT:      -9.8      3.545      9.790
REMARK  Name = *****
REMARK                            x       y       z     vdW  Elec       q    Type
REMARK                         _______ _______ _______ _____ _____    ______ ____
ROOT
ATOM      1  C   LIG    1       25.248 -21.251   6.736  0.00  0.00    +0.117 C 
ENDROOT
BRANCH   1   6
ATOM      2  F   LIG    1       21.681 -18.263   3.287  0.00  0.00    -0.205 F 
ATOM      3  C   LIG    1       22.503 -18.942   4.094  0.00  0.00    +0.123 A 
ATOM      4  C   LIG    1       22.023 -19.506   5.256  0.00  0.00    +0.039 A 
ATOM      5  C   LIG    1       22.902 -20.193   6.110  0.00  0.00    +0.008 A 
ATOM      6  C   LIG    1       24.277 -20.370   5.840  0.00  0.00    -0.026 A 
ATOM      7  C   LIG    1       24.691 -19.810   4.612  0.00  0.00    +0.008 A 
ATOM      8  C   LIG    1       23.832 -19.091   3.763  0.00  0.00    +0.039 A 
ENDBRANCH   1   6
BRANCH   1   9
ATOM      9  C   LIG    1       25.287 -22.797   6.383  0.00  0.00    -0.026 A 
ATOM     10  C   LIG    1       25.787 -23.790   7.238  0.00  0.00    +0.008 A 
ATOM     11  C   LIG    1       26.025 -25.104   6.875  0.00  0.00    +0.039 A 
ATOM     12  C   LIG    1       25.617 -25.503   5.626  0.00  0.00    +0.123 A 
ATOM     13  F   LIG    1       25.793 -26.793   5.257  0.00  0.00    -0.205 F 
ATOM     14  C   LIG    1       24.971 -24.629   4.780  0.00  0.00    +0.039 A 
ATOM     15  C   LIG    1       24.768 -23.301   5.169  0.00  0.00    +0.008 A 
ENDBRANCH   1   9
BRANCH   1  16
ATOM     16  N   LIG    1       26.627 -20.686   6.986  0.00  0.00    -0.289 NA
ATOM     17  C   LIG    1       27.476 -21.386   7.969  0.00  0.00    +0.100 C 
ATOM     18  C   LIG    1       28.853 -20.715   8.219  0.00  0.00    +0.100 C 
ATOM     19  N   LIG    1       29.613 -20.340   7.018  0.00  0.00    -0.296 NA
ATOM     20  C   LIG    1       28.886 -20.819   5.829  0.00  0.00    +0.100 C 
ATOM     21  C   LIG    1       27.403 -20.327   5.772  0.00  0.00    +0.100 C 
BRANCH  19  22
ATOM     22  C   LIG    1       29.829 -18.887   6.978  0.00  0.00    +0.112 C 
BRANCH  22  23
ATOM     23  C   LIG    1       30.573 -18.454   8.195  0.00  0.00    -0.011 C 
ATOM     24  C   LIG    1       30.395 -17.270   8.829  0.00  0.00    +0.005 C 
BRANCH  24  25
ATOM     25  C   LIG    1       31.171 -16.897  10.006  0.00  0.00    -0.025 A 
ATOM     26  C   LIG    1       32.292 -16.042   9.926  0.00  0.00    +0.008 A 
ATOM     27  C   LIG    1       33.025 -15.749  11.080  0.00  0.00    +0.001 A 
ATOM     28  C   LIG    1       32.643 -16.271  12.320  0.00  0.00    +0.000 A 
ATOM     29  C   LIG    1       31.516 -17.086  12.403  0.00  0.00    +0.001 A 
ATOM     30  C   LIG    1       30.778 -17.393  11.260  0.00  0.00    +0.008 A 
ENDBRANCH  24  25
ENDBRANCH  22  23
ENDBRANCH  19  22
ENDBRANCH   1  16
TORSDOF 6
ENDMDL
MODEL 4
REMARK VINA RESULT:      -9.6      1.067      4.553
REMARK  Name = *****
REMARK                            x       y       z     vdW  Elec       q    Type
REMARK                         _______ _______ _______ _____ _____    ______ ____
ROOT
ATOM      1  C   LIG    1       25.827 -21.151   5.240  0.00  0.00    +0.117 C 
ENDROOT
BRANCH   1   6
ATOM      2  F   LIG    1       21.216 -17.859   4.035  0.00  0.00    -0.205 F 
ATOM      3  C   LIG    1       22.283 -18.610   4.325  0.00  0.00    +0.123 A 
ATOM      4  C   LIG    1       22.278 -19.418   5.442  0.00  0.00    +0.039 A 
ATOM      5  C   LIG    1       23.416 -20.181   5.752  0.00  0.00    +0.008 A 
ATOM      6  C   LIG    1       24.588 -20.196   4.964  0.00  0.00    -0.026 A 
ATOM      7  C   LIG    1       24.507 -19.386   3.811  0.00  0.00    +0.008 A 
ATOM      8  C   LIG    1       23.391 -18.590   3.505  0.00  0.00    +0.039 A 
ENDBRANCH   1   6
BRANCH   1   9
ATOM      9  C   LIG    1       26.947 -20.559   6.194  0.00  0.00    -0.026 A 
ATOM     10  C   LIG    1       28.183 -20.066   5.751  0.00  0.00    +0.008 A 
ATOM     11  C   LIG    1       29.250 -19.743   6.571  0.00  0.00    +0.039 A 
ATOM     12  C   LIG    1       29.041 -19.779   7.928  0.00  0.00    +0.123 A 
ATOM     13  F   LIG    1       30.051 -19.424   8.758  0.00  0.00    -0.205 F 
ATOM     14  C   LIG    1       27.807 -20.099   8.446  0.00  0.00    +0.039 A 
ATOM     15  C   LIG    1       26.757 -20.444   7.590  0.00  0.00    +0.008 A 
ENDBRANCH   1   9
BRANCH   1  16
ATOM     16  N   LIG    1       25.505 -22.592   5.560  0.00  0.00    -0.289 NA
ATOM     17  C   LIG    1       26.072 -23.151   6.802  0.00  0.00    +0.100 C 
ATOM     18  C   LIG    1       25.749 -24.652   7.035  0.00  0.00    +0.100 C 
ATOM     19  N   LIG    1       24.343 -25.041   6.860  0.00  0.00    -0.296 NA
ATOM     20  C   LIG    1       23.544 -23.830   6.603  0.00  0.00    +0.100 C 
ATOM     21  C   LIG    1       24.079 -22.980   5.404  0.00  0.00    +0.100 C 
BRANCH  19  22
ATOM     22  C   LIG    1       24.212 -26.023   5.775  0.00  0.00    +0.112 C 
BRANCH  22  23
ATOM     23  C   LIG    1       24.855 -27.306   6.175  0.00  0.00    -0.011 C 
ATOM     24  C   LIG    1       24.361 -28.538   5.901  0.00  0.00    +0.005 C 
BRANCH  24  25
ATOM     25  C   LIG    1       25.031 -29.756   6.339  0.00  0.00    -0.025 A 
ATOM     26  C   LIG    1       25.236 -30.050   7.705  0.00  0.00    +0.008 A 
ATOM     27  C   LIG    1       25.920 -31.214   8.069  0.00  0.00    +0.001 A 
ATOM     28  C   LIG    1       26.379 -32.107   7.095  0.00  0.00    +0.000 A 
ATOM     29  C   LIG    1       26.144 -31.833   5.749  0.00  0.00    +0.001 A 
ATOM     30  C   LIG    1       25.470 -30.674   5.370  0.00  0.00    +0.008 A 
ENDBRANCH  24  25
ENDBRANCH  22  23
ENDBRANCH  19  22
ENDBRANCH   1  16
TORSDOF 6
ENDMDL
MODEL 5
REMARK VINA RESULT:      -9.3      3.679      9.511
REMARK  Name = *****
REMARK                            x       y       z     vdW  Elec       q    Type
REMARK                         _______ _______ _______ _____ _____    ______ ____
ROOT
ATOM      1  C   LIG    1       25.623 -21.706   5.504  0.00  0.00    +0.117 C 
ENDROOT
BRANCH   1   6
ATOM      2  F   LIG    1       24.050 -27.135   6.770  0.00  0.00    -0.205 F 
ATOM      3  C   LIG    1       24.421 -25.882   6.490  0.00  0.00    +0.123 A 
ATOM      4  C   LIG    1       25.735 -25.601   6.184  0.00  0.00    +0.039 A 
ATOM      5  C   LIG    1       26.119 -24.275   5.921  0.00  0.00    +0.008 A 
ATOM      6  C   LIG    1       25.221 -23.184   5.924  0.00  0.00    -0.026 A 
ATOM      7  C   LIG    1       23.885 -23.550   6.197  0.00  0.00    +0.008 A 
ATOM      8  C   LIG    1       23.491 -24.865   6.497  0.00  0.00    +0.039 A 
ENDBRANCH   1   6
BRANCH   1   9
ATOM      9  C   LIG    1       24.423 -20.777   5.044  0.00  0.00    -0.026 A 
ATOM     10  C   LIG    1       24.219 -20.342   3.727  0.00  0.00    +0.008 A 
ATOM     11  C   LIG    1       23.312 -19.370   3.342  0.00  0.00    +0.039 A 
ATOM     12  C   LIG    1       22.452 -18.890   4.298  0.00  0.00    +0.123 A 
ATOM     13  F   LIG    1       21.522 -17.972   3.944  0.00  0.00    -0.205 F 
ATOM     14  C   LIG    1       22.478 -19.380   5.584  0.00  0.00    +0.039 A 
ATOM     15  C   LIG    1       23.423 -20.345   5.946  0.00  0.00    +0.008 A 
ENDBRANCH   1   9
BRANCH   1  16
ATOM     16  N   LIG    1       26.587 -20.988   6.419  0.00  0.00    -0.289 NA
ATOM     17  C   LIG    1       26.702 -21.486   7.803  0.00  0.00    +0.100 C 
ATOM     18  C   LIG    1       27.664 -20.663   8.702  0.00  0.00    +0.100 C 
ATOM     19  N   LIG    1       28.981 -20.360   8.124  0.00  0.00    -0.296 NA
ATOM     20  C   LIG    1       29.096 -21.040   6.822  0.00  0.00    +0.100 C 
ATOM     21  C   LIG    1       27.926 -20.701   5.843  0.00  0.00    +0.100 C 
BRANCH  19  22
ATOM     22  C   LIG    1       29.168 -18.908   8.000  0.00  0.00    +0.112 C 
BRANCH  22  23
ATOM     23  C   LIG    1       29.909 -18.391   9.186  0.00  0.00    -0.011 C 
ATOM     24  C   LIG    1       30.604 -17.228   9.216  0.00  0.00    +0.005 C 
BRANCH  24  25
ATOM     25  C   LIG    1       31.326 -16.788  10.404  0.00  0.00    -0.025 A 
ATOM     26  C   LIG    1       32.337 -15.804  10.347  0.00  0.00    +0.008 A 
ATOM     27  C   LIG    1       33.025 -15.448  11.510  0.00  0.00    +0.001 A 
ATOM     28  C   LIG    1       32.704 -16.036  12.739  0.00  0.00    +0.000 A 
ATOM     29  C   LIG    1       31.682 -16.982  12.799  0.00  0.00    +0.001 A 
ATOM     30  C   LIG    1       30.991 -17.352  11.647  0.00  0.00    +0.008 A 
ENDBRANCH  24  25
ENDBRANCH  22  23
ENDBRANCH  19  22
ENDBRANCH   1  16
TORSDOF 6
ENDMDL
MODEL 6
REMARK VINA RESULT:      -9.0      4.441     10.297
REMARK  Name = *****
REMARK                            x       y       z     vdW  Elec       q    Type
REMARK                         _______ _______ _______ _____ _____    ______ ____
ROOT
ATOM      1  C   LIG    1       24.682 -29.544   7.258  0.00  0.00    +0.117 C 
ENDROOT
BRANCH   1   6
ATOM      2  F   LIG    1       27.380 -33.762   4.345  0.00  0.00    -0.205 F 
ATOM      3  C   LIG    1       26.749 -32.798   5.025  0.00  0.00    +0.123 A 
ATOM      4  C   LIG    1       26.990 -32.631   6.372  0.00  0.00    +0.039 A 
ATOM      5  C   LIG    1       26.300 -31.635   7.082  0.00  0.00    +0.008 A 
ATOM      6  C   LIG    1       25.369 -30.752   6.490  0.00  0.00    -0.026 A 
ATOM      7  C   LIG    1       25.208 -30.947   5.101  0.00  0.00    +0.008 A 
ATOM      8  C   LIG    1       25.864 -31.961   4.382  0.00  0.00    +0.039 A 
ENDBRANCH   1   6
BRANCH   1   9
ATOM      9  C   LIG    1       24.537 -29.727   8.827  0.00  0.00    -0.026 A 
ATOM     10  C   LIG    1       23.425 -30.306   9.456  0.00  0.00    +0.008 A 
ATOM     11  C   LIG    1       23.183 -30.286  10.818  0.00  0.00    +0.039 A 
ATOM     12  C   LIG    1       24.167 -29.781  11.631  0.00  0.00    +0.123 A 
ATOM     13  F   LIG    1       23.980 -29.789  12.972  0.00  0.00    -0.205 F 
ATOM     14  C   LIG    1       25.359 -29.336  11.106  0.00  0.00    +0.039 A 
ATOM     15  C   LIG    1       25.562 -29.348   9.723  0.00  0.00    +0.008 A 
ENDBRANCH   1   9
BRANCH   1  16
ATOM     16  N   LIG    1       25.152 -28.158   6.884  0.00  0.00    -0.289 NA
ATOM     17  C   LIG    1       26.299 -28.060   5.960  0.00  0.00    +0.100 C 
ATOM     18  C   LIG    1       26.764 -26.608   5.668  0.00  0.00    +0.100 C 
ATOM     19  N   LIG    1       25.704 -25.652   5.319  0.00  0.00    -0.296 NA
ATOM     20  C   LIG    1       24.425 -26.376   5.223  0.00  0.00    +0.100 C 
ATOM     21  C   LIG    1       24.083 -27.197   6.509  0.00  0.00    +0.100 C 
BRANCH  19  22
ATOM     22  C   LIG    1       25.645 -24.565   6.305  0.00  0.00    +0.112 C 
BRANCH  22  23
ATOM     23  C   LIG    1       25.206 -23.304   5.641  0.00  0.00    -0.011 C 
ATOM     24  C   LIG    1       24.319 -22.424   6.165  0.00  0.00    +0.005 C 
BRANCH  24  25
ATOM     25  C   LIG    1       23.916 -21.216   5.453  0.00  0.00    -0.025 A 
ATOM     26  C   LIG    1       22.820 -20.430   5.871  0.00  0.00    +0.008 A 
ATOM     27  C   LIG    1       22.453 -19.303   5.129  0.00  0.00    +0.001 A 
ATOM     28  C   LIG    1       23.176 -18.928   3.992  0.00  0.00    +0.000 A 
ATOM     29  C   LIG    1       24.279 -19.686   3.602  0.00  0.00    +0.001 A 
ATOM     30  C   LIG    1       24.655 -20.815   4.327  0.00  0.00    +0.008 A 
ENDBRANCH  24  25
ENDBRANCH  22  23
ENDBRANCH  19  22
ENDBRANCH   1  16
TORSDOF 6
ENDMDL
MODEL 7
REMARK VINA RESULT:      -8.7      4.857      9.876
REMARK  Name = *****
REMARK                            x       y       z     vdW  Elec       q    Type
REMARK                         _______ _______ _______ _____ _____    ______ ____
ROOT
ATOM      1  C   LIG    1       25.297 -31.017   9.163  0.00  0.00    +0.117 C 
ENDROOT
BRANCH   1   6
ATOM      2  F   LIG    1       28.231 -28.926  13.698  0.00  0.00    -0.205 F 
ATOM      3  C   LIG    1       27.559 -29.422  12.654  0.00  0.00    +0.123 A 
ATOM      4  C   LIG    1       26.486 -30.263  12.859  0.00  0.00    +0.039 A 
ATOM      5  C   LIG    1       25.805 -30.801  11.754  0.00  0.00    +0.008 A 
ATOM      6  C   LIG    1       26.139 -30.514  10.412  0.00  0.00    -0.026 A 
ATOM      7  C   LIG    1       27.215 -29.609  10.276  0.00  0.00    +0.008 A 
ATOM      8  C   LIG    1       27.928 -29.089  11.369  0.00  0.00    +0.039 A 
ENDBRANCH   1   6
BRANCH   1   9
ATOM      9  C   LIG    1       23.769 -31.330   9.451  0.00  0.00    -0.026 A 
ATOM     10  C   LIG    1       22.879 -30.432  10.059  0.00  0.00    +0.008 A 
ATOM     11  C   LIG    1       21.611 -30.753  10.509  0.00  0.00    +0.039 A 
ATOM     12  C   LIG    1       21.132 -32.008  10.220  0.00  0.00    +0.123 A 
ATOM     13  F   LIG    1       19.878 -32.337  10.606  0.00  0.00    -0.205 F 
ATOM     14  C   LIG    1       21.882 -32.899   9.487  0.00  0.00    +0.039 A 
ATOM     15  C   LIG    1       23.170 -32.551   9.068  0.00  0.00    +0.008 A 
ENDBRANCH   1   9
BRANCH   1  16
ATOM     16  N   LIG    1       25.493 -30.257   7.872  0.00  0.00    -0.289 NA
ATOM     17  C   LIG    1       25.379 -31.020   6.614  0.00  0.00    +0.100 C 
ATOM     18  C   LIG    1       25.651 -30.187   5.332  0.00  0.00    +0.100 C 
ATOM     19  N   LIG    1       24.956 -28.895   5.246  0.00  0.00    -0.296 NA
ATOM     20  C   LIG    1       24.052 -28.765   6.402  0.00  0.00    +0.100 C 
ATOM     21  C   LIG    1       24.773 -28.961   7.775  0.00  0.00    +0.100 C 
BRANCH  19  22
ATOM     22  C   LIG    1       25.925 -27.792   5.183  0.00  0.00    +0.112 C 
BRANCH  22  23
ATOM     23  C   LIG    1       25.251 -26.508   5.528  0.00  0.00    -0.011 C 
ATOM     24  C   LIG    1       25.707 -25.618   6.441  0.00  0.00    +0.005 C 
BRANCH  24  25
ATOM     25  C   LIG    1       24.988 -24.386   6.747  0.00  0.00    -0.025 A 
ATOM     26  C   LIG    1       25.645 -23.234   7.232  0.00  0.00    +0.008 A 
ATOM     27  C   LIG    1       24.902 -22.093   7.546  0.00  0.00    +0.001 A 
ATOM     28  C   LIG    1       23.515 -22.068   7.360  0.00  0.00    +0.000 A 
ATOM     29  C   LIG    1       22.873 -23.195   6.849  0.00  0.00    +0.001 A 
ATOM     30  C   LIG    1       23.599 -24.342   6.536  0.00  0.00    +0.008 A 
ENDBRANCH  24  25
ENDBRANCH  22  23
ENDBRANCH  19  22
ENDBRANCH   1  16
TORSDOF 6
ENDMDL
MODEL 8
REMARK VINA RESULT:      -8.5      4.946      9.849
REMARK  Name = *****
REMARK                            x       y       z     vdW  Elec       q    Type
REMARK                         _______ _______ _______ _____ _____    ______ ____
ROOT
ATOM      1  C   LIG    1       25.069 -30.018   9.428  0.00  0.00    +0.117 C 
ENDROOT
BRANCH   1   6
ATOM      2  F   LIG    1       27.935 -28.237  14.136  0.00  0.00    -0.205 F 
ATOM      3  C   LIG    1       27.265 -28.657  13.058  0.00  0.00    +0.123 A 
ATOM      4  C   LIG    1       25.945 -28.303  12.883  0.00  0.00    +0.039 A 
ATOM      5  C   LIG    1       25.242 -28.774  11.760  0.00  0.00    +0.008 A 
ATOM      6  C   LIG    1       25.819 -29.588  10.760  0.00  0.00    -0.026 A 
ATOM      7  C   LIG    1       27.185 -29.871  10.977  0.00  0.00    +0.008 A 
ATOM      8  C   LIG    1       27.892 -29.437  12.111  0.00  0.00    +0.039 A 
ENDBRANCH   1   6
BRANCH   1   9
ATOM      9  C   LIG    1       23.670 -30.736   9.633  0.00  0.00    -0.026 A 
ATOM     10  C   LIG    1       22.555 -30.138  10.237  0.00  0.00    +0.008 A 
ATOM     11  C   LIG    1       21.403 -30.804  10.615  0.00  0.00    +0.039 A 
ATOM     12  C   LIG    1       21.284 -32.124  10.253  0.00  0.00    +0.123 A 
ATOM     13  F   LIG    1       20.150 -32.792  10.568  0.00  0.00    -0.205 F 
ATOM     14  C   LIG    1       22.267 -32.747   9.518  0.00  0.00    +0.039 A 
ATOM     15  C   LIG    1       23.429 -32.051   9.173  0.00  0.00    +0.008 A 
ENDBRANCH   1   9
BRANCH   1  16
ATOM     16  N   LIG    1       25.029 -28.991   8.321  0.00  0.00    -0.289 NA
ATOM     17  C   LIG    1       26.279 -28.263   8.029  0.00  0.00    +0.100 C 
ATOM     18  C   LIG    1       26.148 -27.183   6.921  0.00  0.00    +0.100 C 
ATOM     19  N   LIG    1       25.468 -27.606   5.689  0.00  0.00    -0.296 NA
ATOM     20  C   LIG    1       25.168 -29.045   5.783  0.00  0.00    +0.100 C 
ATOM     21  C   LIG    1       24.361 -29.426   7.066  0.00  0.00    +0.100 C 
BRANCH  19  22
ATOM     22  C   LIG    1       24.253 -26.808   5.470  0.00  0.00    +0.112 C 
BRANCH  22  23
ATOM     23  C   LIG    1       24.508 -25.388   5.845  0.00  0.00    -0.011 C 
ATOM     24  C   LIG    1       23.670 -24.621   6.584  0.00  0.00    +0.005 C 
BRANCH  24  25
ATOM     25  C   LIG    1       23.970 -23.229   6.900  0.00  0.00    -0.025 A 
ATOM     26  C   LIG    1       23.005 -22.206   6.773  0.00  0.00    +0.008 A 
ATOM     27  C   LIG    1       23.357 -20.883   7.051  0.00  0.00    +0.001 A 
ATOM     28  C   LIG    1       24.649 -20.562   7.482  0.00  0.00    +0.000 A 
ATOM     29  C   LIG    1       25.590 -21.578   7.640  0.00  0.00    +0.001 A 
ATOM     30  C   LIG    1       25.256 -22.902   7.361  0.00  0.00    +0.008 A 
ENDBRANCH  24  25
ENDBRANCH  22  23
ENDBRANCH  19  22
ENDBRANCH   1  16
TORSDOF 6
ENDMDL
MODEL 9
REMARK VINA RESULT:      -8.3      4.620     10.454
REMARK  Name = *****
REMARK                            x       y       z     vdW  Elec       q    Type
REMARK                         _______ _______ _______ _____ _____    ______ ____
ROOT
ATOM      1  C   LIG    1       24.400 -30.766   7.540  0.00  0.00    +0.117 C 
ENDROOT
BRANCH   1   6
ATOM      2  F   LIG    1       29.186 -33.825   6.405  0.00  0.00    -0.205 F 
ATOM      3  C   LIG    1       28.075 -33.131   6.674  0.00  0.00    +0.123 A 
ATOM      4  C   LIG    1       27.743 -32.832   7.978  0.00  0.00    +0.039 A 
ATOM      5  C   LIG    1       26.559 -32.127   8.249  0.00  0.00    +0.008 A 
ATOM      6  C   LIG    1       25.672 -31.671   7.249  0.00  0.00    -0.026 A 
ATOM      7  C   LIG    1       26.097 -31.968   5.936  0.00  0.00    +0.008 A 
ATOM      8  C   LIG    1       27.260 -32.702   5.649  0.00  0.00    +0.039 A 
ENDBRANCH   1   6
BRANCH   1   9
ATOM      9  C   LIG    1       23.750 -30.943   8.976  0.00  0.00    -0.026 A 
ATOM     10  C   LIG    1       23.667 -29.926   9.937  0.00  0.00    +0.008 A 
ATOM     11  C   LIG    1       23.300 -30.109  11.259  0.00  0.00    +0.039 A 
ATOM     12  C   LIG    1       22.854 -31.355  11.628  0.00  0.00    +0.123 A 
ATOM     13  F   LIG    1       22.445 -31.556  12.902  0.00  0.00    -0.205 F 
ATOM     14  C   LIG    1       22.753 -32.372  10.705  0.00  0.00    +0.039 A 
ATOM     15  C   LIG    1       23.155 -32.159   9.383  0.00  0.00    +0.008 A 
ENDBRANCH   1   9
BRANCH   1  16
ATOM     16  N   LIG    1       24.502 -29.315   7.133  0.00  0.00    -0.289 NA
ATOM     17  C   LIG    1       25.750 -28.604   7.474  0.00  0.00    +0.100 C 
ATOM     18  C   LIG    1       25.760 -27.102   7.079  0.00  0.00    +0.100 C 
ATOM     19  N   LIG    1       25.319 -26.795   5.711  0.00  0.00    -0.296 NA
ATOM     20  C   LIG    1       25.072 -28.060   4.997  0.00  0.00    +0.100 C 
ATOM     21  C   LIG    1       24.077 -29.007   5.743  0.00  0.00    +0.100 C 
BRANCH  19  22
ATOM     22  C   LIG    1       24.125 -25.939   5.735  0.00  0.00    +0.112 C 
BRANCH  22  23
ATOM     23  C   LIG    1       24.416 -24.687   6.489  0.00  0.00    -0.011 C 
ATOM     24  C   LIG    1       25.461 -23.861   6.241  0.00  0.00    +0.005 C 
BRANCH  24  25
ATOM     25  C   LIG    1       25.703 -22.659   7.031  0.00  0.00    -0.025 A 
ATOM     26  C   LIG    1       24.649 -21.917   7.609  0.00  0.00    +0.008 A 
ATOM     27  C   LIG    1       24.934 -20.750   8.323  0.00  0.00    +0.001 A 
ATOM     28  C   LIG    1       26.254 -20.322   8.498  0.00  0.00    +0.000 A 
ATOM     29  C   LIG    1       27.295 -21.075   7.957  0.00  0.00    +0.001 A 
ATOM     30  C   LIG    1       27.027 -22.238   7.237  0.00  0.00    +0.008 A 
ENDBRANCH  24  25
ENDBRANCH  22  23
ENDBRANCH  19  22
ENDBRANCH   1  16
TORSDOF 6
ENDMDL
