MODEL 1
REMARK VINA RESULT:      15.5      0.000      0.000
REMARK  Name = *****
REMARK                            x       y       z     vdW  Elec       q    Type
REMARK                         _______ _______ _______ _____ _____    ______ ____
ROOT
ATOM      1  C   LIG    1       22.344 -14.829   7.061  0.00  0.00    +0.011 C 
ATOM      2  C   LIG    1       22.491 -14.681   5.550  0.00  0.00    +0.026 C 
ATOM      3  C   LIG    1       23.930 -14.386   5.035  0.00  0.00    +0.135 C 
ATOM      4  C   LIG    1       23.858 -14.934   3.565  0.00  0.00    +0.010 C 
ATOM      5  C   LIG    1       23.090 -16.276   3.730  0.00  0.00    +0.005 C 
ATOM      6  C   LIG    1       23.928 -17.546   4.083  0.00  0.00    +0.036 C 
ATOM      7  C   LIG    1       25.260 -17.660   3.289  0.00  0.00    +0.153 C 
ATOM      8  C   LIG    1       26.044 -16.334   3.364  0.00  0.00    +0.154 C 
ATOM      9  F   LIG    1       24.882 -17.800   1.964  0.00  0.00    -0.238 F 
ATOM     10  C   LIG    1       26.103 -18.969   3.668  0.00  0.00    +0.047 C 
ATOM     11  C   LIG    1       25.139 -20.047   4.182  0.00  0.00    -0.020 C 
ATOM     12  C   LIG    1       25.370 -20.819   5.259  0.00  0.00    +0.054 C 
ATOM     13  C   LIG    1       26.572 -20.634   6.095  0.00  0.00    +0.179 C 
ATOM     14  C   LIG    1       27.449 -19.494   5.764  0.00  0.00    +0.047 C 
ATOM     15  O   LIG    1       26.805 -21.359   7.052  0.00  0.00    -0.288 OA
ATOM     16  C   LIG    1       23.820 -20.072   3.474  0.00  0.00    +0.194 C 
ATOM     17  F   LIG    1       23.073 -21.156   3.825  0.00  0.00    -0.241 F 
ATOM     18  C   LIG    1       26.813 -19.544   2.410  0.00  0.00    +0.023 C 
ATOM     19  C   LIG    1       27.221 -18.738   4.681  0.00  0.00    -0.009 C 
ATOM     20  C   LIG    1       23.043 -18.812   3.851  0.00  0.00    +0.048 C 
ATOM     21  C   LIG    1       22.989 -14.004   2.659  0.00  0.00    +0.015 C 
ATOM     22  C   LIG    1       25.207 -15.156   2.858  0.00  0.00    +0.044 C 
ATOM     23  C   LIG    1       22.029 -15.957   4.807  0.00  0.00    +0.011 C 
ENDROOT
BRANCH   3  24
ATOM     24  O   LIG    1       24.853 -15.160   5.795  0.00  0.00    -0.380 OA
ATOM     25  H   LIG    1       25.742 -14.762   5.698  0.00  0.00    +0.211 HD
ENDBRANCH   3  24
BRANCH   3  26
ATOM     26  C   LIG    1       24.299 -12.871   5.127  0.00  0.00    +0.202 C 
ATOM     27  O   LIG    1       23.442 -11.985   5.044  0.00  0.00    -0.291 OA
BRANCH  26  28
ATOM     28  C   LIG    1       25.785 -12.507   5.271  0.00  0.00    +0.309 C 
BRANCH  28  29
ATOM     29  O   LIG    1       26.594 -13.551   5.803  0.00  0.00    -0.457 OA
BRANCH  29  30
ATOM     30  C   LIG    1       27.557 -14.041   4.964  0.00  0.00    +0.313 C 
ATOM     31  O   LIG    1       27.832 -15.227   4.872  0.00  0.00    -0.250 OA
BRANCH  30  32
ATOM     32  C   LIG    1       28.268 -12.905   4.207  0.00  0.00    +0.059 C 
ATOM     33  C   LIG    1       28.699 -11.854   5.239  0.00  0.00    +0.022 C 
ATOM     34  C   LIG    1       27.359 -12.231   3.165  0.00  0.00    +0.022 C 
ATOM     35  C   LIG    1       29.475 -13.480   3.447  0.00  0.00    +0.022 C 
ENDBRANCH  30  32
ENDBRANCH  29  30
ENDBRANCH  28  29
ENDBRANCH  26  28
ENDBRANCH   3  26
BRANCH   8  36
ATOM     36  O   LIG    1       27.233 -16.384   2.568  0.00  0.00    -0.389 OA
ATOM     37  H   LIG    1       27.845 -15.712   2.924  0.00  0.00    +0.210 HD
ENDBRANCH   8  36
TORSDOF 7
ENDMDL
MODEL 2
REMARK VINA RESULT:      17.3      2.083      7.149
REMARK  Name = *****
REMARK                            x       y       z     vdW  Elec       q    Type
REMARK                         _______ _______ _______ _____ _____    ______ ____
ROOT
ATOM      1  C   LIG    1       28.752 -18.983   7.061  0.00  0.00    +0.011 C 
ATOM      2  C   LIG    1       28.207 -19.347   5.684  0.00  0.00    +0.026 C 
ATOM      3  C   LIG    1       26.658 -19.442   5.571  0.00  0.00    +0.135 C 
ATOM      4  C   LIG    1       26.435 -19.168   4.041  0.00  0.00    +0.010 C 
ATOM      5  C   LIG    1       27.407 -17.990   3.752  0.00  0.00    +0.005 C 
ATOM      6  C   LIG    1       26.881 -16.542   4.011  0.00  0.00    +0.036 C 
ATOM      7  C   LIG    1       25.423 -16.308   3.525  0.00  0.00    +0.153 C 
ATOM      8  C   LIG    1       24.499 -17.428   4.044  0.00  0.00    +0.154 C 
ATOM      9  F   LIG    1       25.469 -16.464   2.150  0.00  0.00    -0.238 F 
ATOM     10  C   LIG    1       24.904 -14.818   3.802  0.00  0.00    +0.047 C 
ATOM     11  C   LIG    1       26.113 -13.874   3.857  0.00  0.00    -0.020 C 
ATOM     12  C   LIG    1       26.279 -12.906   4.776  0.00  0.00    +0.054 C 
ATOM     13  C   LIG    1       25.314 -12.716   5.876  0.00  0.00    +0.179 C 
ATOM     14  C   LIG    1       24.224 -13.706   5.989  0.00  0.00    +0.047 C 
ATOM     15  O   LIG    1       25.439 -11.812   6.690  0.00  0.00    -0.288 OA
ATOM     16  C   LIG    1       27.199 -14.220   2.885  0.00  0.00    +0.194 C 
ATOM     17  F   LIG    1       28.162 -13.257   2.832  0.00  0.00    -0.241 F 
ATOM     18  C   LIG    1       23.990 -14.333   2.642  0.00  0.00    +0.023 C 
ATOM     19  C   LIG    1       24.058 -14.660   5.063  0.00  0.00    -0.009 C 
ATOM     20  C   LIG    1       27.854 -15.526   3.334  0.00  0.00    +0.048 C 
ATOM     21  C   LIG    1       26.901 -20.384   3.178  0.00  0.00    +0.015 C 
ATOM     22  C   LIG    1       24.998 -18.812   3.619  0.00  0.00    +0.044 C 
ATOM     23  C   LIG    1       28.648 -18.324   4.610  0.00  0.00    +0.011 C 
ENDROOT
BRANCH   3  24
ATOM     24  O   LIG    1       26.081 -18.391   6.340  0.00  0.00    -0.380 OA
ATOM     25  H   LIG    1       26.481 -18.407   7.233  0.00  0.00    +0.211 HD
ENDBRANCH   3  24
BRANCH   3  26
ATOM     26  C   LIG    1       26.106 -20.822   6.053  0.00  0.00    +0.202 C 
ATOM     27  O   LIG    1       26.556 -21.390   7.054  0.00  0.00    -0.291 OA
BRANCH  26  28
ATOM     28  C   LIG    1       25.012 -21.488   5.206  0.00  0.00    +0.309 C 
BRANCH  28  29
ATOM     29  O   LIG    1       23.738 -21.551   5.839  0.00  0.00    -0.457 OA
BRANCH  29  30
ATOM     30  C   LIG    1       22.988 -20.408   5.780  0.00  0.00    +0.313 C 
ATOM     31  O   LIG    1       23.085 -19.495   6.584  0.00  0.00    -0.250 OA
BRANCH  30  32
ATOM     32  C   LIG    1       21.985 -20.460   4.613  0.00  0.00    +0.059 C 
ATOM     33  C   LIG    1       20.969 -21.569   4.917  0.00  0.00    +0.022 C 
ATOM     34  C   LIG    1       22.664 -20.766   3.267  0.00  0.00    +0.022 C 
ATOM     35  C   LIG    1       21.303 -19.089   4.471  0.00  0.00    +0.022 C 
ENDBRANCH  30  32
ENDBRANCH  29  30
ENDBRANCH  28  29
ENDBRANCH  26  28
ENDBRANCH   3  26
BRANCH   8  36
ATOM     36  O   LIG    1       23.166 -17.284   3.537  0.00  0.00    -0.389 OA
ATOM     37  H   LIG    1       22.998 -16.327   3.442  0.00  0.00    +0.210 HD
ENDBRANCH   8  36
TORSDOF 7
ENDMDL
