MODEL 1
REMARK VINA RESULT:      -3.3      0.000      0.000
REMARK  Name = *****
REMARK                            x       y       z     vdW  Elec       q    Type
REMARK                         _______ _______ _______ _____ _____    ______ ____
ROOT
ATOM      1  O   LIG    1       23.811 -13.868   4.390  0.00  0.00    -0.265 OA
ATOM      2  C   LIG    1       23.999 -15.066   4.211  0.00  0.00    +0.289 C 
ATOM      3  C   LIG    1       23.009 -16.093   4.576  0.00  0.00    +0.204 C 
ATOM      4  F   LIG    1       21.864 -15.685   5.151  0.00  0.00    -0.198 F 
ATOM      5  C   LIG    1       23.263 -17.377   4.325  0.00  0.00    +0.137 C 
ATOM      6  N   LIG    1       24.444 -17.788   3.731  0.00  0.00    -0.271 N 
ATOM      7  C   LIG    1       25.445 -16.873   3.405  0.00  0.00    +0.332 C 
ATOM      8  O   LIG    1       26.528 -17.189   2.922  0.00  0.00    -0.246 OA
ATOM      9  N   LIG    1       25.155 -15.554   3.660  0.00  0.00    -0.273 N 
ATOM     10  H   LIG    1       25.858 -14.878   3.406  0.00  0.00    +0.173 HD
ENDROOT
BRANCH   6  11
ATOM     11  C1* LIG    1       24.713 -19.195   3.440  0.00  0.00    +0.226 C 
ATOM     12  O4* LIG    1       23.545 -19.992   3.722  0.00  0.00    -0.348 OA
ATOM     13  C4* LIG    1       23.907 -20.992   4.700  0.00  0.00    +0.175 C 
ATOM     14  C3* LIG    1       25.162 -20.475   5.386  0.00  0.00    +0.150 C 
ATOM     15  C2* LIG    1       25.869 -19.775   4.249  0.00  0.00    +0.088 C 
BRANCH  14  16
ATOM     16  O3* LIG    1       25.948 -21.499   5.968  0.00  0.00    -0.389 OA
ATOM     17  H3* LIG    1       26.779 -21.118   6.302  0.00  0.00    +0.210 HD
ENDBRANCH  14  16
BRANCH  13  18
ATOM     18  C5* LIG    1       22.736 -21.202   5.656  0.00  0.00    +0.190 C 
BRANCH  18  19
ATOM     19  O5* LIG    1       23.154 -20.920   6.992  0.00  0.00    -0.392 OA
ATOM     20  H5* LIG    1       22.994 -21.736   7.505  0.00  0.00    +0.209 HD
ENDBRANCH  18  19
ENDBRANCH  13  18
ENDBRANCH   6  11
TORSDOF 4
ENDMDL
MODEL 2
REMARK VINA RESULT:      -3.1      3.229      6.412
REMARK  Name = *****
REMARK                            x       y       z     vdW  Elec       q    Type
REMARK                         _______ _______ _______ _____ _____    ______ ____
ROOT
ATOM      1  O   LIG    1       27.878 -20.439   5.561  0.00  0.00    -0.265 OA
ATOM      2  C   LIG    1       27.505 -19.408   5.014  0.00  0.00    +0.289 C 
ATOM      3  C   LIG    1       28.300 -18.168   5.016  0.00  0.00    +0.204 C 
ATOM      4  F   LIG    1       29.474 -18.178   5.673  0.00  0.00    -0.198 F 
ATOM      5  C   LIG    1       27.850 -17.091   4.375  0.00  0.00    +0.137 C 
ATOM      6  N   LIG    1       26.642 -17.091   3.700  0.00  0.00    -0.271 N 
ATOM      7  C   LIG    1       25.816 -18.215   3.698  0.00  0.00    +0.332 C 
ATOM      8  O   LIG    1       24.715 -18.252   3.157  0.00  0.00    -0.246 OA
ATOM      9  N   LIG    1       26.307 -19.318   4.355  0.00  0.00    -0.273 N 
ATOM     10  H   LIG    1       25.732 -20.147   4.340  0.00  0.00    +0.173 HD
ENDROOT
BRANCH   6  11
ATOM     11  C1* LIG    1       26.158 -15.914   2.980  0.00  0.00    +0.226 C 
ATOM     12  O4* LIG    1       27.230 -14.963   2.808  0.00  0.00    -0.348 OA
ATOM     13  C4* LIG    1       26.831 -13.718   3.421  0.00  0.00    +0.175 C 
ATOM     14  C3* LIG    1       25.727 -14.069   4.408  0.00  0.00    +0.150 C 
ATOM     15  C2* LIG    1       25.017 -15.192   3.690  0.00  0.00    +0.088 C 
BRANCH  14  16
ATOM     16  O3* LIG    1       24.869 -12.982   4.702  0.00  0.00    -0.389 OA
ATOM     17  H3* LIG    1       23.943 -13.259   4.580  0.00  0.00    +0.210 HD
ENDBRANCH  14  16
BRANCH  13  18
ATOM     18  C5* LIG    1       28.047 -13.071   4.077  0.00  0.00    +0.190 C 
BRANCH  18  19
ATOM     19  O5* LIG    1       29.209 -13.331   3.290  0.00  0.00    -0.392 OA
ATOM     20  H5* LIG    1       29.948 -13.432   3.921  0.00  0.00    +0.209 HD
ENDBRANCH  18  19
ENDBRANCH  13  18
ENDBRANCH   6  11
TORSDOF 4
ENDMDL
MODEL 3
REMARK VINA RESULT:      -2.8      2.246      2.660
REMARK  Name = *****
REMARK                            x       y       z     vdW  Elec       q    Type
REMARK                         _______ _______ _______ _____ _____    ______ ____
ROOT
ATOM      1  O   LIG    1       27.913 -14.287   3.993  0.00  0.00    -0.265 OA
ATOM      2  C   LIG    1       27.391 -15.393   3.916  0.00  0.00    +0.289 C 
ATOM      3  C   LIG    1       26.044 -15.604   3.357  0.00  0.00    +0.204 C 
ATOM      4  F   LIG    1       25.362 -14.523   2.939  0.00  0.00    -0.198 F 
ATOM      5  C   LIG    1       25.547 -16.837   3.274  0.00  0.00    +0.137 C 
ATOM      6  N   LIG    1       26.257 -17.944   3.705  0.00  0.00    -0.271 N 
ATOM      7  C   LIG    1       27.516 -17.812   4.289  0.00  0.00    +0.332 C 
ATOM      8  O   LIG    1       28.166 -18.754   4.731  0.00  0.00    -0.246 OA
ATOM      9  N   LIG    1       28.015 -16.532   4.352  0.00  0.00    -0.273 N 
ATOM     10  H   LIG    1       28.935 -16.424   4.748  0.00  0.00    +0.173 HD
ENDROOT
BRANCH   6  11
ATOM     11  C1* LIG    1       25.718 -19.299   3.595  0.00  0.00    +0.226 C 
ATOM     12  O4* LIG    1       24.293 -19.249   3.372  0.00  0.00    -0.348 OA
ATOM     13  C4* LIG    1       23.644 -19.976   4.437  0.00  0.00    +0.175 C 
ATOM     14  C3* LIG    1       24.647 -20.032   5.581  0.00  0.00    +0.150 C 
ATOM     15  C2* LIG    1       25.956 -20.152   4.837  0.00  0.00    +0.088 C 
BRANCH  14  16
ATOM     16  O3* LIG    1       24.425 -21.111   6.470  0.00  0.00    -0.389 OA
ATOM     17  H3* LIG    1       25.114 -21.786   6.337  0.00  0.00    +0.210 HD
ENDBRANCH  14  16
BRANCH  13  18
ATOM     18  C5* LIG    1       22.344 -19.268   4.806  0.00  0.00    +0.190 C 
BRANCH  18  19
ATOM     19  O5* LIG    1       22.419 -17.897   4.415  0.00  0.00    -0.392 OA
ATOM     20  H5* LIG    1       21.596 -17.478   4.733  0.00  0.00    +0.209 HD
ENDBRANCH  18  19
ENDBRANCH  13  18
ENDBRANCH   6  11
TORSDOF 4
ENDMDL
MODEL 4
REMARK VINA RESULT:      -2.6      2.467      5.895
REMARK  Name = *****
REMARK                            x       y       z     vdW  Elec       q    Type
REMARK                         _______ _______ _______ _____ _____    ______ ____
ROOT
ATOM      1  O   LIG    1       25.476 -20.459   4.331  0.00  0.00    -0.265 OA
ATOM      2  C   LIG    1       25.848 -19.309   4.133  0.00  0.00    +0.289 C 
ATOM      3  C   LIG    1       24.987 -18.284   3.519  0.00  0.00    +0.204 C 
ATOM      4  F   LIG    1       23.749 -18.650   3.142  0.00  0.00    -0.198 F 
ATOM      5  C   LIG    1       25.443 -17.043   3.361  0.00  0.00    +0.137 C 
ATOM      6  N   LIG    1       26.718 -16.675   3.753  0.00  0.00    -0.271 N 
ATOM      7  C   LIG    1       27.603 -17.605   4.297  0.00  0.00    +0.332 C 
ATOM      8  O   LIG    1       28.758 -17.343   4.617  0.00  0.00    -0.246 OA
ATOM      9  N   LIG    1       27.106 -18.876   4.463  0.00  0.00    -0.273 N 
ATOM     10  H   LIG    1       27.726 -19.554   4.879  0.00  0.00    +0.173 HD
ENDROOT
BRANCH   6  11
ATOM     11  C1* LIG    1       27.210 -15.307   3.597  0.00  0.00    +0.226 C 
ATOM     12  O4* LIG    1       26.768 -14.491   4.702  0.00  0.00    -0.348 OA
ATOM     13  C4* LIG    1       26.004 -13.387   4.169  0.00  0.00    +0.175 C 
ATOM     14  C3* LIG    1       25.556 -13.815   2.780  0.00  0.00    +0.150 C 
ATOM     15  C2* LIG    1       26.738 -14.632   2.313  0.00  0.00    +0.088 C 
BRANCH  14  16
ATOM     16  O3* LIG    1       25.272 -12.727   1.920  0.00  0.00    -0.389 OA
ATOM     17  H3* LIG    1       26.083 -12.207   1.780  0.00  0.00    +0.210 HD
ENDBRANCH  14  16
BRANCH  13  18
ATOM     18  C5* LIG    1       24.845 -13.080   5.112  0.00  0.00    +0.190 C 
BRANCH  18  19
ATOM     19  O5* LIG    1       23.929 -12.193   4.471  0.00  0.00    -0.392 OA
ATOM     20  H5* LIG    1       23.146 -12.143   5.052  0.00  0.00    +0.209 HD
ENDBRANCH  18  19
ENDBRANCH  13  18
ENDBRANCH   6  11
TORSDOF 4
ENDMDL
MODEL 5
REMARK VINA RESULT:      -2.5      2.782      6.103
REMARK  Name = *****
REMARK                            x       y       z     vdW  Elec       q    Type
REMARK                         _______ _______ _______ _____ _____    ______ ____
ROOT
ATOM      1  O   LIG    1       23.650 -19.792   3.841  0.00  0.00    -0.265 OA
ATOM      2  C   LIG    1       23.917 -18.597   3.847  0.00  0.00    +0.289 C 
ATOM      3  C   LIG    1       25.205 -18.063   3.371  0.00  0.00    +0.204 C 
ATOM      4  F   LIG    1       26.125 -18.941   2.935  0.00  0.00    -0.198 F 
ATOM      5  C   LIG    1       25.420 -16.748   3.377  0.00  0.00    +0.137 C 
ATOM      6  N   LIG    1       24.466 -15.851   3.826  0.00  0.00    -0.271 N 
ATOM      7  C   LIG    1       23.245 -16.291   4.335  0.00  0.00    +0.332 C 
ATOM      8  O   LIG    1       22.385 -15.542   4.790  0.00  0.00    -0.246 OA
ATOM      9  N   LIG    1       23.039 -17.650   4.307  0.00  0.00    -0.273 N 
ATOM     10  H   LIG    1       22.150 -17.981   4.648  0.00  0.00    +0.173 HD
ENDROOT
BRANCH   6  11
ATOM     11  C1* LIG    1       24.696 -14.407   3.813  0.00  0.00    +0.226 C 
ATOM     12  O4* LIG    1       25.669 -14.069   2.802  0.00  0.00    -0.348 OA
ATOM     13  C4* LIG    1       26.772 -13.396   3.446  0.00  0.00    +0.175 C 
ATOM     14  C3* LIG    1       26.701 -13.780   4.917  0.00  0.00    +0.150 C 
ATOM     15  C2* LIG    1       25.209 -13.861   5.142  0.00  0.00    +0.088 C 
BRANCH  14  16
ATOM     16  O3* LIG    1       27.331 -12.846   5.774  0.00  0.00    -0.389 OA
ATOM     17  H3* LIG    1       27.236 -13.140   6.697  0.00  0.00    +0.210 HD
ENDBRANCH  14  16
BRANCH  13  18
ATOM     18  C5* LIG    1       28.076 -13.816   2.773  0.00  0.00    +0.190 C 
BRANCH  18  19
ATOM     19  O5* LIG    1       29.169 -13.118   3.369  0.00  0.00    -0.392 OA
ATOM     20  H5* LIG    1       29.494 -12.494   2.692  0.00  0.00    +0.209 HD
ENDBRANCH  18  19
ENDBRANCH  13  18
ENDBRANCH   6  11
TORSDOF 4
ENDMDL
MODEL 6
REMARK VINA RESULT:      -2.3      2.484      5.793
REMARK  Name = *****
REMARK                            x       y       z     vdW  Elec       q    Type
REMARK                         _______ _______ _______ _____ _____    ______ ____
ROOT
ATOM      1  O   LIG    1       25.365 -20.808   4.906  0.00  0.00    -0.265 OA
ATOM      2  C   LIG    1       25.766 -19.724   4.500  0.00  0.00    +0.289 C 
ATOM      3  C   LIG    1       24.941 -18.825   3.675  0.00  0.00    +0.204 C 
ATOM      4  F   LIG    1       23.705 -19.237   3.341  0.00  0.00    -0.198 F 
ATOM      5  C   LIG    1       25.427 -17.645   3.292  0.00  0.00    +0.137 C 
ATOM      6  N   LIG    1       26.700 -17.228   3.642  0.00  0.00    -0.271 N 
ATOM      7  C   LIG    1       27.551 -18.049   4.380  0.00  0.00    +0.332 C 
ATOM      8  O   LIG    1       28.704 -17.748   4.675  0.00  0.00    -0.246 OA
ATOM      9  N   LIG    1       27.024 -19.256   4.775  0.00  0.00    -0.273 N 
ATOM     10  H   LIG    1       27.619 -19.849   5.331  0.00  0.00    +0.173 HD
ENDROOT
BRANCH   6  11
ATOM     11  C1* LIG    1       27.224 -15.924   3.237  0.00  0.00    +0.226 C 
ATOM     12  O4* LIG    1       27.645 -15.177   4.397  0.00  0.00    -0.348 OA
ATOM     13  C4* LIG    1       26.906 -13.937   4.426  0.00  0.00    +0.175 C 
ATOM     14  C3* LIG    1       25.672 -14.160   3.564  0.00  0.00    +0.150 C 
ATOM     15  C2* LIG    1       26.211 -15.068   2.483  0.00  0.00    +0.088 C 
BRANCH  14  16
ATOM     16  O3* LIG    1       25.124 -12.962   3.046  0.00  0.00    -0.389 OA
ATOM     17  H3* LIG    1       24.443 -12.628   3.657  0.00  0.00    +0.210 HD
ENDBRANCH  14  16
BRANCH  13  18
ATOM     18  C5* LIG    1       26.578 -13.584   5.874  0.00  0.00    +0.190 C 
BRANCH  18  19
ATOM     19  O5* LIG    1       25.670 -12.483   5.904  0.00  0.00    -0.392 OA
ATOM     20  H5* LIG    1       26.219 -11.677   5.842  0.00  0.00    +0.209 HD
ENDBRANCH  18  19
ENDBRANCH  13  18
ENDBRANCH   6  11
TORSDOF 4
ENDMDL
MODEL 7
REMARK VINA RESULT:      -2.3      2.973      4.944
REMARK  Name = *****
REMARK                            x       y       z     vdW  Elec       q    Type
REMARK                         _______ _______ _______ _____ _____    ______ ____
ROOT
ATOM      1  O   LIG    1       29.277 -20.034   7.062  0.00  0.00    -0.265 OA
ATOM      2  C   LIG    1       28.319 -19.977   6.301  0.00  0.00    +0.289 C 
ATOM      3  C   LIG    1       28.248 -19.031   5.175  0.00  0.00    +0.204 C 
ATOM      4  F   LIG    1       29.278 -18.183   5.001  0.00  0.00    -0.198 F 
ATOM      5  C   LIG    1       27.189 -19.042   4.366  0.00  0.00    +0.137 C 
ATOM      6  N   LIG    1       26.135 -19.918   4.550  0.00  0.00    -0.271 N 
ATOM      7  C   LIG    1       26.114 -20.807   5.624  0.00  0.00    +0.332 C 
ATOM      8  O   LIG    1       25.183 -21.571   5.861  0.00  0.00    -0.246 OA
ATOM      9  N   LIG    1       27.222 -20.788   6.437  0.00  0.00    -0.273 N 
ATOM     10  H   LIG    1       27.234 -21.443   7.204  0.00  0.00    +0.173 HD
ENDROOT
BRANCH   6  11
ATOM     11  C1* LIG    1       24.982 -19.942   3.650  0.00  0.00    +0.226 C 
ATOM     12  O4* LIG    1       24.325 -18.658   3.652  0.00  0.00    -0.348 OA
ATOM     13  C4* LIG    1       22.954 -18.855   4.060  0.00  0.00    +0.175 C 
ATOM     14  C3* LIG    1       22.919 -20.186   4.794  0.00  0.00    +0.150 C 
ATOM     15  C2* LIG    1       23.939 -20.991   4.024  0.00  0.00    +0.088 C 
BRANCH  14  16
ATOM     16  O3* LIG    1       21.639 -20.792   4.800  0.00  0.00    -0.389 OA
ATOM     17  H3* LIG    1       20.954 -20.100   4.786  0.00  0.00    +0.210 HD
ENDBRANCH  14  16
BRANCH  13  18
ATOM     18  C5* LIG    1       22.515 -17.675   4.922  0.00  0.00    +0.190 C 
BRANCH  18  19
ATOM     19  O5* LIG    1       23.079 -16.469   4.406  0.00  0.00    -0.392 OA
ATOM     20  H5* LIG    1       24.040 -16.529   4.563  0.00  0.00    +0.209 HD
ENDBRANCH  18  19
ENDBRANCH  13  18
ENDBRANCH   6  11
TORSDOF 4
ENDMDL
MODEL 8
REMARK VINA RESULT:      -2.2      2.440      5.761
REMARK  Name = *****
REMARK                            x       y       z     vdW  Elec       q    Type
REMARK                         _______ _______ _______ _____ _____    ______ ____
ROOT
ATOM      1  O   LIG    1       25.119 -20.485   4.270  0.00  0.00    -0.265 OA
ATOM      2  C   LIG    1       25.036 -19.289   4.018  0.00  0.00    +0.289 C 
ATOM      3  C   LIG    1       23.760 -18.553   4.048  0.00  0.00    +0.204 C 
ATOM      4  F   LIG    1       22.645 -19.243   4.342  0.00  0.00    -0.198 F 
ATOM      5  C   LIG    1       23.744 -17.246   3.794  0.00  0.00    +0.137 C 
ATOM      6  N   LIG    1       24.898 -16.543   3.493  0.00  0.00    -0.271 N 
ATOM      7  C   LIG    1       26.132 -17.186   3.400  0.00  0.00    +0.332 C 
ATOM      8  O   LIG    1       27.175 -16.619   3.090  0.00  0.00    -0.246 OA
ATOM      9  N   LIG    1       26.127 -18.532   3.680  0.00  0.00    -0.273 N 
ATOM     10  H   LIG    1       27.016 -19.005   3.642  0.00  0.00    +0.173 HD
ENDROOT
BRANCH   6  11
ATOM     11  C1* LIG    1       24.881 -15.103   3.234  0.00  0.00    +0.226 C 
ATOM     12  O4* LIG    1       26.152 -14.681   2.699  0.00  0.00    -0.348 OA
ATOM     13  C4* LIG    1       26.696 -13.670   3.575  0.00  0.00    +0.175 C 
ATOM     14  C3* LIG    1       25.992 -13.847   4.912  0.00  0.00    +0.150 C 
ATOM     15  C2* LIG    1       24.606 -14.264   4.477  0.00  0.00    +0.088 C 
BRANCH  14  16
ATOM     16  O3* LIG    1       25.984 -12.674   5.704  0.00  0.00    -0.389 OA
ATOM     17  H3* LIG    1       25.069 -12.355   5.799  0.00  0.00    +0.210 HD
ENDBRANCH  14  16
BRANCH  13  18
ATOM     18  C5* LIG    1       28.210 -13.845   3.660  0.00  0.00    +0.190 C 
BRANCH  18  19
ATOM     19  O5* LIG    1       28.791 -12.690   4.266  0.00  0.00    -0.392 OA
ATOM     20  H5* LIG    1       28.273 -11.926   3.946  0.00  0.00    +0.209 HD
ENDBRANCH  18  19
ENDBRANCH  13  18
ENDBRANCH   6  11
TORSDOF 4
ENDMDL
MODEL 9
REMARK VINA RESULT:      -2.1      2.878      5.975
REMARK  Name = *****
REMARK                            x       y       z     vdW  Elec       q    Type
REMARK                         _______ _______ _______ _____ _____    ______ ____
ROOT
ATOM      1  O   LIG    1       27.795 -21.517   7.062  0.00  0.00    -0.265 OA
ATOM      2  C   LIG    1       27.348 -20.736   6.230  0.00  0.00    +0.289 C 
ATOM      3  C   LIG    1       28.081 -19.540   5.781  0.00  0.00    +0.204 C 
ATOM      4  F   LIG    1       29.283 -19.297   6.334  0.00  0.00    -0.198 F 
ATOM      5  C   LIG    1       27.551 -18.749   4.850  0.00  0.00    +0.137 C 
ATOM      6  N   LIG    1       26.315 -19.008   4.284  0.00  0.00    -0.271 N 
ATOM      7  C   LIG    1       25.545 -20.095   4.698  0.00  0.00    +0.332 C 
ATOM      8  O   LIG    1       24.424 -20.342   4.264  0.00  0.00    -0.246 OA
ATOM      9  N   LIG    1       26.118 -20.905   5.649  0.00  0.00    -0.273 N 
ATOM     10  H   LIG    1       25.584 -21.710   5.940  0.00  0.00    +0.173 HD
ENDROOT
BRANCH   6  11
ATOM     11  C1* LIG    1       25.743 -18.149   3.248  0.00  0.00    +0.226 C 
ATOM     12  O4* LIG    1       26.683 -17.116   2.886  0.00  0.00    -0.348 OA
ATOM     13  C4* LIG    1       26.057 -15.835   3.118  0.00  0.00    +0.175 C 
ATOM     14  C3* LIG    1       24.924 -16.092   4.101  0.00  0.00    +0.150 C 
ATOM     15  C2* LIG    1       24.449 -17.461   3.674  0.00  0.00    +0.088 C 
BRANCH  14  16
ATOM     16  O3* LIG    1       23.899 -15.117   4.043  0.00  0.00    -0.389 OA
ATOM     17  H3* LIG    1       23.932 -14.664   3.182  0.00  0.00    +0.210 HD
ENDBRANCH  14  16
BRANCH  13  18
ATOM     18  C5* LIG    1       27.104 -14.856   3.642  0.00  0.00    +0.190 C 
BRANCH  18  19
ATOM     19  O5* LIG    1       27.360 -13.857   2.654  0.00  0.00    -0.392 OA
ATOM     20  H5* LIG    1       28.320 -13.681   2.688  0.00  0.00    +0.209 HD
ENDBRANCH  18  19
ENDBRANCH  13  18
ENDBRANCH   6  11
TORSDOF 4
ENDMDL
