MODEL 1
REMARK VINA RESULT:       6.1      0.000      0.000
REMARK  Name = *****
REMARK                            x       y       z     vdW  Elec       q    Type
REMARK                         _______ _______ _______ _____ _____    ______ ____
ROOT
ATOM      1  CA  LIG    1       25.970 -19.715   4.553  0.00  0.00    +0.123 C 
ATOM      2  N   LIG    1       26.842 -18.737   4.207  0.00  0.00    -0.249 N 
ATOM      3  C   LIG    1       28.161 -18.529   4.745  0.00  0.00    +0.169 C 
ATOM      4  CA  LIG    1       28.076 -17.116   4.069  0.00  0.00    +0.191 C 
ATOM      5  S   LIG    1       28.239 -18.624   6.531  0.00  0.00    -0.131 S 
ATOM      6  C   LIG    1       26.736 -19.556   6.878  0.00  0.00    +0.104 C 
ATOM      7  C   LIG    1       26.961 -17.807   3.221  0.00  0.00    +0.244 C 
ATOM      8  O   LIG    1       26.376 -17.513   2.208  0.00  0.00    -0.273 OA
ATOM      9  C   LIG    1       26.091 -20.346   5.750  0.00  0.00    -0.021 C 
ENDROOT
BRANCH   4  10
ATOM     10  N   LIG    1       27.606 -15.942   4.880  0.00  0.00    -0.299 N 
ATOM     11  H   LIG    1       27.135 -16.102   5.760  0.00  0.00    +0.150 HD
ATOM     12  C   LIG    1       27.792 -14.626   4.468  0.00  0.00    +0.247 C 
ATOM     13  O   LIG    1       28.311 -14.333   3.395  0.00  0.00    -0.273 OA
BRANCH  12  14
ATOM     14  C   LIG    1       27.134 -13.571   5.364  0.00  0.00    +0.230 C 
BRANCH  14  15
ATOM     15  C   LIG    1       25.859 -12.921   4.856  0.00  0.00    -0.010 A 
ATOM     16  C   LIG    1       25.368 -13.052   3.545  0.00  0.00    +0.006 A 
ATOM     17  C   LIG    1       24.175 -12.442   3.152  0.00  0.00    +0.000 A 
ATOM     18  C   LIG    1       23.453 -11.675   4.058  0.00  0.00    +0.000 A 
ATOM     19  C   LIG    1       23.929 -11.511   5.355  0.00  0.00    +0.000 A 
ATOM     20  C   LIG    1       25.118 -12.130   5.751  0.00  0.00    +0.006 A 
ENDBRANCH  14  15
BRANCH  14  21
ATOM     21  O   LIG    1       26.887 -14.208   6.625  0.00  0.00    -0.378 OA
ATOM     22  H   LIG    1       26.036 -14.678   6.528  0.00  0.00    +0.211 HD
ENDBRANCH  14  21
ENDBRANCH  12  14
ENDBRANCH   4  10
BRANCH   1  24
ATOM     23  O   LIG    1       24.585 -21.100   3.168  0.00  0.00    -0.244 OA
ATOM     24  C   LIG    1       24.918 -19.988   3.538  0.00  0.00    +0.351 C 
BRANCH  24  25
ATOM     25  OXT LIG    1       24.201 -18.919   3.188  0.00  0.00    -0.476 OA
ATOM     26  HXT LIG    1       23.418 -19.356   2.769  0.00  0.00    +0.295 HD
ENDBRANCH  24  25
ENDBRANCH   1  24
BRANCH   9  27
ATOM     27  C   LIG    1       25.324 -21.571   6.253  0.00  0.00    +0.111 C 
BRANCH  27  28
ATOM     28  S   LIG    1       23.723 -21.286   7.061  0.00  0.00    -0.080 S 
BRANCH  28  29
ATOM     29  C   LIG    1       22.679 -20.768   5.810  0.00  0.00    +0.211 A 
ATOM     30  N   LIG    1       22.376 -19.480   5.476  0.00  0.00    -0.196 N 
ATOM     31  N   LIG    1       21.626 -19.496   4.353  0.00  0.00    -0.042 NA
ATOM     32  N   LIG    1       21.333 -20.770   4.144  0.00  0.00    -0.022 NA
ATOM     33  N   LIG    1       21.972 -21.572   5.053  0.00  0.00    -0.102 NA
BRANCH  30  34
ATOM     34  C   LIG    1       22.789 -18.205   5.982  0.00  0.00    +0.345 C 
BRANCH  34  35
ATOM     35  S   LIG    1       22.428 -16.762   5.016  0.00  0.00    +0.100 S 
ATOM     36  O   LIG    1       23.526 -16.347   4.134  0.00  0.00    -0.146 OA
ATOM     37  O   LIG    1       21.739 -15.792   5.811  0.00  0.00    -0.146 OA
BRANCH  35  38
ATOM     38  O   LIG    1       21.295 -17.488   4.101  0.00  0.00    -0.252 OA
ATOM     39  H   LIG    1       20.427 -17.033   4.172  0.00  0.00    +0.244 HD
ENDBRANCH  35  38
ENDBRANCH  34  35
ENDBRANCH  30  34
ENDBRANCH  28  29
ENDBRANCH  27  28
ENDBRANCH   9  27
TORSDOF 12
ENDMDL
