MODEL 1
REMARK VINA RESULT:      -8.0      0.000      0.000
REMARK  Name = *****
REMARK                            x       y       z     vdW  Elec       q    Type
REMARK                         _______ _______ _______ _____ _____    ______ ____
ROOT
ATOM      1  C   LIG    1       22.827 -19.496   4.170  0.00  0.00    +0.002 C 
ATOM      2  C   LIG    1       23.519 -20.421   5.239  0.00  0.00    -0.022 C 
ATOM      3  C   LIG    1       24.990 -19.952   5.196  0.00  0.00    +0.021 C 
ATOM      4  C   LIG    1       25.997 -20.847   5.903  0.00  0.00    -0.066 C 
ATOM      5  C   LIG    1       25.554 -22.251   6.239  0.00  0.00    +0.031 C 
ATOM      6  C   LIG    1       24.456 -22.855   5.363  0.00  0.00    +0.005 C 
ATOM      7  C   LIG    1       27.161 -20.329   6.341  0.00  0.00    -0.001 C 
ATOM      8  C   LIG    1       25.257 -19.755   3.699  0.00  0.00    +0.009 C 
ATOM      9  C   LIG    1       22.899 -20.326   6.640  0.00  0.00    +0.012 C 
ATOM     10  C   LIG    1       23.432 -21.894   4.756  0.00  0.00    +0.008 C 
ATOM     11  C   LIG    1       23.919 -19.320   3.085  0.00  0.00    +0.005 C 
ENDROOT
BRANCH   7  12
ATOM     12  C   LIG    1       28.140 -21.018   7.166  0.00  0.00    -0.001 C 
ATOM     13  C   LIG    1       29.442 -20.701   7.251  0.00  0.00    -0.065 C 
ATOM     14  C   LIG    1       30.109 -19.551   6.520  0.00  0.00    +0.062 C 
ATOM     15  C   LIG    1       30.713 -18.560   7.521  0.00  0.00    +0.121 C 
ATOM     16  C   LIG    1       31.729 -19.242   8.436  0.00  0.00    +0.063 C 
ATOM     17  C   LIG    1       31.186 -20.509   9.108  0.00  0.00    +0.121 C 
ATOM     18  C   LIG    1       30.400 -21.441   8.165  0.00  0.00    +0.062 C 
BRANCH  15  19
ATOM     19  O   LIG    1       29.698 -17.927   8.302  0.00  0.00    -0.391 OA
ATOM     20  H   LIG    1       29.080 -17.480   7.697  0.00  0.00    +0.210 HD
ENDBRANCH  15  19
BRANCH  17  21
ATOM     21  O   LIG    1       32.285 -21.231   9.674  0.00  0.00    -0.391 OA
ATOM     22  H   LIG    1       32.278 -21.087  10.638  0.00  0.00    +0.210 HD
ENDBRANCH  17  21
ENDBRANCH   7  12
BRANCH   1  24
ATOM     23  C   LIG    1       21.134 -17.654   3.635  0.00  0.00    +0.012 C 
ATOM     24  C   LIG    1       22.198 -18.139   4.638  0.00  0.00    +0.012 C 
BRANCH  24  25
ATOM     25  C   LIG    1       23.190 -17.020   4.889  0.00  0.00    -0.027 C 
ATOM     26  C   LIG    1       23.471 -16.048   4.008  0.00  0.00    -0.025 C 
BRANCH  26  27
ATOM     27  C   LIG    1       24.410 -14.882   4.296  0.00  0.00    +0.039 C 
ATOM     28  C   LIG    1       23.664 -13.575   3.995  0.00  0.00    +0.014 C 
BRANCH  27  29
ATOM     29  C   LIG    1       25.789 -14.981   3.554  0.00  0.00    +0.067 C 
ATOM     30  C   LIG    1       26.954 -14.623   4.489  0.00  0.00    +0.041 C 
ATOM     31  C   LIG    1       25.888 -14.105   2.297  0.00  0.00    +0.041 C 
BRANCH  29  32
ATOM     32  O   LIG    1       26.021 -16.344   3.166  0.00  0.00    -0.389 OA
ATOM     33  H   LIG    1       25.525 -16.920   3.774  0.00  0.00    +0.210 HD
ENDBRANCH  29  32
ENDBRANCH  27  29
ENDBRANCH  26  27
ENDBRANCH  24  25
ENDBRANCH   1  24
TORSDOF 8
ENDMDL
MODEL 2
REMARK VINA RESULT:      -7.9      4.210      7.020
REMARK  Name = *****
REMARK                            x       y       z     vdW  Elec       q    Type
REMARK                         _______ _______ _______ _____ _____    ______ ____
ROOT
ATOM      1  C   LIG    1       24.216 -20.382   4.628  0.00  0.00    +0.002 C 
ATOM      2  C   LIG    1       23.989 -21.375   5.828  0.00  0.00    -0.022 C 
ATOM      3  C   LIG    1       24.830 -22.604   5.419  0.00  0.00    +0.021 C 
ATOM      4  C   LIG    1       24.596 -23.872   6.225  0.00  0.00    -0.066 C 
ATOM      5  C   LIG    1       23.341 -23.932   7.065  0.00  0.00    +0.031 C 
ATOM      6  C   LIG    1       22.163 -23.072   6.606  0.00  0.00    +0.005 C 
ATOM      7  C   LIG    1       25.560 -24.810   6.295  0.00  0.00    -0.001 C 
ATOM      8  C   LIG    1       24.549 -22.744   3.918  0.00  0.00    +0.009 C 
ATOM      9  C   LIG    1       24.388 -20.802   7.196  0.00  0.00    +0.012 C 
ATOM     10  C   LIG    1       22.488 -21.769   5.874  0.00  0.00    +0.008 C 
ATOM     11  C   LIG    1       24.311 -21.320   3.398  0.00  0.00    +0.005 C 
ENDROOT
BRANCH   7  12
ATOM     12  C   LIG    1       25.541 -25.987   7.148  0.00  0.00    -0.001 C 
ATOM     13  C   LIG    1       25.019 -27.179   6.812  0.00  0.00    -0.065 C 
ATOM     14  C   LIG    1       24.384 -27.507   5.474  0.00  0.00    +0.062 C 
ATOM     15  C   LIG    1       25.149 -28.643   4.784  0.00  0.00    +0.121 C 
ATOM     16  C   LIG    1       25.185 -29.898   5.655  0.00  0.00    +0.063 C 
ATOM     17  C   LIG    1       25.677 -29.632   7.083  0.00  0.00    +0.121 C 
ATOM     18  C   LIG    1       25.069 -28.377   7.740  0.00  0.00    +0.062 C 
BRANCH  15  19
ATOM     19  O   LIG    1       26.477 -28.243   4.445  0.00  0.00    -0.391 OA
ATOM     20  H   LIG    1       26.786 -28.798   3.706  0.00  0.00    +0.210 HD
ENDBRANCH  15  19
BRANCH  17  21
ATOM     21  O   LIG    1       25.376 -30.777   7.889  0.00  0.00    -0.391 OA
ATOM     22  H   LIG    1       25.864 -31.539   7.528  0.00  0.00    +0.210 HD
ENDBRANCH  17  21
ENDBRANCH   7  12
BRANCH   1  24
ATOM     23  C   LIG    1       25.486 -18.520   3.419  0.00  0.00    +0.012 C 
ATOM     24  C   LIG    1       25.393 -19.352   4.712  0.00  0.00    +0.012 C 
BRANCH  24  25
ATOM     25  C   LIG    1       26.754 -19.950   5.015  0.00  0.00    -0.027 C 
ATOM     26  C   LIG    1       27.355 -19.892   6.214  0.00  0.00    -0.025 C 
BRANCH  26  27
ATOM     27  C   LIG    1       28.686 -20.563   6.533  0.00  0.00    +0.039 C 
ATOM     28  C   LIG    1       28.447 -21.615   7.624  0.00  0.00    +0.014 C 
BRANCH  27  29
ATOM     29  C   LIG    1       29.831 -19.555   6.899  0.00  0.00    +0.067 C 
ATOM     30  C   LIG    1       29.609 -18.936   8.287  0.00  0.00    +0.041 C 
ATOM     31  C   LIG    1       30.012 -18.418   5.883  0.00  0.00    +0.041 C 
BRANCH  29  32
ATOM     32  O   LIG    1       31.075 -20.267   6.995  0.00  0.00    -0.389 OA
ATOM     33  H   LIG    1       30.875 -21.217   7.054  0.00  0.00    +0.210 HD
ENDBRANCH  29  32
ENDBRANCH  27  29
ENDBRANCH  26  27
ENDBRANCH  24  25
ENDBRANCH   1  24
TORSDOF 8
ENDMDL
MODEL 3
REMARK VINA RESULT:      -7.2      8.286     11.197
REMARK  Name = *****
REMARK                            x       y       z     vdW  Elec       q    Type
REMARK                         _______ _______ _______ _____ _____    ______ ____
ROOT
ATOM      1  C   LIG    1       25.603 -27.402   6.013  0.00  0.00    +0.002 C 
ATOM      2  C   LIG    1       24.893 -28.797   6.171  0.00  0.00    -0.022 C 
ATOM      3  C   LIG    1       24.585 -28.854   7.684  0.00  0.00    +0.021 C 
ATOM      4  C   LIG    1       24.160 -30.209   8.228  0.00  0.00    -0.066 C 
ATOM      5  C   LIG    1       24.435 -31.416   7.363  0.00  0.00    +0.031 C 
ATOM      6  C   LIG    1       25.595 -31.304   6.373  0.00  0.00    +0.005 C 
ATOM      7  C   LIG    1       23.427 -30.278   9.356  0.00  0.00    -0.001 C 
ATOM      8  C   LIG    1       25.853 -28.281   8.328  0.00  0.00    +0.009 C 
ATOM      9  C   LIG    1       23.642 -28.964   5.297  0.00  0.00    +0.012 C 
ATOM     10  C   LIG    1       25.905 -29.917   5.808  0.00  0.00    +0.008 C 
ATOM     11  C   LIG    1       26.406 -27.254   7.329  0.00  0.00    +0.005 C 
ENDROOT
BRANCH   7  12
ATOM     12  C   LIG    1       22.818 -31.480   9.902  0.00  0.00    -0.001 C 
ATOM     13  C   LIG    1       22.370 -31.618  11.161  0.00  0.00    -0.065 C 
ATOM     14  C   LIG    1       22.397 -30.533  12.221  0.00  0.00    +0.062 C 
ATOM     15  C   LIG    1       20.974 -30.210  12.691  0.00  0.00    +0.121 C 
ATOM     16  C   LIG    1       20.276 -31.451  13.248  0.00  0.00    +0.063 C 
ATOM     17  C   LIG    1       20.330 -32.654  12.298  0.00  0.00    +0.121 C 
ATOM     18  C   LIG    1       21.708 -32.892  11.652  0.00  0.00    +0.062 C 
BRANCH  15  19
ATOM     19  O   LIG    1       20.196 -29.641  11.638  0.00  0.00    -0.391 OA
ATOM     20  H   LIG    1       19.429 -29.189  12.032  0.00  0.00    +0.210 HD
ENDBRANCH  15  19
BRANCH  17  21
ATOM     21  O   LIG    1       19.942 -33.825  13.025  0.00  0.00    -0.391 OA
ATOM     22  H   LIG    1       19.951 -33.610  13.975  0.00  0.00    +0.210 HD
ENDBRANCH  17  21
ENDBRANCH   7  12
BRANCH   1  24
ATOM     23  C   LIG    1       25.108 -25.567   4.300  0.00  0.00    +0.012 C 
ATOM     24  C   LIG    1       24.730 -26.144   5.677  0.00  0.00    +0.012 C 
BRANCH  24  25
ATOM     25  C   LIG    1       24.775 -25.033   6.709  0.00  0.00    -0.027 C 
ATOM     26  C   LIG    1       24.775 -23.725   6.411  0.00  0.00    -0.025 C 
BRANCH  26  27
ATOM     27  C   LIG    1       24.741 -22.613   7.454  0.00  0.00    +0.039 C 
ATOM     28  C   LIG    1       23.358 -21.949   7.407  0.00  0.00    +0.014 C 
BRANCH  27  29
ATOM     29  C   LIG    1       25.916 -21.583   7.320  0.00  0.00    +0.067 C 
ATOM     30  C   LIG    1       26.014 -20.681   8.560  0.00  0.00    +0.041 C 
ATOM     31  C   LIG    1       25.827 -20.689   6.075  0.00  0.00    +0.041 C 
BRANCH  29  32
ATOM     32  O   LIG    1       27.164 -22.293   7.269  0.00  0.00    -0.389 OA
ATOM     33  H   LIG    1       27.017 -23.187   7.625  0.00  0.00    +0.210 HD
ENDBRANCH  29  32
ENDBRANCH  27  29
ENDBRANCH  26  27
ENDBRANCH  24  25
ENDBRANCH   1  24
TORSDOF 8
ENDMDL
MODEL 4
REMARK VINA RESULT:      -7.1     10.638     13.333
REMARK  Name = *****
REMARK                            x       y       z     vdW  Elec       q    Type
REMARK                         _______ _______ _______ _____ _____    ______ ____
ROOT
ATOM      1  C   LIG    1       25.707 -27.206  14.167  0.00  0.00    +0.002 C 
ATOM      2  C   LIG    1       26.359 -27.755  12.843  0.00  0.00    -0.022 C 
ATOM      3  C   LIG    1       25.371 -28.860  12.408  0.00  0.00    +0.021 C 
ATOM      4  C   LIG    1       25.858 -29.798  11.314  0.00  0.00    -0.066 C 
ATOM      5  C   LIG    1       27.341 -29.812  11.029  0.00  0.00    +0.031 C 
ATOM      6  C   LIG    1       28.267 -29.408  12.177  0.00  0.00    +0.005 C 
ATOM      7  C   LIG    1       24.965 -30.448  10.543  0.00  0.00    -0.001 C 
ATOM      8  C   LIG    1       25.011 -29.555  13.727  0.00  0.00    +0.009 C 
ATOM      9  C   LIG    1       26.576 -26.684  11.764  0.00  0.00    +0.012 C 
ATOM     10  C   LIG    1       27.730 -28.395  13.190  0.00  0.00    +0.008 C 
ATOM     11  C   LIG    1       25.079 -28.469  14.809  0.00  0.00    +0.005 C 
ENDROOT
BRANCH   7  12
ATOM     12  C   LIG    1       25.278 -31.244   9.368  0.00  0.00    -0.001 C 
ATOM     13  C   LIG    1       24.874 -30.970   8.116  0.00  0.00    -0.065 C 
ATOM     14  C   LIG    1       24.043 -29.767   7.712  0.00  0.00    +0.062 C 
ATOM     15  C   LIG    1       24.811 -28.901   6.706  0.00  0.00    +0.121 C 
ATOM     16  C   LIG    1       25.192 -29.701   5.461  0.00  0.00    +0.063 C 
ATOM     17  C   LIG    1       25.910 -31.017   5.782  0.00  0.00    +0.121 C 
ATOM     18  C   LIG    1       25.273 -31.826   6.929  0.00  0.00    +0.062 C 
BRANCH  15  19
ATOM     19  O   LIG    1       25.977 -28.329   7.297  0.00  0.00    -0.391 OA
ATOM     20  H   LIG    1       25.707 -27.555   7.823  0.00  0.00    +0.210 HD
ENDBRANCH  15  19
BRANCH  17  21
ATOM     21  O   LIG    1       25.937 -31.822   4.598  0.00  0.00    -0.391 OA
ATOM     22  H   LIG    1       26.157 -31.246   3.844  0.00  0.00    +0.210 HD
ENDBRANCH  17  21
ENDBRANCH   7  12
BRANCH   1  24
ATOM     23  C   LIG    1       25.075 -24.911  15.102  0.00  0.00    +0.012 C 
ATOM     24  C   LIG    1       24.711 -25.999  14.075  0.00  0.00    +0.012 C 
BRANCH  24  25
ATOM     25  C   LIG    1       23.246 -26.359  14.230  0.00  0.00    -0.027 C 
ATOM     26  C   LIG    1       22.447 -26.726  13.217  0.00  0.00    -0.025 C 
BRANCH  26  27
ATOM     27  C   LIG    1       20.996 -27.163  13.391  0.00  0.00    +0.039 C 
ATOM     28  C   LIG    1       20.470 -26.577  14.708  0.00  0.00    +0.014 C 
BRANCH  27  29
ATOM     29  C   LIG    1       20.784 -28.713  13.286  0.00  0.00    +0.067 C 
ATOM     30  C   LIG    1       21.165 -29.420  14.596  0.00  0.00    +0.041 C 
ATOM     31  C   LIG    1       21.557 -29.375  12.136  0.00  0.00    +0.041 C 
BRANCH  29  32
ATOM     32  O   LIG    1       19.388 -28.989  13.099  0.00  0.00    -0.389 OA
ATOM     33  H   LIG    1       19.308 -29.832  12.619  0.00  0.00    +0.210 HD
ENDBRANCH  29  32
ENDBRANCH  27  29
ENDBRANCH  26  27
ENDBRANCH  24  25
ENDBRANCH   1  24
TORSDOF 8
ENDMDL
MODEL 5
REMARK VINA RESULT:      -7.0      8.743     11.844
REMARK  Name = *****
REMARK                            x       y       z     vdW  Elec       q    Type
REMARK                         _______ _______ _______ _____ _____    ______ ____
ROOT
ATOM      1  C   LIG    1       25.592 -28.220   6.200  0.00  0.00    +0.002 C 
ATOM      2  C   LIG    1       24.934 -29.602   6.568  0.00  0.00    -0.022 C 
ATOM      3  C   LIG    1       24.471 -29.382   8.025  0.00  0.00    +0.021 C 
ATOM      4  C   LIG    1       24.053 -30.630   8.788  0.00  0.00    -0.066 C 
ATOM      5  C   LIG    1       24.473 -31.962   8.213  0.00  0.00    +0.031 C 
ATOM      6  C   LIG    1       25.725 -31.969   7.335  0.00  0.00    +0.005 C 
ATOM      7  C   LIG    1       23.208 -30.525   9.832  0.00  0.00    -0.001 C 
ATOM      8  C   LIG    1       25.636 -28.612   8.658  0.00  0.00    +0.009 C 
ATOM      9  C   LIG    1       23.791 -30.018   5.631  0.00  0.00    +0.012 C 
ATOM     10  C   LIG    1       26.029 -30.701   6.535  0.00  0.00    +0.008 C 
ATOM     11  C   LIG    1       26.244 -27.766   7.531  0.00  0.00    +0.005 C 
ENDROOT
BRANCH   7  12
ATOM     12  C   LIG    1       22.601 -31.635  10.548  0.00  0.00    -0.001 C 
ATOM     13  C   LIG    1       21.544 -31.540  11.373  0.00  0.00    -0.065 C 
ATOM     14  C   LIG    1       20.788 -30.261  11.676  0.00  0.00    +0.062 C 
ATOM     15  C   LIG    1       19.320 -30.395  11.251  0.00  0.00    +0.121 C 
ATOM     16  C   LIG    1       18.642 -31.570  11.954  0.00  0.00    +0.063 C 
ATOM     17  C   LIG    1       19.420 -32.885  11.826  0.00  0.00    +0.121 C 
ATOM     18  C   LIG    1       20.938 -32.750  12.058  0.00  0.00    +0.062 C 
BRANCH  15  19
ATOM     19  O   LIG    1       19.202 -30.536   9.835  0.00  0.00    -0.391 OA
ATOM     20  H   LIG    1       19.502 -31.429   9.589  0.00  0.00    +0.210 HD
ENDBRANCH  15  19
BRANCH  17  21
ATOM     21  O   LIG    1       18.883 -33.825  12.762  0.00  0.00    -0.391 OA
ATOM     22  H   LIG    1       19.621 -34.191  13.282  0.00  0.00    +0.210 HD
ENDBRANCH  17  21
ENDBRANCH   7  12
BRANCH   1  24
ATOM     23  C   LIG    1       25.374 -26.561   4.265  0.00  0.00    +0.012 C 
ATOM     24  C   LIG    1       24.703 -27.112   5.538  0.00  0.00    +0.012 C 
BRANCH  24  25
ATOM     25  C   LIG    1       24.333 -25.954   6.445  0.00  0.00    -0.027 C 
ATOM     26  C   LIG    1       24.453 -24.661   6.106  0.00  0.00    -0.025 C 
BRANCH  26  27
ATOM     27  C   LIG    1       24.006 -23.503   6.991  0.00  0.00    +0.039 C 
ATOM     28  C   LIG    1       22.496 -23.306   6.803  0.00  0.00    +0.014 C 
BRANCH  27  29
ATOM     29  C   LIG    1       24.825 -22.184   6.770  0.00  0.00    +0.067 C 
ATOM     30  C   LIG    1       25.930 -22.028   7.825  0.00  0.00    +0.041 C 
ATOM     31  C   LIG    1       23.970 -20.908   6.770  0.00  0.00    +0.041 C 
BRANCH  29  32
ATOM     32  O   LIG    1       25.511 -22.258   5.511  0.00  0.00    -0.389 OA
ATOM     33  H   LIG    1       26.245 -22.890   5.604  0.00  0.00    +0.210 HD
ENDBRANCH  29  32
ENDBRANCH  27  29
ENDBRANCH  26  27
ENDBRANCH  24  25
ENDBRANCH   1  24
TORSDOF 8
ENDMDL
MODEL 6
REMARK VINA RESULT:      -6.7      4.174      7.931
REMARK  Name = *****
REMARK                            x       y       z     vdW  Elec       q    Type
REMARK                         _______ _______ _______ _____ _____    ______ ____
ROOT
ATOM      1  C   LIG    1       27.067 -20.203   6.993  0.00  0.00    +0.002 C 
ATOM      2  C   LIG    1       26.108 -21.382   7.401  0.00  0.00    -0.022 C 
ATOM      3  C   LIG    1       26.021 -22.216   6.104  0.00  0.00    +0.021 C 
ATOM      4  C   LIG    1       24.931 -23.277   6.063  0.00  0.00    -0.066 C 
ATOM      5  C   LIG    1       23.829 -23.171   7.091  0.00  0.00    +0.031 C 
ATOM      6  C   LIG    1       23.538 -21.777   7.648  0.00  0.00    +0.005 C 
ATOM      7  C   LIG    1       25.061 -24.340   5.246  0.00  0.00    -0.001 C 
ATOM      8  C   LIG    1       25.914 -21.154   5.003  0.00  0.00    +0.009 C 
ATOM      9  C   LIG    1       26.597 -22.196   8.607  0.00  0.00    +0.012 C 
ATOM     10  C   LIG    1       24.709 -20.795   7.732  0.00  0.00    +0.008 C 
ATOM     11  C   LIG    1       26.705 -19.940   5.509  0.00  0.00    +0.005 C 
ENDROOT
BRANCH   7  12
ATOM     12  C   LIG    1       24.187 -25.501   5.218  0.00  0.00    -0.001 C 
ATOM     13  C   LIG    1       24.593 -26.773   5.066  0.00  0.00    -0.065 C 
ATOM     14  C   LIG    1       26.037 -27.216   4.924  0.00  0.00    +0.062 C 
ATOM     15  C   LIG    1       26.419 -28.164   6.068  0.00  0.00    +0.121 C 
ATOM     16  C   LIG    1       25.508 -29.390   6.102  0.00  0.00    +0.063 C 
ATOM     17  C   LIG    1       24.016 -29.038   6.096  0.00  0.00    +0.121 C 
ATOM     18  C   LIG    1       23.626 -27.942   5.086  0.00  0.00    +0.062 C 
BRANCH  15  19
ATOM     19  O   LIG    1       26.388 -27.495   7.329  0.00  0.00    -0.391 OA
ATOM     20  H   LIG    1       26.920 -28.008   7.963  0.00  0.00    +0.210 HD
ENDBRANCH  15  19
BRANCH  17  21
ATOM     21  O   LIG    1       23.269 -30.226   5.812  0.00  0.00    -0.391 OA
ATOM     22  H   LIG    1       23.879 -30.885   5.433  0.00  0.00    +0.210 HD
ENDBRANCH  17  21
ENDBRANCH   7  12
BRANCH   1  24
ATOM     23  C   LIG    1       28.882 -21.369   8.370  0.00  0.00    +0.012 C 
ATOM     24  C   LIG    1       28.608 -20.365   7.234  0.00  0.00    +0.012 C 
BRANCH  24  25
ATOM     25  C   LIG    1       29.355 -19.076   7.520  0.00  0.00    -0.027 C 
ATOM     26  C   LIG    1       29.927 -18.781   8.697  0.00  0.00    -0.025 C 
BRANCH  26  27
ATOM     27  C   LIG    1       30.744 -17.519   8.954  0.00  0.00    +0.039 C 
ATOM     28  C   LIG    1       32.051 -17.619   8.156  0.00  0.00    +0.014 C 
BRANCH  27  29
ATOM     29  C   LIG    1       30.981 -17.217  10.475  0.00  0.00    +0.067 C 
ATOM     30  C   LIG    1       32.376 -16.621  10.717  0.00  0.00    +0.041 C 
ATOM     31  C   LIG    1       30.810 -18.439  11.390  0.00  0.00    +0.041 C 
BRANCH  29  32
ATOM     32  O   LIG    1       30.056 -16.207  10.906  0.00  0.00    -0.389 OA
ATOM     33  H   LIG    1       29.335 -16.644  11.390  0.00  0.00    +0.210 HD
ENDBRANCH  29  32
ENDBRANCH  27  29
ENDBRANCH  26  27
ENDBRANCH  24  25
ENDBRANCH   1  24
TORSDOF 8
ENDMDL
MODEL 7
REMARK VINA RESULT:      -6.1      4.466      7.777
REMARK  Name = *****
REMARK                            x       y       z     vdW  Elec       q    Type
REMARK                         _______ _______ _______ _____ _____    ______ ____
ROOT
ATOM      1  C   LIG    1       25.591 -20.720   7.259  0.00  0.00    +0.002 C 
ATOM      2  C   LIG    1       24.672 -21.988   7.408  0.00  0.00    -0.022 C 
ATOM      3  C   LIG    1       25.158 -22.900   6.260  0.00  0.00    +0.021 C 
ATOM      4  C   LIG    1       24.274 -24.094   5.935  0.00  0.00    -0.066 C 
ATOM      5  C   LIG    1       22.864 -24.073   6.475  0.00  0.00    +0.031 C 
ATOM      6  C   LIG    1       22.249 -22.700   6.744  0.00  0.00    +0.005 C 
ATOM      7  C   LIG    1       24.805 -25.176   5.333  0.00  0.00    -0.001 C 
ATOM      8  C   LIG    1       25.364 -21.925   5.094  0.00  0.00    +0.009 C 
ATOM      9  C   LIG    1       24.754 -22.661   8.786  0.00  0.00    +0.012 C 
ATOM     10  C   LIG    1       23.199 -21.571   7.147  0.00  0.00    +0.008 C 
ATOM     11  C   LIG    1       25.784 -20.592   5.727  0.00  0.00    +0.005 C 
ENDROOT
BRANCH   7  12
ATOM     12  C   LIG    1       24.126 -26.441   5.107  0.00  0.00    -0.001 C 
ATOM     13  C   LIG    1       24.667 -27.656   5.296  0.00  0.00    -0.065 C 
ATOM     14  C   LIG    1       26.073 -27.914   5.803  0.00  0.00    +0.062 C 
ATOM     15  C   LIG    1       26.030 -28.706   7.116  0.00  0.00    +0.121 C 
ATOM     16  C   LIG    1       25.297 -30.035   6.941  0.00  0.00    +0.063 C 
ATOM     17  C   LIG    1       23.916 -29.885   6.292  0.00  0.00    +0.121 C 
ATOM     18  C   LIG    1       23.884 -28.937   5.078  0.00  0.00    +0.062 C 
BRANCH  15  19
ATOM     19  O   LIG    1       25.423 -27.945   8.161  0.00  0.00    -0.391 OA
ATOM     20  H   LIG    1       24.517 -27.717   7.888  0.00  0.00    +0.210 HD
ENDBRANCH  15  19
BRANCH  17  21
ATOM     21  O   LIG    1       23.459 -31.181   5.889  0.00  0.00    -0.391 OA
ATOM     22  H   LIG    1       22.540 -31.287   6.192  0.00  0.00    +0.210 HD
ENDBRANCH  17  21
ENDBRANCH   7  12
BRANCH   1  24
ATOM     23  C   LIG    1       26.723 -20.049   9.454  0.00  0.00    +0.012 C 
ATOM     24  C   LIG    1       26.939 -20.665   8.058  0.00  0.00    +0.012 C 
BRANCH  24  25
ATOM     25  C   LIG    1       28.072 -19.934   7.363  0.00  0.00    -0.027 C 
ATOM     26  C   LIG    1       28.900 -19.071   7.972  0.00  0.00    -0.025 C 
BRANCH  26  27
ATOM     27  C   LIG    1       30.085 -18.400   7.287  0.00  0.00    +0.039 C 
ATOM     28  C   LIG    1       29.983 -18.661   5.779  0.00  0.00    +0.014 C 
BRANCH  27  29
ATOM     29  C   LIG    1       31.477 -18.811   7.884  0.00  0.00    +0.067 C 
ATOM     30  C   LIG    1       31.366 -20.085   8.735  0.00  0.00    +0.041 C 
ATOM     31  C   LIG    1       32.142 -17.717   8.731  0.00  0.00    +0.041 C 
BRANCH  29  32
ATOM     32  O   LIG    1       32.370 -19.148   6.811  0.00  0.00    -0.389 OA
ATOM     33  H   LIG    1       32.898 -18.359   6.598  0.00  0.00    +0.210 HD
ENDBRANCH  29  32
ENDBRANCH  27  29
ENDBRANCH  26  27
ENDBRANCH  24  25
ENDBRANCH   1  24
TORSDOF 8
ENDMDL
MODEL 8
REMARK VINA RESULT:      -5.8      7.611     10.573
REMARK  Name = *****
REMARK                            x       y       z     vdW  Elec       q    Type
REMARK                         _______ _______ _______ _____ _____    ______ ____
ROOT
ATOM      1  C   LIG    1       25.867 -26.214   6.010  0.00  0.00    +0.002 C 
ATOM      2  C   LIG    1       25.037 -27.548   5.917  0.00  0.00    -0.022 C 
ATOM      3  C   LIG    1       24.953 -28.002   7.391  0.00  0.00    +0.021 C 
ATOM      4  C   LIG    1       24.465 -29.423   7.626  0.00  0.00    -0.066 C 
ATOM      5  C   LIG    1       24.472 -30.358   6.439  0.00  0.00    +0.031 C 
ATOM      6  C   LIG    1       25.477 -30.054   5.328  0.00  0.00    +0.005 C 
ATOM      7  C   LIG    1       23.904 -29.753   8.805  0.00  0.00    -0.001 C 
ATOM      8  C   LIG    1       26.359 -27.716   7.933  0.00  0.00    +0.009 C 
ATOM      9  C   LIG    1       23.659 -27.382   5.260  0.00  0.00    +0.012 C 
ATOM     10  C   LIG    1       25.853 -28.588   5.103  0.00  0.00    +0.008 C 
ATOM     11  C   LIG    1       26.869 -26.492   7.160  0.00  0.00    +0.005 C 
ENDROOT
BRANCH   7  12
ATOM     12  C   LIG    1       23.253 -31.016   9.113  0.00  0.00    -0.001 C 
ATOM     13  C   LIG    1       22.810 -31.384  10.327  0.00  0.00    -0.065 C 
ATOM     14  C   LIG    1       22.891 -30.532  11.579  0.00  0.00    +0.062 C 
ATOM     15  C   LIG    1       21.485 -30.256  12.128  0.00  0.00    +0.121 C 
ATOM     16  C   LIG    1       20.744 -31.555  12.440  0.00  0.00    +0.063 C 
ATOM     17  C   LIG    1       20.741 -32.547  11.271  0.00  0.00    +0.121 C 
ATOM     18  C   LIG    1       22.103 -32.704  10.567  0.00  0.00    +0.062 C 
BRANCH  15  19
ATOM     19  O   LIG    1       20.721 -29.461  11.221  0.00  0.00    -0.391 OA
ATOM     20  H   LIG    1       20.609 -28.574  11.609  0.00  0.00    +0.210 HD
ENDBRANCH  15  19
BRANCH  17  21
ATOM     21  O   LIG    1       20.313 -33.824  11.758  0.00  0.00    -0.391 OA
ATOM     22  H   LIG    1       19.727 -33.676  12.521  0.00  0.00    +0.210 HD
ENDBRANCH  17  21
ENDBRANCH   7  12
BRANCH   1  24
ATOM     23  C   LIG    1       24.958 -24.142   4.817  0.00  0.00    +0.012 C 
ATOM     24  C   LIG    1       25.100 -24.857   6.174  0.00  0.00    +0.012 C 
BRANCH  24  25
ATOM     25  C   LIG    1       25.700 -23.894   7.181  0.00  0.00    -0.027 C 
ATOM     26  C   LIG    1       26.052 -22.630   6.900  0.00  0.00    -0.025 C 
BRANCH  26  27
ATOM     27  C   LIG    1       26.580 -21.643   7.935  0.00  0.00    +0.039 C 
ATOM     28  C   LIG    1       25.423 -20.737   8.374  0.00  0.00    +0.014 C 
BRANCH  27  29
ATOM     29  C   LIG    1       27.838 -20.836   7.456  0.00  0.00    +0.067 C 
ATOM     30  C   LIG    1       27.611 -20.220   6.068  0.00  0.00    +0.041 C 
ATOM     31  C   LIG    1       29.133 -21.661   7.417  0.00  0.00    +0.041 C 
BRANCH  29  32
ATOM     32  O   LIG    1       28.048 -19.721   8.336  0.00  0.00    -0.389 OA
ATOM     33  H   LIG    1       27.350 -19.066   8.165  0.00  0.00    +0.210 HD
ENDBRANCH  29  32
ENDBRANCH  27  29
ENDBRANCH  26  27
ENDBRANCH  24  25
ENDBRANCH   1  24
TORSDOF 8
ENDMDL
MODEL 9
REMARK VINA RESULT:      -5.7     11.300     14.333
REMARK  Name = *****
REMARK                            x       y       z     vdW  Elec       q    Type
REMARK                         _______ _______ _______ _____ _____    ______ ____
ROOT
ATOM      1  C   LIG    1       26.311 -26.142  14.527  0.00  0.00    +0.002 C 
ATOM      2  C   LIG    1       25.198 -27.216  14.234  0.00  0.00    -0.022 C 
ATOM      3  C   LIG    1       25.743 -27.939  12.982  0.00  0.00    +0.021 C 
ATOM      4  C   LIG    1       24.763 -28.849  12.257  0.00  0.00    -0.066 C 
ATOM      5  C   LIG    1       23.297 -28.677  12.579  0.00  0.00    +0.031 C 
ATOM      6  C   LIG    1       22.858 -27.301  13.079  0.00  0.00    +0.005 C 
ATOM      7  C   LIG    1       25.225 -29.859  11.495  0.00  0.00    -0.001 C 
ATOM      8  C   LIG    1       26.303 -26.797  12.126  0.00  0.00    +0.009 C 
ATOM      9  C   LIG    1       24.926 -28.168  15.407  0.00  0.00    +0.012 C 
ATOM     10  C   LIG    1       23.879 -26.483  13.873  0.00  0.00    +0.008 C 
ATOM     11  C   LIG    1       26.797 -25.732  13.114  0.00  0.00    +0.005 C 
ENDROOT
BRANCH   7  12
ATOM     12  C   LIG    1       24.414 -30.896  10.878  0.00  0.00    -0.001 C 
ATOM     13  C   LIG    1       23.948 -30.868   9.618  0.00  0.00    -0.065 C 
ATOM     14  C   LIG    1       24.210 -29.761   8.616  0.00  0.00    +0.062 C 
ATOM     15  C   LIG    1       24.946 -30.313   7.389  0.00  0.00    +0.121 C 
ATOM     16  C   LIG    1       24.149 -31.432   6.719  0.00  0.00    +0.063 C 
ATOM     17  C   LIG    1       23.709 -32.531   7.694  0.00  0.00    +0.121 C 
ATOM     18  C   LIG    1       23.139 -32.007   9.027  0.00  0.00    +0.062 C 
BRANCH  15  19
ATOM     19  O   LIG    1       26.251 -30.780   7.734  0.00  0.00    -0.391 OA
ATOM     20  H   LIG    1       26.705 -30.080   8.236  0.00  0.00    +0.210 HD
ENDBRANCH  15  19
BRANCH  17  21
ATOM     21  O   LIG    1       22.723 -33.343   7.048  0.00  0.00    -0.391 OA
ATOM     22  H   LIG    1       21.942 -33.393   7.629  0.00  0.00    +0.210 HD
ENDBRANCH  17  21
ENDBRANCH   7  12
BRANCH   1  24
ATOM     23  C   LIG    1       28.637 -25.501  15.378  0.00  0.00    +0.012 C 
ATOM     24  C   LIG    1       27.482 -26.514  15.500  0.00  0.00    +0.012 C 
BRANCH  24  25
ATOM     25  C   LIG    1       28.035 -27.917  15.338  0.00  0.00    -0.027 C 
ATOM     26  C   LIG    1       28.875 -28.290  14.360  0.00  0.00    -0.025 C 
BRANCH  26  27
ATOM     27  C   LIG    1       29.489 -29.681  14.248  0.00  0.00    +0.039 C 
ATOM     28  C   LIG    1       28.868 -30.572  15.331  0.00  0.00    +0.014 C 
BRANCH  27  29
ATOM     29  C   LIG    1       31.057 -29.685  14.281  0.00  0.00    +0.067 C 
ATOM     30  C   LIG    1       31.605 -28.446  15.007  0.00  0.00    +0.041 C 
ATOM     31  C   LIG    1       31.713 -29.765  12.895  0.00  0.00    +0.041 C 
BRANCH  29  32
ATOM     32  O   LIG    1       31.511 -30.807  15.053  0.00  0.00    -0.389 OA
ATOM     33  H   LIG    1       31.841 -31.484  14.436  0.00  0.00    +0.210 HD
ENDBRANCH  29  32
ENDBRANCH  27  29
ENDBRANCH  26  27
ENDBRANCH  24  25
ENDBRANCH   1  24
TORSDOF 8
ENDMDL
