MODEL 1
REMARK VINA RESULT:      -6.5      0.000      0.000
REMARK  Name = *****
REMARK                            x       y       z     vdW  Elec       q    Type
REMARK                         _______ _______ _______ _____ _____    ______ ____
ROOT
ATOM      1  C   LIG    1       24.840 -18.918   3.942  0.00  0.00    -0.041 A 
ATOM      2  C   LIG    1       25.359 -19.747   4.929  0.00  0.00    -0.014 A 
ATOM      3  C   LIG    1       26.788 -20.023   5.295  0.00  0.00    +0.133 C 
ATOM      4  C   LIG    1       26.647 -21.046   6.427  0.00  0.00    +0.222 C 
ATOM      5  N   LIG    1       25.292 -21.275   6.618  0.00  0.00    -0.285 N 
ATOM      6  H   LIG    1       24.939 -21.920   7.308  0.00  0.00    +0.155 HD
ATOM      7  O   LIG    1       27.554 -21.572   7.044  0.00  0.00    -0.275 OA
ATOM      8  C   LIG    1       24.528 -20.516   5.747  0.00  0.00    +0.037 A 
ATOM      9  C   LIG    1       23.154 -20.497   5.642  0.00  0.00    +0.023 A 
ATOM     10  C   LIG    1       22.609 -19.652   4.671  0.00  0.00    +0.002 A 
ATOM     11  C   LIG    1       23.439 -18.871   3.838  0.00  0.00    +0.004 A 
ENDROOT
BRANCH   1  12
ATOM     12  C   LIG    1       25.739 -18.133   3.008  0.00  0.00    +0.051 C 
BRANCH  12  13
ATOM     13  C   LIG    1       26.266 -16.828   3.638  0.00  0.00    +0.089 C 
BRANCH  13  14
ATOM     14  N   LIG    1       25.783 -15.549   3.047  0.00  0.00    -0.302 NA
BRANCH  14  15
ATOM     15  C   LIG    1       24.750 -14.937   3.925  0.00  0.00    +0.084 C 
BRANCH  15  17
ATOM     16  C   LIG    1       24.135 -12.531   4.393  0.00  0.00    +0.005 C 
ATOM     17  C   LIG    1       24.078 -13.666   3.380  0.00  0.00    +0.012 C 
ENDBRANCH  15  17
ENDBRANCH  14  15
BRANCH  14  18
ATOM     18  C   LIG    1       26.895 -14.589   2.821  0.00  0.00    +0.084 C 
BRANCH  18  19
ATOM     19  C   LIG    1       27.731 -14.250   4.074  0.00  0.00    +0.012 C 
ATOM     20  C   LIG    1       28.608 -13.019   3.866  0.00  0.00    +0.005 C 
ENDBRANCH  18  19
ENDBRANCH  14  18
ENDBRANCH  13  14
ENDBRANCH  12  13
ENDBRANCH   1  12
TORSDOF 7
ENDMDL
MODEL 2
REMARK VINA RESULT:      -6.0      1.628      2.558
REMARK  Name = *****
REMARK                            x       y       z     vdW  Elec       q    Type
REMARK                         _______ _______ _______ _____ _____    ______ ____
ROOT
ATOM      1  C   LIG    1       25.924 -19.098   4.241  0.00  0.00    -0.041 A 
ATOM      2  C   LIG    1       24.817 -19.849   4.617  0.00  0.00    -0.014 A 
ATOM      3  C   LIG    1       23.412 -19.816   4.092  0.00  0.00    +0.133 C 
ATOM      4  C   LIG    1       22.708 -20.859   4.964  0.00  0.00    +0.222 C 
ATOM      5  N   LIG    1       23.649 -21.369   5.848  0.00  0.00    -0.285 N 
ATOM      6  H   LIG    1       23.426 -22.071   6.537  0.00  0.00    +0.155 HD
ATOM      7  O   LIG    1       21.536 -21.180   4.905  0.00  0.00    -0.275 OA
ATOM      8  C   LIG    1       24.890 -20.786   5.651  0.00  0.00    +0.037 A 
ATOM      9  C   LIG    1       26.049 -21.036   6.352  0.00  0.00    +0.023 A 
ATOM     10  C   LIG    1       27.181 -20.308   5.974  0.00  0.00    +0.002 A 
ATOM     11  C   LIG    1       27.121 -19.357   4.931  0.00  0.00    +0.004 A 
ENDROOT
BRANCH   1  12
ATOM     12  C   LIG    1       25.835 -18.033   3.166  0.00  0.00    +0.051 C 
BRANCH  12  13
ATOM     13  C   LIG    1       26.558 -16.728   3.553  0.00  0.00    +0.089 C 
BRANCH  13  14
ATOM     14  N   LIG    1       25.998 -15.458   3.011  0.00  0.00    -0.302 NA
BRANCH  14  15
ATOM     15  C   LIG    1       24.932 -14.943   3.911  0.00  0.00    +0.084 C 
BRANCH  15  17
ATOM     16  C   LIG    1       24.149 -12.581   4.354  0.00  0.00    +0.005 C 
ATOM     17  C   LIG    1       24.126 -13.748   3.376  0.00  0.00    +0.012 C 
ENDBRANCH  15  17
ENDBRANCH  14  15
BRANCH  14  18
ATOM     18  C   LIG    1       27.049 -14.425   2.821  0.00  0.00    +0.084 C 
BRANCH  18  19
ATOM     19  C   LIG    1       27.819 -14.033   4.101  0.00  0.00    +0.012 C 
ATOM     20  C   LIG    1       28.765 -12.859   3.867  0.00  0.00    +0.005 C 
ENDBRANCH  18  19
ENDBRANCH  14  18
ENDBRANCH  13  14
ENDBRANCH  12  13
ENDBRANCH   1  12
TORSDOF 7
ENDMDL
MODEL 3
REMARK VINA RESULT:      -5.7      2.538      6.283
REMARK  Name = *****
REMARK                            x       y       z     vdW  Elec       q    Type
REMARK                         _______ _______ _______ _____ _____    ______ ____
ROOT
ATOM      1  C   LIG    1       25.265 -16.191   3.654  0.00  0.00    -0.041 A 
ATOM      2  C   LIG    1       26.113 -15.095   3.754  0.00  0.00    -0.014 A 
ATOM      3  C   LIG    1       27.595 -15.006   3.539  0.00  0.00    +0.133 C 
ATOM      4  C   LIG    1       27.886 -13.534   3.848  0.00  0.00    +0.222 C 
ATOM      5  N   LIG    1       26.683 -12.932   4.191  0.00  0.00    -0.285 N 
ATOM      6  H   LIG    1       26.613 -11.960   4.447  0.00  0.00    +0.155 HD
ATOM      7  O   LIG    1       28.973 -12.988   3.811  0.00  0.00    -0.275 OA
ATOM      8  C   LIG    1       25.637 -13.838   4.136  0.00  0.00    +0.037 A 
ATOM      9  C   LIG    1       24.311 -13.599   4.424  0.00  0.00    +0.023 A 
ATOM     10  C   LIG    1       23.436 -14.683   4.307  0.00  0.00    +0.002 A 
ATOM     11  C   LIG    1       23.906 -15.958   3.922  0.00  0.00    +0.004 A 
ENDROOT
BRANCH   1  12
ATOM     12  C   LIG    1       25.787 -17.571   3.305  0.00  0.00    +0.051 C 
BRANCH  12  13
ATOM     13  C   LIG    1       24.723 -18.674   3.468  0.00  0.00    +0.089 C 
BRANCH  13  14
ATOM     14  N   LIG    1       24.877 -19.597   4.628  0.00  0.00    -0.302 NA
BRANCH  14  15
ATOM     15  C   LIG    1       23.952 -20.753   4.488  0.00  0.00    +0.084 C 
BRANCH  15  17
ATOM     16  C   LIG    1       23.254 -20.776   6.917  0.00  0.00    +0.005 C 
ATOM     17  C   LIG    1       22.772 -20.787   5.473  0.00  0.00    +0.012 C 
ENDBRANCH  15  17
ENDBRANCH  14  15
BRANCH  14  18
ATOM     18  C   LIG    1       26.276 -20.076   4.773  0.00  0.00    +0.084 C 
BRANCH  18  19
ATOM     19  C   LIG    1       26.712 -20.391   6.220  0.00  0.00    +0.012 C 
ATOM     20  C   LIG    1       28.212 -20.196   6.425  0.00  0.00    +0.005 C 
ENDBRANCH  18  19
ENDBRANCH  14  18
ENDBRANCH  13  14
ENDBRANCH  12  13
ENDBRANCH   1  12
TORSDOF 7
ENDMDL
MODEL 4
REMARK VINA RESULT:      -5.7      2.518      6.609
REMARK  Name = *****
REMARK                            x       y       z     vdW  Elec       q    Type
REMARK                         _______ _______ _______ _____ _____    ______ ____
ROOT
ATOM      1  C   LIG    1       25.283 -16.298   3.643  0.00  0.00    -0.041 A 
ATOM      2  C   LIG    1       26.090 -15.171   3.746  0.00  0.00    -0.014 A 
ATOM      3  C   LIG    1       27.571 -15.031   3.547  0.00  0.00    +0.133 C 
ATOM      4  C   LIG    1       27.807 -13.549   3.852  0.00  0.00    +0.222 C 
ATOM      5  N   LIG    1       26.580 -12.988   4.179  0.00  0.00    -0.285 N 
ATOM      6  H   LIG    1       26.472 -12.017   4.430  0.00  0.00    +0.155 HD
ATOM      7  O   LIG    1       28.873 -12.964   3.824  0.00  0.00    -0.275 OA
ATOM      8  C   LIG    1       25.566 -13.930   4.117  0.00  0.00    +0.037 A 
ATOM      9  C   LIG    1       24.230 -13.737   4.390  0.00  0.00    +0.023 A 
ATOM     10  C   LIG    1       23.395 -14.852   4.269  0.00  0.00    +0.002 A 
ATOM     11  C   LIG    1       23.913 -16.111   3.896  0.00  0.00    +0.004 A 
ENDROOT
BRANCH   1  12
ATOM     12  C   LIG    1       25.857 -17.659   3.306  0.00  0.00    +0.051 C 
BRANCH  12  13
ATOM     13  C   LIG    1       24.900 -18.817   3.653  0.00  0.00    +0.089 C 
BRANCH  13  14
ATOM     14  N   LIG    1       25.510 -20.057   4.209  0.00  0.00    -0.302 NA
BRANCH  14  15
ATOM     15  C   LIG    1       26.744 -19.723   4.970  0.00  0.00    +0.084 C 
BRANCH  15  17
ATOM     16  C   LIG    1       28.381 -20.576   6.696  0.00  0.00    +0.005 C 
ATOM     17  C   LIG    1       26.912 -20.444   6.318  0.00  0.00    +0.012 C 
ENDBRANCH  15  17
ENDBRANCH  14  15
BRANCH  14  18
ATOM     18  C   LIG    1       24.561 -20.801   5.076  0.00  0.00    +0.084 C 
BRANCH  18  19
ATOM     19  C   LIG    1       23.241 -20.063   5.384  0.00  0.00    +0.012 C 
ATOM     20  C   LIG    1       22.017 -20.861   4.942  0.00  0.00    +0.005 C 
ENDBRANCH  18  19
ENDBRANCH  14  18
ENDBRANCH  13  14
ENDBRANCH  12  13
ENDBRANCH   1  12
TORSDOF 7
ENDMDL
MODEL 5
REMARK VINA RESULT:      -5.6      1.724      3.247
REMARK  Name = *****
REMARK                            x       y       z     vdW  Elec       q    Type
REMARK                         _______ _______ _______ _____ _____    ______ ____
ROOT
ATOM      1  C   LIG    1       25.928 -18.990   4.272  0.00  0.00    -0.041 A 
ATOM      2  C   LIG    1       24.818 -19.756   4.605  0.00  0.00    -0.014 A 
ATOM      3  C   LIG    1       23.408 -19.673   4.097  0.00  0.00    +0.133 C 
ATOM      4  C   LIG    1       22.702 -20.768   4.901  0.00  0.00    +0.222 C 
ATOM      5  N   LIG    1       23.646 -21.349   5.737  0.00  0.00    -0.285 N 
ATOM      6  H   LIG    1       23.423 -22.095   6.377  0.00  0.00    +0.155 HD
ATOM      7  O   LIG    1       21.526 -21.074   4.830  0.00  0.00    -0.275 OA
ATOM      8  C   LIG    1       24.890 -20.764   5.569  0.00  0.00    +0.037 A 
ATOM      9  C   LIG    1       26.054 -21.074   6.238  0.00  0.00    +0.023 A 
ATOM     10  C   LIG    1       27.190 -20.331   5.901  0.00  0.00    +0.002 A 
ATOM     11  C   LIG    1       27.129 -19.309   4.930  0.00  0.00    +0.004 A 
ENDROOT
BRANCH   1  12
ATOM     12  C   LIG    1       25.840 -17.851   3.276  0.00  0.00    +0.051 C 
BRANCH  12  13
ATOM     13  C   LIG    1       26.909 -16.765   3.509  0.00  0.00    +0.089 C 
BRANCH  13  14
ATOM     14  N   LIG    1       26.423 -15.374   3.727  0.00  0.00    -0.302 NA
BRANCH  14  15
ATOM     15  C   LIG    1       27.225 -14.418   2.917  0.00  0.00    +0.084 C 
BRANCH  15  17
ATOM     16  C   LIG    1       27.531 -13.291   5.158  0.00  0.00    +0.005 C 
ATOM     17  C   LIG    1       28.003 -13.357   3.712  0.00  0.00    +0.012 C 
ENDBRANCH  15  17
ENDBRANCH  14  15
BRANCH  14  18
ATOM     18  C   LIG    1       24.980 -15.233   3.403  0.00  0.00    +0.084 C 
BRANCH  18  19
ATOM     19  C   LIG    1       24.207 -14.230   4.286  0.00  0.00    +0.012 C 
ATOM     20  C   LIG    1       23.996 -12.890   3.586  0.00  0.00    +0.005 C 
ENDBRANCH  18  19
ENDBRANCH  14  18
ENDBRANCH  13  14
ENDBRANCH  12  13
ENDBRANCH   1  12
TORSDOF 7
ENDMDL
MODEL 6
REMARK VINA RESULT:      -5.0      2.920      7.079
REMARK  Name = *****
REMARK                            x       y       z     vdW  Elec       q    Type
REMARK                         _______ _______ _______ _____ _____    ______ ____
ROOT
ATOM      1  C   LIG    1       25.838 -15.739   3.708  0.00  0.00    -0.041 A 
ATOM      2  C   LIG    1       25.348 -14.477   4.024  0.00  0.00    -0.014 A 
ATOM      3  C   LIG    1       23.930 -13.994   4.112  0.00  0.00    +0.133 C 
ATOM      4  C   LIG    1       24.106 -12.513   4.461  0.00  0.00    +0.222 C 
ATOM      5  N   LIG    1       25.469 -12.261   4.538  0.00  0.00    -0.285 N 
ATOM      6  H   LIG    1       25.845 -11.349   4.748  0.00  0.00    +0.155 HD
ATOM      7  O   LIG    1       23.219 -11.699   4.633  0.00  0.00    -0.275 OA
ATOM      8  C   LIG    1       26.206 -13.407   4.287  0.00  0.00    +0.037 A 
ATOM      9  C   LIG    1       27.578 -13.527   4.263  0.00  0.00    +0.023 A 
ATOM     10  C   LIG    1       28.093 -14.794   3.971  0.00  0.00    +0.002 A 
ATOM     11  C   LIG    1       27.236 -15.884   3.703  0.00  0.00    +0.004 A 
ENDROOT
BRANCH   1  12
ATOM     12  C   LIG    1       24.913 -16.887   3.358  0.00  0.00    +0.051 C 
BRANCH  12  13
ATOM     13  C   LIG    1       25.622 -18.256   3.374  0.00  0.00    +0.089 C 
BRANCH  13  14
ATOM     14  N   LIG    1       24.769 -19.457   3.594  0.00  0.00    -0.302 NA
BRANCH  14  15
ATOM     15  C   LIG    1       25.341 -20.300   4.677  0.00  0.00    +0.084 C 
BRANCH  15  17
ATOM     16  C   LIG    1       26.984 -20.437   6.592  0.00  0.00    +0.005 C 
ATOM     17  C   LIG    1       26.716 -19.862   5.209  0.00  0.00    +0.012 C 
ENDBRANCH  15  17
ENDBRANCH  14  15
BRANCH  14  18
ATOM     18  C   LIG    1       23.367 -19.089   3.920  0.00  0.00    +0.084 C 
BRANCH  18  19
ATOM     19  C   LIG    1       22.817 -19.702   5.226  0.00  0.00    +0.012 C 
ATOM     20  C   LIG    1       21.966 -20.942   4.967  0.00  0.00    +0.005 C 
ENDBRANCH  18  19
ENDBRANCH  14  18
ENDBRANCH  13  14
ENDBRANCH  12  13
ENDBRANCH   1  12
TORSDOF 7
ENDMDL
MODEL 7
REMARK VINA RESULT:      -4.8      2.931      6.666
REMARK  Name = *****
REMARK                            x       y       z     vdW  Elec       q    Type
REMARK                         _______ _______ _______ _____ _____    ______ ____
ROOT
ATOM      1  C   LIG    1       25.822 -15.855   3.654  0.00  0.00    -0.041 A 
ATOM      2  C   LIG    1       25.357 -14.556   3.824  0.00  0.00    -0.014 A 
ATOM      3  C   LIG    1       23.956 -14.022   3.750  0.00  0.00    +0.133 C 
ATOM      4  C   LIG    1       24.160 -12.524   3.992  0.00  0.00    +0.222 C 
ATOM      5  N   LIG    1       25.521 -12.309   4.165  0.00  0.00    -0.285 N 
ATOM      6  H   LIG    1       25.912 -11.395   4.333  0.00  0.00    +0.155 HD
ATOM      7  O   LIG    1       23.294 -11.670   4.019  0.00  0.00    -0.275 OA
ATOM      8  C   LIG    1       26.231 -13.495   4.072  0.00  0.00    +0.037 A 
ATOM      9  C   LIG    1       27.594 -13.661   4.177  0.00  0.00    +0.023 A 
ATOM     10  C   LIG    1       28.082 -14.963   4.034  0.00  0.00    +0.002 A 
ATOM     11  C   LIG    1       27.209 -16.044   3.781  0.00  0.00    +0.004 A 
ENDROOT
BRANCH   1  12
ATOM     12  C   LIG    1       24.885 -16.998   3.319  0.00  0.00    +0.051 C 
BRANCH  12  13
ATOM     13  C   LIG    1       25.568 -18.378   3.404  0.00  0.00    +0.089 C 
BRANCH  13  14
ATOM     14  N   LIG    1       25.044 -19.330   4.423  0.00  0.00    -0.302 NA
BRANCH  14  15
ATOM     15  C   LIG    1       23.776 -19.943   3.947  0.00  0.00    +0.084 C 
BRANCH  15  17
ATOM     16  C   LIG    1       21.927 -18.301   4.468  0.00  0.00    +0.005 C 
ATOM     17  C   LIG    1       22.532 -19.656   4.805  0.00  0.00    +0.012 C 
ENDBRANCH  15  17
ENDBRANCH  14  15
BRANCH  14  18
ATOM     18  C   LIG    1       26.033 -20.390   4.750  0.00  0.00    +0.084 C 
BRANCH  18  19
ATOM     19  C   LIG    1       26.549 -20.376   6.204  0.00  0.00    +0.012 C 
ATOM     20  C   LIG    1       28.055 -20.137   6.279  0.00  0.00    +0.005 C 
ENDBRANCH  18  19
ENDBRANCH  14  18
ENDBRANCH  13  14
ENDBRANCH  12  13
ENDBRANCH   1  12
TORSDOF 7
ENDMDL
MODEL 8
REMARK VINA RESULT:      -4.8      2.395      5.837
REMARK  Name = *****
REMARK                            x       y       z     vdW  Elec       q    Type
REMARK                         _______ _______ _______ _____ _____    ______ ____
ROOT
ATOM      1  C   LIG    1       24.348 -18.001   3.702  0.00  0.00    -0.041 A 
ATOM      2  C   LIG    1       25.000 -16.774   3.672  0.00  0.00    -0.014 A 
ATOM      3  C   LIG    1       26.421 -16.452   3.314  0.00  0.00    +0.133 C 
ATOM      4  C   LIG    1       26.481 -14.937   3.529  0.00  0.00    +0.222 C 
ATOM      5  N   LIG    1       25.226 -14.525   3.958  0.00  0.00    -0.285 N 
ATOM      6  H   LIG    1       25.012 -13.564   4.177  0.00  0.00    +0.155 HD
ATOM      7  O   LIG    1       27.450 -14.219   3.364  0.00  0.00    -0.275 OA
ATOM      8  C   LIG    1       24.350 -15.594   4.042  0.00  0.00    +0.037 A 
ATOM      9  C   LIG    1       23.033 -15.563   4.445  0.00  0.00    +0.023 A 
ATOM     10  C   LIG    1       22.351 -16.783   4.459  0.00  0.00    +0.002 A 
ATOM     11  C   LIG    1       22.997 -17.983   4.089  0.00  0.00    +0.004 A 
ENDROOT
BRANCH   1  12
ATOM     12  C   LIG    1       25.067 -19.292   3.366  0.00  0.00    +0.051 C 
BRANCH  12  13
ATOM     13  C   LIG    1       26.072 -19.720   4.454  0.00  0.00    +0.089 C 
BRANCH  13  14
ATOM     14  N   LIG    1       25.528 -20.474   5.618  0.00  0.00    -0.302 NA
BRANCH  14  15
ATOM     15  C   LIG    1       24.581 -21.522   5.152  0.00  0.00    +0.084 C 
BRANCH  15  17
ATOM     16  C   LIG    1       23.104 -20.443   6.895  0.00  0.00    +0.005 C 
ATOM     17  C   LIG    1       23.229 -21.572   5.881  0.00  0.00    +0.012 C 
ENDBRANCH  15  17
ENDBRANCH  14  15
BRANCH  14  18
ATOM     18  C   LIG    1       26.608 -21.088   6.434  0.00  0.00    +0.084 C 
BRANCH  18  19
ATOM     19  C   LIG    1       27.728 -20.119   6.871  0.00  0.00    +0.012 C 
ATOM     20  C   LIG    1       29.119 -20.691   6.613  0.00  0.00    +0.005 C 
ENDBRANCH  18  19
ENDBRANCH  14  18
ENDBRANCH  13  14
ENDBRANCH  12  13
ENDBRANCH   1  12
TORSDOF 7
ENDMDL
MODEL 9
REMARK VINA RESULT:      -4.4      2.185      3.697
REMARK  Name = *****
REMARK                            x       y       z     vdW  Elec       q    Type
REMARK                         _______ _______ _______ _____ _____    ______ ____
ROOT
ATOM      1  C   LIG    1       24.199 -17.254   3.914  0.00  0.00    -0.041 A 
ATOM      2  C   LIG    1       23.614 -18.498   4.117  0.00  0.00    -0.014 A 
ATOM      3  C   LIG    1       22.234 -18.842   4.595  0.00  0.00    +0.133 C 
ATOM      4  C   LIG    1       22.267 -20.373   4.627  0.00  0.00    +0.222 C 
ATOM      5  N   LIG    1       23.531 -20.773   4.216  0.00  0.00    -0.285 N 
ATOM      6  H   LIG    1       23.807 -21.741   4.160  0.00  0.00    +0.155 HD
ATOM      7  O   LIG    1       21.358 -21.110   4.960  0.00  0.00    -0.275 OA
ATOM      8  C   LIG    1       24.328 -19.681   3.912  0.00  0.00    +0.037 A 
ATOM      9  C   LIG    1       25.638 -19.697   3.488  0.00  0.00    +0.023 A 
ATOM     10  C   LIG    1       26.239 -18.457   3.254  0.00  0.00    +0.002 A 
ATOM     11  C   LIG    1       25.529 -17.254   3.459  0.00  0.00    +0.004 A 
ENDROOT
BRANCH   1  12
ATOM     12  C   LIG    1       23.451 -15.967   4.200  0.00  0.00    +0.051 C 
BRANCH  12  13
ATOM     13  C   LIG    1       24.195 -14.715   3.694  0.00  0.00    +0.089 C 
BRANCH  13  14
ATOM     14  N   LIG    1       24.566 -13.691   4.710  0.00  0.00    -0.302 NA
BRANCH  14  15
ATOM     15  C   LIG    1       26.032 -13.722   4.956  0.00  0.00    +0.084 C 
BRANCH  15  17
ATOM     16  C   LIG    1       28.208 -13.334   3.729  0.00  0.00    +0.005 C 
ATOM     17  C   LIG    1       26.903 -14.118   3.752  0.00  0.00    +0.012 C 
ENDBRANCH  15  17
ENDBRANCH  14  15
BRANCH  14  18
ATOM     18  C   LIG    1       24.145 -12.326   4.301  0.00  0.00    +0.084 C 
BRANCH  18  19
ATOM     19  C   LIG    1       23.767 -12.177   2.812  0.00  0.00    +0.012 C 
ATOM     20  C   LIG    1       24.860 -11.477   2.008  0.00  0.00    +0.005 C 
ENDBRANCH  18  19
ENDBRANCH  14  18
ENDBRANCH  13  14
ENDBRANCH  12  13
ENDBRANCH   1  12
TORSDOF 7
ENDMDL
