MODEL 1
REMARK VINA RESULT:       5.4      0.000      0.000
REMARK  Name = *****
REMARK                            x       y       z     vdW  Elec       q    Type
REMARK                         _______ _______ _______ _____ _____    ______ ____
ROOT
ATOM      1  C   LIG    1       24.905 -13.521   3.719  0.00  0.00    +0.065 C 
ATOM      2  C   LIG    1       25.386 -15.023   3.708  0.00  0.00    +0.102 C 
ATOM      3  C   LIG    1       26.629 -15.110   4.648  0.00  0.00    +0.065 C 
ATOM      4  C   LIG    1       26.697 -14.313   5.750  0.00  0.00    +0.016 C 
ATOM      5  C   LIG    1       27.774 -14.325   6.811  0.00  0.00    +0.061 C 
ATOM      6  N   LIG    1       25.727 -13.340   5.943  0.00  0.00    -0.321 N 
ATOM      7  H   LIG    1       25.955 -12.657   6.666  0.00  0.00    +0.152 HD
ATOM      8  C   LIG    1       25.006 -12.812   4.882  0.00  0.00    +0.016 C 
ATOM      9  C   LIG    1       24.414 -11.447   5.153  0.00  0.00    +0.061 C 
ENDROOT
BRANCH   2  10
ATOM     10  C   LIG    1       24.243 -16.044   4.118  0.00  0.00    +0.042 A 
ATOM     11  C   LIG    1       24.309 -17.466   4.132  0.00  0.00    +0.277 A 
ATOM     12  C   LIG    1       23.274 -18.286   4.655  0.00  0.00    +0.084 A 
ATOM     13  C   LIG    1       22.081 -17.729   5.074  0.00  0.00    +0.007 A 
ATOM     14  C   LIG    1       21.931 -16.356   4.988  0.00  0.00    +0.001 A 
ATOM     15  C   LIG    1       22.989 -15.537   4.548  0.00  0.00    +0.011 A 
BRANCH  11  16
ATOM     16  N   LIG    1       25.311 -18.265   3.446  0.00  0.00    +0.080 N 
ATOM     17  O   LIG    1       25.402 -19.453   3.793  0.00  0.00    -0.576 OA
ATOM     18  O   LIG    1       25.845 -17.757   2.452  0.00  0.00    +0.042 OA
ENDBRANCH  11  16
ENDBRANCH   2  10
BRANCH   1  19
ATOM     19  C   LIG    1       24.498 -12.865   2.440  0.00  0.00    +0.337 C 
ATOM     20  O   LIG    1       23.471 -13.120   1.812  0.00  0.00    -0.245 OA
BRANCH  19  22
ATOM     21  C   LIG    1       26.869 -12.493   2.028  0.00  0.00    +0.280 C 
ATOM     22  O   LIG    1       25.503 -12.060   2.011  0.00  0.00    -0.465 OA
ENDBRANCH  19  22
ENDBRANCH   1  19
BRANCH   3  23
ATOM     23  C   LIG    1       27.757 -15.941   4.186  0.00  0.00    +0.338 C 
ATOM     24  O   LIG    1       28.126 -15.968   3.008  0.00  0.00    -0.245 OA
BRANCH  23  25
ATOM     25  O   LIG    1       28.354 -16.649   5.172  0.00  0.00    -0.454 OA
BRANCH  25  26
ATOM     26  C   LIG    1       28.941 -17.897   4.779  0.00  0.00    +0.306 C 
BRANCH  26  27
ATOM     27  C   LIG    1       28.803 -18.982   5.847  0.00  0.00    +0.168 C 
ATOM     28  O   LIG    1       29.475 -18.956   6.880  0.00  0.00    -0.294 OA
ATOM     29  C   LIG    1       27.845 -20.109   5.580  0.00  0.00    +0.090 C 
ENDBRANCH  26  27
ENDBRANCH  25  26
ENDBRANCH  23  25
ENDBRANCH   3  23
TORSDOF 8
ENDMDL
MODEL 2
REMARK VINA RESULT:       5.6      2.359      5.851
REMARK  Name = *****
REMARK                            x       y       z     vdW  Elec       q    Type
REMARK                         _______ _______ _______ _____ _____    ______ ____
ROOT
ATOM      1  C   LIG    1       23.902 -19.684   3.563  0.00  0.00    +0.065 C 
ATOM      2  C   LIG    1       25.248 -18.882   3.747  0.00  0.00    +0.102 C 
ATOM      3  C   LIG    1       24.867 -17.373   3.864  0.00  0.00    +0.065 C 
ATOM      4  C   LIG    1       23.698 -17.018   4.467  0.00  0.00    +0.016 C 
ATOM      5  C   LIG    1       23.214 -15.613   4.746  0.00  0.00    +0.061 C 
ATOM      6  N   LIG    1       22.803 -18.008   4.845  0.00  0.00    -0.321 N 
ATOM      7  H   LIG    1       21.876 -17.663   5.095  0.00  0.00    +0.152 HD
ATOM      8  C   LIG    1       22.788 -19.249   4.224  0.00  0.00    +0.016 C 
ATOM      9  C   LIG    1       21.474 -19.987   4.346  0.00  0.00    +0.061 C 
ENDROOT
BRANCH   2  10
ATOM     10  C   LIG    1       26.107 -19.388   4.982  0.00  0.00    +0.042 A 
ATOM     11  C   LIG    1       25.696 -20.256   6.032  0.00  0.00    +0.277 A 
ATOM     12  C   LIG    1       26.587 -20.763   7.014  0.00  0.00    +0.084 A 
ATOM     13  C   LIG    1       27.899 -20.331   7.062  0.00  0.00    +0.007 A 
ATOM     14  C   LIG    1       28.321 -19.409   6.121  0.00  0.00    +0.001 A 
ATOM     15  C   LIG    1       27.459 -18.971   5.096  0.00  0.00    +0.011 A 
BRANCH  11  16
ATOM     16  N   LIG    1       24.317 -20.571   6.368  0.00  0.00    +0.080 N 
ATOM     17  O   LIG    1       23.693 -19.706   7.004  0.00  0.00    -0.576 OA
ATOM     18  O   LIG    1       23.825 -21.572   5.830  0.00  0.00    +0.042 OA
ENDBRANCH  11  16
ENDBRANCH   2  10
BRANCH   1  19
ATOM     19  C   LIG    1       23.832 -20.793   2.566  0.00  0.00    +0.337 C 
ATOM     20  O   LIG    1       22.868 -21.543   2.412  0.00  0.00    -0.245 OA
BRANCH  19  22
ATOM     21  C   LIG    1       25.936 -19.826   1.812  0.00  0.00    +0.280 C 
ATOM     22  O   LIG    1       25.043 -20.936   1.970  0.00  0.00    -0.465 OA
ENDBRANCH  19  22
ENDBRANCH   1  19
BRANCH   3  23
ATOM     23  C   LIG    1       25.727 -16.411   3.148  0.00  0.00    +0.338 C 
ATOM     24  O   LIG    1       26.935 -16.596   2.978  0.00  0.00    -0.245 OA
BRANCH  23  25
ATOM     25  O   LIG    1       25.065 -15.326   2.684  0.00  0.00    -0.454 OA
BRANCH  25  26
ATOM     26  C   LIG    1       25.866 -14.164   2.435  0.00  0.00    +0.306 C 
BRANCH  26  27
ATOM     27  C   LIG    1       26.642 -13.700   3.667  0.00  0.00    +0.168 C 
ATOM     28  O   LIG    1       27.872 -13.772   3.717  0.00  0.00    -0.294 OA
ATOM     29  C   LIG    1       25.853 -13.185   4.839  0.00  0.00    +0.090 C 
ENDBRANCH  26  27
ENDBRANCH  25  26
ENDBRANCH  23  25
ENDBRANCH   3  23
TORSDOF 8
ENDMDL
MODEL 3
REMARK VINA RESULT:       6.5      2.029      3.101
REMARK  Name = *****
REMARK                            x       y       z     vdW  Elec       q    Type
REMARK                         _______ _______ _______ _____ _____    ______ ____
ROOT
ATOM      1  C   LIG    1       26.367 -14.572   3.335  0.00  0.00    +0.065 C 
ATOM      2  C   LIG    1       25.389 -15.808   3.414  0.00  0.00    +0.102 C 
ATOM      3  C   LIG    1       26.254 -17.047   3.807  0.00  0.00    +0.065 C 
ATOM      4  C   LIG    1       27.324 -16.888   4.634  0.00  0.00    +0.016 C 
ATOM      5  C   LIG    1       28.212 -17.980   5.186  0.00  0.00    +0.061 C 
ATOM      6  N   LIG    1       27.709 -15.607   5.003  0.00  0.00    -0.321 N 
ATOM      7  H   LIG    1       28.627 -15.556   5.446  0.00  0.00    +0.152 HD
ATOM      8  C   LIG    1       27.404 -14.503   4.221  0.00  0.00    +0.016 C 
ATOM      9  C   LIG    1       28.312 -13.315   4.445  0.00  0.00    +0.061 C 
ENDROOT
BRANCH   2  10
ATOM     10  C   LIG    1       24.175 -15.576   4.409  0.00  0.00    +0.042 A 
ATOM     11  C   LIG    1       23.165 -16.508   4.782  0.00  0.00    +0.277 A 
ATOM     12  C   LIG    1       22.203 -16.245   5.793  0.00  0.00    +0.084 A 
ATOM     13  C   LIG    1       22.132 -15.001   6.389  0.00  0.00    +0.007 A 
ATOM     14  C   LIG    1       23.030 -14.028   5.988  0.00  0.00    +0.001 A 
ATOM     15  C   LIG    1       24.038 -14.316   5.047  0.00  0.00    +0.011 A 
BRANCH  11  16
ATOM     16  N   LIG    1       22.848 -17.732   4.065  0.00  0.00    +0.080 N 
ATOM     17  O   LIG    1       22.726 -18.758   4.752  0.00  0.00    -0.576 OA
ATOM     18  O   LIG    1       22.533 -17.615   2.873  0.00  0.00    +0.042 OA
ENDBRANCH  11  16
ENDBRANCH   2  10
BRANCH   1  19
ATOM     19  C   LIG    1       26.235 -13.595   2.213  0.00  0.00    +0.337 C 
ATOM     20  O   LIG    1       27.133 -12.856   1.812  0.00  0.00    -0.245 OA
BRANCH  19  22
ATOM     21  C   LIG    1       24.125 -12.391   2.044  0.00  0.00    +0.280 C 
ATOM     22  O   LIG    1       24.939 -13.547   1.812  0.00  0.00    -0.465 OA
ENDBRANCH  19  22
ENDBRANCH   1  19
BRANCH   3  23
ATOM     23  C   LIG    1       25.959 -18.313   3.108  0.00  0.00    +0.338 C 
ATOM     24  O   LIG    1       25.490 -18.351   1.967  0.00  0.00    -0.245 OA
BRANCH  23  25
ATOM     25  O   LIG    1       26.268 -19.418   3.825  0.00  0.00    -0.454 OA
BRANCH  25  26
ATOM     26  C   LIG    1       25.212 -20.373   3.988  0.00  0.00    +0.306 C 
BRANCH  26  27
ATOM     27  C   LIG    1       25.096 -20.894   5.420  0.00  0.00    +0.168 C 
ATOM     28  O   LIG    1       24.000 -21.141   5.927  0.00  0.00    -0.294 OA
ATOM     29  C   LIG    1       26.364 -21.062   6.210  0.00  0.00    +0.090 C 
ENDBRANCH  26  27
ENDBRANCH  25  26
ENDBRANCH  23  25
ENDBRANCH   3  23
TORSDOF 8
ENDMDL
MODEL 4
REMARK VINA RESULT:       6.8      1.610      2.223
REMARK  Name = *****
REMARK                            x       y       z     vdW  Elec       q    Type
REMARK                         _______ _______ _______ _____ _____    ______ ____
ROOT
ATOM      1  C   LIG    1       24.594 -13.590   3.586  0.00  0.00    +0.065 C 
ATOM      2  C   LIG    1       25.460 -14.903   3.475  0.00  0.00    +0.102 C 
ATOM      3  C   LIG    1       26.667 -14.737   4.451  0.00  0.00    +0.065 C 
ATOM      4  C   LIG    1       26.503 -14.048   5.614  0.00  0.00    +0.016 C 
ATOM      5  C   LIG    1       27.528 -13.865   6.711  0.00  0.00    +0.061 C 
ATOM      6  N   LIG    1       25.304 -13.389   5.847  0.00  0.00    -0.321 N 
ATOM      7  H   LIG    1       25.330 -12.733   6.629  0.00  0.00    +0.152 HD
ATOM      8  C   LIG    1       24.485 -12.982   4.804  0.00  0.00    +0.016 C 
ATOM      9  C   LIG    1       23.545 -11.851   5.160  0.00  0.00    +0.061 C 
ENDROOT
BRANCH   2  10
ATOM     10  C   LIG    1       24.626 -16.223   3.761  0.00  0.00    +0.042 A 
ATOM     11  C   LIG    1       23.300 -16.321   4.270  0.00  0.00    +0.277 A 
ATOM     12  C   LIG    1       22.591 -17.548   4.355  0.00  0.00    +0.084 A 
ATOM     13  C   LIG    1       23.215 -18.742   4.050  0.00  0.00    +0.007 A 
ATOM     14  C   LIG    1       24.537 -18.708   3.645  0.00  0.00    +0.001 A 
ATOM     15  C   LIG    1       25.213 -17.483   3.480  0.00  0.00    +0.011 A 
BRANCH  11  16
ATOM     16  N   LIG    1       22.581 -15.255   4.950  0.00  0.00    +0.080 N 
ATOM     17  O   LIG    1       21.768 -14.614   4.267  0.00  0.00    -0.576 OA
ATOM     18  O   LIG    1       22.692 -15.206   6.182  0.00  0.00    +0.042 OA
ENDBRANCH  11  16
ENDBRANCH   2  10
BRANCH   1  19
ATOM     19  C   LIG    1       24.046 -12.958   2.349  0.00  0.00    +0.337 C 
ATOM     20  O   LIG    1       22.981 -13.265   1.813  0.00  0.00    -0.245 OA
BRANCH  19  22
ATOM     21  C   LIG    1       26.329 -12.113   2.286  0.00  0.00    +0.280 C 
ATOM     22  O   LIG    1       24.969 -12.108   1.834  0.00  0.00    -0.465 OA
ENDBRANCH  19  22
ENDBRANCH   1  19
BRANCH   3  23
ATOM     23  C   LIG    1       27.983 -15.196   3.968  0.00  0.00    +0.338 C 
ATOM     24  O   LIG    1       28.838 -14.423   3.527  0.00  0.00    -0.245 OA
BRANCH  23  25
ATOM     25  O   LIG    1       28.168 -16.533   4.071  0.00  0.00    -0.454 OA
BRANCH  25  26
ATOM     26  C   LIG    1       29.060 -16.962   5.107  0.00  0.00    +0.306 C 
BRANCH  26  27
ATOM     27  C   LIG    1       28.842 -18.419   5.515  0.00  0.00    +0.168 C 
ATOM     28  O   LIG    1       28.339 -19.235   4.740  0.00  0.00    -0.294 OA
ATOM     29  C   LIG    1       29.228 -18.821   6.912  0.00  0.00    +0.090 C 
ENDBRANCH  26  27
ENDBRANCH  25  26
ENDBRANCH  23  25
ENDBRANCH   3  23
TORSDOF 8
ENDMDL
MODEL 5
REMARK VINA RESULT:       8.4      2.490      5.026
REMARK  Name = *****
REMARK                            x       y       z     vdW  Elec       q    Type
REMARK                         _______ _______ _______ _____ _____    ______ ____
ROOT
ATOM      1  C   LIG    1       24.632 -13.046   4.091  0.00  0.00    +0.065 C 
ATOM      2  C   LIG    1       24.491 -14.521   4.633  0.00  0.00    +0.102 C 
ATOM      3  C   LIG    1       23.159 -15.093   4.055  0.00  0.00    +0.065 C 
ATOM      4  C   LIG    1       22.743 -14.711   2.816  0.00  0.00    +0.016 C 
ATOM      5  C   LIG    1       21.535 -15.227   2.067  0.00  0.00    +0.061 C 
ATOM      6  N   LIG    1       23.438 -13.715   2.145  0.00  0.00    -0.321 N 
ATOM      7  H   LIG    1       22.954 -13.342   1.328  0.00  0.00    +0.152 HD
ATOM      8  C   LIG    1       24.193 -12.771   2.827  0.00  0.00    +0.016 C 
ATOM      9  C   LIG    1       24.427 -11.491   2.056  0.00  0.00    +0.061 C 
ENDROOT
BRANCH   2  10
ATOM     10  C   LIG    1       25.743 -15.431   4.286  0.00  0.00    +0.042 A 
ATOM     11  C   LIG    1       27.115 -15.167   4.560  0.00  0.00    +0.277 A 
ATOM     12  C   LIG    1       28.148 -16.115   4.336  0.00  0.00    +0.084 A 
ATOM     13  C   LIG    1       27.873 -17.320   3.719  0.00  0.00    +0.007 A 
ATOM     14  C   LIG    1       26.568 -17.583   3.343  0.00  0.00    +0.001 A 
ATOM     15  C   LIG    1       25.531 -16.677   3.642  0.00  0.00    +0.011 A 
BRANCH  11  16
ATOM     16  N   LIG    1       27.667 -13.864   4.895  0.00  0.00    +0.080 N 
ATOM     17  O   LIG    1       27.649 -13.548   6.095  0.00  0.00    -0.576 OA
ATOM     18  O   LIG    1       28.281 -13.271   3.998  0.00  0.00    +0.042 OA
ENDBRANCH  11  16
ENDBRANCH   2  10
BRANCH   1  19
ATOM     19  C   LIG    1       25.092 -11.961   5.008  0.00  0.00    +0.337 C 
ATOM     20  O   LIG    1       26.210 -11.447   4.987  0.00  0.00    -0.245 OA
BRANCH  19  22
ATOM     21  C   LIG    1       22.786 -11.447   5.600  0.00  0.00    +0.280 C 
ATOM     22  O   LIG    1       24.144 -11.742   5.953  0.00  0.00    -0.465 OA
ENDBRANCH  19  22
ENDBRANCH   1  19
BRANCH   3  23
ATOM     23  C   LIG    1       22.325 -15.896   4.971  0.00  0.00    +0.338 C 
ATOM     24  O   LIG    1       21.959 -15.481   6.074  0.00  0.00    -0.245 OA
BRANCH  23  25
ATOM     25  O   LIG    1       21.988 -17.111   4.481  0.00  0.00    -0.454 OA
BRANCH  25  26
ATOM     26  C   LIG    1       22.275 -18.229   5.329  0.00  0.00    +0.306 C 
BRANCH  26  27
ATOM     27  C   LIG    1       22.769 -19.451   4.557  0.00  0.00    +0.168 C 
ATOM     28  O   LIG    1       23.494 -19.336   3.566  0.00  0.00    -0.294 OA
ATOM     29  C   LIG    1       22.312 -20.807   5.022  0.00  0.00    +0.090 C 
ENDBRANCH  26  27
ENDBRANCH  25  26
ENDBRANCH  23  25
ENDBRANCH   3  23
TORSDOF 8
ENDMDL
