MODEL 1
REMARK VINA RESULT:      -6.1      0.000      0.000
REMARK  Name = *****
REMARK                            x       y       z     vdW  Elec       q    Type
REMARK                         _______ _______ _______ _____ _____    ______ ____
ROOT
ATOM      1  C   LIG    1       26.467 -14.122   3.746  0.00  0.00    +0.071 C 
ATOM      2  C   LIG    1       26.491 -13.683   5.232  0.00  0.00    +0.018 C 
ATOM      3  C   LIG    1       27.890 -13.552   5.827  0.00  0.00    +0.001 C 
ATOM      4  C   LIG    1       28.723 -12.564   5.029  0.00  0.00    +0.000 C 
ATOM      5  C   LIG    1       28.803 -12.980   3.568  0.00  0.00    +0.001 C 
ATOM      6  C   LIG    1       27.418 -13.179   2.946  0.00  0.00    +0.018 C 
ENDROOT
BRANCH   1   7
ATOM      7  C   LIG    1       25.012 -14.074   3.092  0.00  0.00    +0.006 C 
ATOM      8  C   LIG    1       23.830 -13.753   4.037  0.00  0.00    +0.004 C 
ATOM      9  C   LIG    1       23.615 -12.269   4.318  0.00  0.00    +0.000 C 
ATOM     10  C   LIG    1       23.477 -11.447   3.044  0.00  0.00    +0.000 C 
ATOM     11  C   LIG    1       24.586 -11.717   2.039  0.00  0.00    +0.000 C 
ATOM     12  C   LIG    1       24.843 -13.209   1.812  0.00  0.00    +0.004 C 
ENDBRANCH   1   7
BRANCH   1  13
ATOM     13  C   LIG    1       26.981 -15.601   3.689  0.00  0.00    +0.314 C 
ATOM     14  O   LIG    1       27.985 -16.000   4.246  0.00  0.00    -0.250 OA
BRANCH  13  15
ATOM     15  O   LIG    1       26.141 -16.401   2.948  0.00  0.00    -0.463 OA
BRANCH  15  16
ATOM     16  C   LIG    1       26.080 -17.789   3.356  0.00  0.00    +0.247 C 
BRANCH  16  17
ATOM     17  C   LIG    1       24.622 -18.208   3.632  0.00  0.00    +0.125 C 
BRANCH  17  18
ATOM     18  N   LIG    1       24.418 -19.638   3.941  0.00  0.00    -0.300 NA
BRANCH  18  20
ATOM     19  C   LIG    1       25.230 -20.839   6.055  0.00  0.00    +0.020 C 
ATOM     20  C   LIG    1       25.534 -20.256   4.676  0.00  0.00    +0.081 C 
ENDBRANCH  18  20
BRANCH  18  21
ATOM     21  C   LIG    1       23.110 -19.866   4.589  0.00  0.00    +0.081 C 
ATOM     22  C   LIG    1       22.207 -18.631   4.551  0.00  0.00    +0.020 C 
ENDBRANCH  18  21
ENDBRANCH  17  18
ENDBRANCH  16  17
ENDBRANCH  15  16
ENDBRANCH  13  15
ENDBRANCH   1  13
TORSDOF 8
ENDMDL
MODEL 2
REMARK VINA RESULT:      -4.8      1.208      3.636
REMARK  Name = *****
REMARK                            x       y       z     vdW  Elec       q    Type
REMARK                         _______ _______ _______ _____ _____    ______ ____
ROOT
ATOM      1  C   LIG    1       25.315 -13.748   4.000  0.00  0.00    +0.071 C 
ATOM      2  C   LIG    1       25.456 -13.325   2.515  0.00  0.00    +0.018 C 
ATOM      3  C   LIG    1       24.208 -12.674   1.926  0.00  0.00    +0.001 C 
ATOM      4  C   LIG    1       23.811 -11.448   2.730  0.00  0.00    +0.000 C 
ATOM      5  C   LIG    1       23.583 -11.810   4.189  0.00  0.00    +0.001 C 
ATOM      6  C   LIG    1       24.791 -12.520   4.806  0.00  0.00    +0.018 C 
ENDROOT
BRANCH   1   7
ATOM      7  C   LIG    1       26.682 -14.256   4.648  0.00  0.00    +0.006 C 
ATOM      8  C   LIG    1       27.862 -14.517   3.683  0.00  0.00    +0.004 C 
ATOM      9  C   LIG    1       28.656 -13.277   3.287  0.00  0.00    +0.000 C 
ATOM     10  C   LIG    1       29.159 -12.495   4.494  0.00  0.00    +0.000 C 
ATOM     11  C   LIG    1       28.068 -12.214   5.516  0.00  0.00    +0.000 C 
ATOM     12  C   LIG    1       27.230 -13.449   5.858  0.00  0.00    +0.004 C 
ENDBRANCH   1   7
BRANCH   1  13
ATOM     13  C   LIG    1       24.281 -14.924   4.052  0.00  0.00    +0.314 C 
ATOM     14  O   LIG    1       23.118 -14.801   4.386  0.00  0.00    -0.250 OA
BRANCH  13  15
ATOM     15  O   LIG    1       24.845 -16.114   3.649  0.00  0.00    -0.463 OA
BRANCH  15  16
ATOM     16  C   LIG    1       24.085 -17.304   3.967  0.00  0.00    +0.247 C 
BRANCH  16  17
ATOM     17  C   LIG    1       24.847 -18.568   3.519  0.00  0.00    +0.125 C 
BRANCH  17  18
ATOM     18  N   LIG    1       24.251 -19.853   3.938  0.00  0.00    -0.300 NA
BRANCH  18  20
ATOM     19  C   LIG    1       26.474 -20.081   5.195  0.00  0.00    +0.020 C 
ATOM     20  C   LIG    1       25.154 -20.699   4.736  0.00  0.00    +0.081 C 
ENDBRANCH  18  20
BRANCH  18  21
ATOM     21  C   LIG    1       22.937 -19.650   4.583  0.00  0.00    +0.081 C 
ATOM     22  C   LIG    1       22.768 -20.483   5.856  0.00  0.00    +0.020 C 
ENDBRANCH  18  21
ENDBRANCH  17  18
ENDBRANCH  16  17
ENDBRANCH  15  16
ENDBRANCH  13  15
ENDBRANCH   1  13
TORSDOF 8
ENDMDL
