MODEL 1
REMARK VINA RESULT:      -6.2      0.000      0.000
REMARK  Name = *****
REMARK                            x       y       z     vdW  Elec       q    Type
REMARK                         _______ _______ _______ _____ _____    ______ ____
ROOT
ATOM      1  C   LIG    1       25.000 -13.291   2.709  0.00  0.00    +0.165 C 
ATOM      2  O   LIG    1       25.294 -12.260   2.116  0.00  0.00    -0.294 OA
ENDROOT
BRANCH   1   3
ATOM      3  C   LIG    1       25.852 -14.502   2.612  0.00  0.00    +0.223 C 
ATOM      4  C   LIG    1       27.192 -14.612   3.293  0.00  0.00    +0.240 C 
ATOM      5  O   LIG    1       27.088 -14.305   1.893  0.00  0.00    -0.350 OA
BRANCH   4   6
ATOM      6  C   LIG    1       27.740 -13.537   4.150  0.00  0.00    +0.242 C 
ATOM      7  O   LIG    1       27.287 -13.346   5.272  0.00  0.00    -0.273 OA
ATOM      8  N   LIG    1       28.768 -12.806   3.641  0.00  0.00    -0.327 N 
ATOM      9  H   LIG    1       29.099 -12.960   2.694  0.00  0.00    +0.145 HD
ATOM     10  H   LIG    1       29.204 -12.101   4.213  0.00  0.00    +0.145 HD
ENDBRANCH   4   6
ENDBRANCH   1   3
BRANCH   1  11
ATOM     11  C   LIG    1       23.730 -13.442   3.520  0.00  0.00    +0.081 C 
BRANCH  11  12
ATOM     12  C   LIG    1       23.890 -14.463   4.645  0.00  0.00    +0.034 C 
BRANCH  12  14
ATOM     13  C   LIG    1       23.076 -16.821   4.377  0.00  0.00    -0.027 C 
ATOM     14  C   LIG    1       22.823 -15.521   4.616  0.00  0.00    -0.030 C 
BRANCH  13  15
ATOM     15  C   LIG    1       22.022 -17.885   4.410  0.00  0.00    +0.053 C 
BRANCH  15  18
ATOM     16  C   LIG    1       23.322 -21.267   5.870  0.00  0.00    +0.035 C 
ATOM     17  C   LIG    1       22.715 -19.913   5.711  0.00  0.00    -0.034 C 
ATOM     18  C   LIG    1       22.636 -19.249   4.546  0.00  0.00    -0.027 C 
ENDBRANCH  15  18
ENDBRANCH  13  15
ENDBRANCH  12  14
ENDBRANCH  11  12
ENDBRANCH   1  11
TORSDOF 7
ENDMDL
MODEL 2
REMARK VINA RESULT:      -5.8      4.033      6.580
REMARK  Name = *****
REMARK                            x       y       z     vdW  Elec       q    Type
REMARK                         _______ _______ _______ _____ _____    ______ ____
ROOT
ATOM      1  C   LIG    1       22.955 -19.916   5.186  0.00  0.00    +0.165 C 
ATOM      2  O   LIG    1       22.721 -19.715   6.373  0.00  0.00    -0.294 OA
ENDROOT
BRANCH   1   3
ATOM      3  C   LIG    1       23.521 -21.207   4.725  0.00  0.00    +0.223 C 
ATOM      4  C   LIG    1       24.972 -21.572   4.905  0.00  0.00    +0.240 C 
ATOM      5  O   LIG    1       24.474 -21.090   3.647  0.00  0.00    -0.350 OA
BRANCH   4   6
ATOM      6  C   LIG    1       25.935 -20.688   5.599  0.00  0.00    +0.242 C 
ATOM      7  O   LIG    1       25.921 -20.592   6.820  0.00  0.00    -0.273 OA
ATOM      8  N   LIG    1       26.830 -20.021   4.822  0.00  0.00    -0.327 N 
ATOM      9  H   LIG    1       26.795 -20.088   3.810  0.00  0.00    +0.145 HD
ATOM     10  H   LIG    1       27.537 -19.451   5.259  0.00  0.00    +0.145 HD
ENDBRANCH   4   6
ENDBRANCH   1   3
BRANCH   1  11
ATOM     11  C   LIG    1       22.760 -18.861   4.118  0.00  0.00    +0.081 C 
BRANCH  11  12
ATOM     12  C   LIG    1       22.292 -17.532   4.708  0.00  0.00    +0.034 C 
BRANCH  12  14
ATOM     13  C   LIG    1       23.135 -15.169   4.722  0.00  0.00    -0.027 C 
ATOM     14  C   LIG    1       22.998 -16.354   4.098  0.00  0.00    -0.030 C 
BRANCH  13  15
ATOM     15  C   LIG    1       23.894 -14.015   4.141  0.00  0.00    +0.053 C 
BRANCH  15  18
ATOM     16  C   LIG    1       27.794 -14.223   4.085  0.00  0.00    +0.035 C 
ATOM     17  C   LIG    1       26.383 -13.851   4.395  0.00  0.00    -0.034 C 
ATOM     18  C   LIG    1       25.306 -14.407   3.815  0.00  0.00    -0.027 C 
ENDBRANCH  15  18
ENDBRANCH  13  15
ENDBRANCH  12  14
ENDBRANCH  11  12
ENDBRANCH   1  11
TORSDOF 7
ENDMDL
MODEL 3
REMARK VINA RESULT:      -5.8      2.068      3.156
REMARK  Name = *****
REMARK                            x       y       z     vdW  Elec       q    Type
REMARK                         _______ _______ _______ _____ _____    ______ ____
ROOT
ATOM      1  C   LIG    1       27.018 -14.271   3.985  0.00  0.00    +0.165 C 
ATOM      2  O   LIG    1       27.057 -13.873   5.144  0.00  0.00    -0.294 OA
ENDROOT
BRANCH   1   3
ATOM      3  C   LIG    1       26.797 -13.331   2.859  0.00  0.00    +0.223 C 
ATOM      4  C   LIG    1       25.453 -12.718   2.561  0.00  0.00    +0.240 C 
ATOM      5  O   LIG    1       25.943 -13.842   1.813  0.00  0.00    -0.350 OA
BRANCH   4   6
ATOM      6  C   LIG    1       24.259 -12.971   3.400  0.00  0.00    +0.242 C 
ATOM      7  O   LIG    1       23.427 -13.802   3.060  0.00  0.00    -0.273 OA
ATOM      8  N   LIG    1       24.155 -12.258   4.554  0.00  0.00    -0.327 N 
ATOM      9  H   LIG    1       24.840 -11.548   4.793  0.00  0.00    +0.145 HD
ATOM     10  H   LIG    1       23.386 -12.439   5.179  0.00  0.00    +0.145 HD
ENDBRANCH   4   6
ENDBRANCH   1   3
BRANCH   1  11
ATOM     11  C   LIG    1       27.119 -15.735   3.613  0.00  0.00    +0.081 C 
BRANCH  11  12
ATOM     12  C   LIG    1       25.743 -16.371   3.425  0.00  0.00    +0.034 C 
BRANCH  12  14
ATOM     13  C   LIG    1       24.838 -18.696   3.691  0.00  0.00    -0.027 C 
ATOM     14  C   LIG    1       25.817 -17.866   3.287  0.00  0.00    -0.030 C 
BRANCH  13  15
ATOM     15  C   LIG    1       24.883 -20.181   3.497  0.00  0.00    +0.053 C 
BRANCH  15  18
ATOM     16  C   LIG    1       23.274 -21.042   6.950  0.00  0.00    +0.035 C 
ATOM     17  C   LIG    1       23.700 -20.346   5.701  0.00  0.00    -0.034 C 
ATOM     18  C   LIG    1       24.464 -20.901   4.746  0.00  0.00    -0.027 C 
ENDBRANCH  15  18
ENDBRANCH  13  15
ENDBRANCH  12  14
ENDBRANCH  11  12
ENDBRANCH   1  11
TORSDOF 7
ENDMDL
MODEL 4
REMARK VINA RESULT:      -5.7      1.502      2.338
REMARK  Name = *****
REMARK                            x       y       z     vdW  Elec       q    Type
REMARK                         _______ _______ _______ _____ _____    ______ ____
ROOT
ATOM      1  C   LIG    1       24.043 -13.881   3.969  0.00  0.00    +0.165 C 
ATOM      2  O   LIG    1       23.511 -13.590   2.903  0.00  0.00    -0.294 OA
ENDROOT
BRANCH   1   3
ATOM      3  C   LIG    1       25.213 -13.120   4.474  0.00  0.00    +0.223 C 
ATOM      4  C   LIG    1       26.630 -13.448   4.081  0.00  0.00    +0.240 C 
ATOM      5  O   LIG    1       26.087 -13.875   5.340  0.00  0.00    -0.350 OA
BRANCH   4   6
ATOM      6  C   LIG    1       26.961 -14.526   3.122  0.00  0.00    +0.242 C 
ATOM      7  O   LIG    1       26.851 -14.340   1.916  0.00  0.00    -0.273 OA
ATOM      8  N   LIG    1       27.406 -15.700   3.645  0.00  0.00    -0.327 N 
ATOM      9  H   LIG    1       27.452 -15.841   4.649  0.00  0.00    +0.145 HD
ATOM     10  H   LIG    1       27.693 -16.440   3.024  0.00  0.00    +0.145 HD
ENDBRANCH   4   6
ENDBRANCH   1   3
BRANCH   1  11
ATOM     11  C   LIG    1       23.610 -15.061   4.811  0.00  0.00    +0.081 C 
BRANCH  11  12
ATOM     12  C   LIG    1       22.570 -15.922   4.095  0.00  0.00    +0.034 C 
BRANCH  12  14
ATOM     13  C   LIG    1       22.450 -18.425   4.209  0.00  0.00    -0.027 C 
ATOM     14  C   LIG    1       22.319 -17.224   4.801  0.00  0.00    -0.030 C 
BRANCH  13  15
ATOM     15  C   LIG    1       22.261 -19.725   4.930  0.00  0.00    +0.053 C 
BRANCH  15  18
ATOM     16  C   LIG    1       25.912 -20.720   5.901  0.00  0.00    +0.035 C 
ATOM     17  C   LIG    1       24.679 -20.352   5.144  0.00  0.00    -0.034 C 
ATOM     18  C   LIG    1       23.490 -20.092   5.711  0.00  0.00    -0.027 C 
ENDBRANCH  15  18
ENDBRANCH  13  15
ENDBRANCH  12  14
ENDBRANCH  11  12
ENDBRANCH   1  11
TORSDOF 7
ENDMDL
MODEL 5
REMARK VINA RESULT:      -5.4      4.741      7.624
REMARK  Name = *****
REMARK                            x       y       z     vdW  Elec       q    Type
REMARK                         _______ _______ _______ _____ _____    ______ ____
ROOT
ATOM      1  C   LIG    1       25.244 -20.465   4.011  0.00  0.00    +0.165 C 
ATOM      2  O   LIG    1       24.703 -20.781   2.957  0.00  0.00    -0.294 OA
ENDROOT
BRANCH   1   3
ATOM      3  C   LIG    1       25.084 -21.292   5.232  0.00  0.00    +0.223 C 
ATOM      4  C   LIG    1       23.772 -21.423   5.962  0.00  0.00    +0.240 C 
ATOM      5  O   LIG    1       24.803 -20.539   6.431  0.00  0.00    -0.350 OA
BRANCH   4   6
ATOM      6  C   LIG    1       22.530 -20.772   5.489  0.00  0.00    +0.242 C 
ATOM      7  O   LIG    1       22.369 -19.567   5.627  0.00  0.00    -0.273 OA
ATOM      8  N   LIG    1       21.609 -21.570   4.884  0.00  0.00    -0.327 N 
ATOM      9  H   LIG    1       21.751 -22.573   4.816  0.00  0.00    +0.145 HD
ATOM     10  H   LIG    1       20.774 -21.158   4.500  0.00  0.00    +0.145 HD
ENDBRANCH   4   6
ENDBRANCH   1   3
BRANCH   1  11
ATOM     11  C   LIG    1       26.047 -19.192   4.176  0.00  0.00    +0.081 C 
BRANCH  11  12
ATOM     12  C   LIG    1       25.502 -18.059   3.308  0.00  0.00    +0.034 C 
BRANCH  12  14
ATOM     13  C   LIG    1       26.004 -15.602   3.400  0.00  0.00    -0.027 C 
ATOM     14  C   LIG    1       26.426 -16.874   3.268  0.00  0.00    -0.030 C 
BRANCH  13  15
ATOM     15  C   LIG    1       26.931 -14.425   3.424  0.00  0.00    +0.053 C 
BRANCH  15  18
ATOM     16  C   LIG    1       24.520 -11.786   1.848  0.00  0.00    +0.035 C 
ATOM     17  C   LIG    1       25.090 -12.912   2.646  0.00  0.00    -0.034 C 
ATOM     18  C   LIG    1       26.379 -13.288   2.614  0.00  0.00    -0.027 C 
ENDBRANCH  15  18
ENDBRANCH  13  15
ENDBRANCH  12  14
ENDBRANCH  11  12
ENDBRANCH   1  11
TORSDOF 7
ENDMDL
MODEL 6
REMARK VINA RESULT:      -5.0      4.271      6.901
REMARK  Name = *****
REMARK                            x       y       z     vdW  Elec       q    Type
REMARK                         _______ _______ _______ _____ _____    ______ ____
ROOT
ATOM      1  C   LIG    1       22.128 -18.589   4.409  0.00  0.00    +0.165 C 
ATOM      2  O   LIG    1       21.109 -18.777   3.755  0.00  0.00    -0.294 OA
ENDROOT
BRANCH   1   3
ATOM      3  C   LIG    1       22.563 -19.559   5.445  0.00  0.00    +0.223 C 
ATOM      4  C   LIG    1       23.631 -20.593   5.196  0.00  0.00    +0.240 C 
ATOM      5  O   LIG    1       22.236 -20.934   5.151  0.00  0.00    -0.350 OA
BRANCH   4   6
ATOM      6  C   LIG    1       24.361 -20.690   3.912  0.00  0.00    +0.242 C 
ATOM      7  O   LIG    1       25.363 -20.014   3.715  0.00  0.00    -0.273 OA
ATOM      8  N   LIG    1       23.879 -21.571   2.994  0.00  0.00    -0.327 N 
ATOM      9  H   LIG    1       23.024 -22.091   3.168  0.00  0.00    +0.145 HD
ATOM     10  H   LIG    1       24.377 -21.706   2.130  0.00  0.00    +0.145 HD
ENDBRANCH   4   6
ENDBRANCH   1   3
BRANCH   1  11
ATOM     11  C   LIG    1       22.978 -17.344   4.273  0.00  0.00    +0.081 C 
BRANCH  11  12
ATOM     12  C   LIG    1       22.324 -16.133   4.937  0.00  0.00    +0.034 C 
BRANCH  12  14
ATOM     13  C   LIG    1       24.048 -14.708   3.799  0.00  0.00    -0.027 C 
ATOM     14  C   LIG    1       23.143 -14.882   4.780  0.00  0.00    -0.030 C 
BRANCH  13  15
ATOM     15  C   LIG    1       24.819 -13.438   3.605  0.00  0.00    +0.053 C 
BRANCH  15  18
ATOM     16  C   LIG    1       28.717 -13.276   3.783  0.00  0.00    +0.035 C 
ATOM     17  C   LIG    1       27.294 -13.128   3.359  0.00  0.00    -0.034 C 
ATOM     18  C   LIG    1       26.243 -13.597   4.052  0.00  0.00    -0.027 C 
ENDBRANCH  15  18
ENDBRANCH  13  15
ENDBRANCH  12  14
ENDBRANCH  11  12
ENDBRANCH   1  11
TORSDOF 7
ENDMDL
MODEL 7
REMARK VINA RESULT:      -4.9      1.309      1.851
REMARK  Name = *****
REMARK                            x       y       z     vdW  Elec       q    Type
REMARK                         _______ _______ _______ _____ _____    ______ ____
ROOT
ATOM      1  C   LIG    1       25.399 -15.143   3.423  0.00  0.00    +0.165 C 
ATOM      2  O   LIG    1       25.962 -16.223   3.291  0.00  0.00    -0.294 OA
ENDROOT
BRANCH   1   3
ATOM      3  C   LIG    1       25.689 -14.010   2.510  0.00  0.00    +0.223 C 
ATOM      4  C   LIG    1       26.832 -13.054   2.735  0.00  0.00    +0.240 C 
ATOM      5  O   LIG    1       25.485 -12.706   3.094  0.00  0.00    -0.350 OA
BRANCH   4   6
ATOM      6  C   LIG    1       27.782 -13.201   3.861  0.00  0.00    +0.242 C 
ATOM      7  O   LIG    1       27.381 -13.188   5.018  0.00  0.00    -0.273 OA
ATOM      8  N   LIG    1       29.094 -13.371   3.541  0.00  0.00    -0.327 N 
ATOM      9  H   LIG    1       29.404 -13.340   2.575  0.00  0.00    +0.145 HD
ATOM     10  H   LIG    1       29.765 -13.528   4.275  0.00  0.00    +0.145 HD
ENDBRANCH   4   6
ENDBRANCH   1   3
BRANCH   1  11
ATOM     11  C   LIG    1       24.430 -14.851   4.549  0.00  0.00    +0.081 C 
BRANCH  11  12
ATOM     12  C   LIG    1       22.999 -15.243   4.186  0.00  0.00    +0.034 C 
BRANCH  12  14
ATOM     13  C   LIG    1       22.413 -17.681   4.083  0.00  0.00    -0.027 C 
ATOM     14  C   LIG    1       22.591 -16.554   4.797  0.00  0.00    -0.030 C 
BRANCH  13  15
ATOM     15  C   LIG    1       22.069 -19.002   4.700  0.00  0.00    +0.053 C 
BRANCH  15  18
ATOM     16  C   LIG    1       25.703 -20.432   4.642  0.00  0.00    +0.035 C 
ATOM     17  C   LIG    1       24.461 -19.661   4.343  0.00  0.00    -0.034 C 
ATOM     18  C   LIG    1       23.307 -19.788   5.020  0.00  0.00    -0.027 C 
ENDBRANCH  15  18
ENDBRANCH  13  15
ENDBRANCH  12  14
ENDBRANCH  11  12
ENDBRANCH   1  11
TORSDOF 7
ENDMDL
MODEL 8
REMARK VINA RESULT:      -4.9      2.009      3.023
REMARK  Name = *****
REMARK                            x       y       z     vdW  Elec       q    Type
REMARK                         _______ _______ _______ _____ _____    ______ ____
ROOT
ATOM      1  C   LIG    1       26.260 -15.385   3.709  0.00  0.00    +0.165 C 
ATOM      2  O   LIG    1       27.482 -15.292   3.728  0.00  0.00    -0.294 OA
ENDROOT
BRANCH   1   3
ATOM      3  C   LIG    1       25.410 -14.477   4.517  0.00  0.00    +0.223 C 
ATOM      4  C   LIG    1       24.847 -13.188   3.973  0.00  0.00    +0.240 C 
ATOM      5  O   LIG    1       26.013 -13.199   4.813  0.00  0.00    -0.350 OA
BRANCH   4   6
ATOM      6  C   LIG    1       25.063 -12.753   2.575  0.00  0.00    +0.242 C 
ATOM      7  O   LIG    1       26.197 -12.620   2.134  0.00  0.00    -0.273 OA
ATOM      8  N   LIG    1       23.952 -12.537   1.820  0.00  0.00    -0.327 N 
ATOM      9  H   LIG    1       23.023 -12.617   2.221  0.00  0.00    +0.145 HD
ATOM     10  H   LIG    1       24.055 -12.292   0.849  0.00  0.00    +0.145 HD
ENDBRANCH   4   6
ENDBRANCH   1   3
BRANCH   1  11
ATOM     11  C   LIG    1       25.527 -16.458   2.932  0.00  0.00    +0.081 C 
BRANCH  11  12
ATOM     12  C   LIG    1       25.935 -17.861   3.376  0.00  0.00    +0.034 C 
BRANCH  12  14
ATOM     13  C   LIG    1       23.499 -18.213   3.866  0.00  0.00    -0.027 C 
ATOM     14  C   LIG    1       24.765 -18.673   3.856  0.00  0.00    -0.030 C 
BRANCH  13  15
ATOM     15  C   LIG    1       22.324 -19.043   4.285  0.00  0.00    +0.053 C 
BRANCH  15  18
ATOM     16  C   LIG    1       23.513 -21.521   7.061  0.00  0.00    +0.035 C 
ATOM     17  C   LIG    1       23.067 -20.304   6.320  0.00  0.00    -0.034 C 
ATOM     18  C   LIG    1       22.769 -20.280   5.011  0.00  0.00    -0.027 C 
ENDBRANCH  15  18
ENDBRANCH  13  15
ENDBRANCH  12  14
ENDBRANCH  11  12
ENDBRANCH   1  11
TORSDOF 7
ENDMDL
MODEL 9
REMARK VINA RESULT:      -4.7      4.495      7.068
REMARK  Name = *****
REMARK                            x       y       z     vdW  Elec       q    Type
REMARK                         _______ _______ _______ _____ _____    ______ ____
ROOT
ATOM      1  C   LIG    1       23.300 -19.406   4.128  0.00  0.00    +0.165 C 
ATOM      2  O   LIG    1       22.173 -19.370   4.608  0.00  0.00    -0.294 OA
ENDROOT
BRANCH   1   3
ATOM      3  C   LIG    1       23.999 -20.696   3.908  0.00  0.00    +0.223 C 
ATOM      4  C   LIG    1       24.530 -21.538   5.039  0.00  0.00    +0.240 C 
ATOM      5  O   LIG    1       25.396 -20.688   4.270  0.00  0.00    -0.350 OA
BRANCH   4   6
ATOM      6  C   LIG    1       24.354 -21.165   6.460  0.00  0.00    +0.242 C 
ATOM      7  O   LIG    1       25.242 -20.575   7.062  0.00  0.00    -0.273 OA
ATOM      8  N   LIG    1       23.166 -21.487   7.039  0.00  0.00    -0.327 N 
ATOM      9  H   LIG    1       22.461 -22.010   6.529  0.00  0.00    +0.145 HD
ATOM     10  H   LIG    1       22.985 -21.203   7.988  0.00  0.00    +0.145 HD
ENDBRANCH   4   6
ENDBRANCH   1   3
BRANCH   1  11
ATOM     11  C   LIG    1       24.092 -18.161   3.790  0.00  0.00    +0.081 C 
BRANCH  11  12
ATOM     12  C   LIG    1       25.507 -18.496   3.321  0.00  0.00    +0.034 C 
BRANCH  12  14
ATOM     13  C   LIG    1       25.958 -16.027   3.332  0.00  0.00    -0.027 C 
ATOM     14  C   LIG    1       26.411 -17.295   3.324  0.00  0.00    -0.030 C 
BRANCH  13  15
ATOM     15  C   LIG    1       26.857 -14.831   3.399  0.00  0.00    +0.053 C 
BRANCH  15  18
ATOM     16  C   LIG    1       23.907 -12.272   3.489  0.00  0.00    +0.035 C 
ATOM     17  C   LIG    1       24.719 -13.525   3.463  0.00  0.00    -0.034 C 
ATOM     18  C   LIG    1       26.061 -13.558   3.428  0.00  0.00    -0.027 C 
ENDBRANCH  15  18
ENDBRANCH  13  15
ENDBRANCH  12  14
ENDBRANCH  11  12
ENDBRANCH   1  11
TORSDOF 7
ENDMDL
