MODEL 1
REMARK VINA RESULT:      -8.2      0.000      0.000
REMARK  Name = *****
REMARK                            x       y       z     vdW  Elec       q    Type
REMARK                         _______ _______ _______ _____ _____    ______ ____
ROOT
ATOM      1  C   LIG    1       25.600 -25.912   6.455  0.00  0.00    +0.265 C 
ATOM      2  N   LIG    1       24.517 -25.095   6.709  0.00  0.00    -0.307 N 
ATOM      3  H   LIG    1       23.645 -25.579   6.907  0.00  0.00    +0.149 HD
ATOM      4  O   LIG    1       26.694 -25.484   6.105  0.00  0.00    -0.268 OA
ENDROOT
BRANCH   1  12
ATOM      5  C   LIG    1       23.739 -30.309   5.629  0.00  0.00    +0.173 C 
ATOM      6  N   LIG    1       24.523 -29.285   6.279  0.00  0.00    -0.266 N 
ATOM      7  C   LIG    1       25.240 -29.433   7.439  0.00  0.00    +0.069 A 
ATOM      8  C   LIG    1       25.743 -28.165   7.716  0.00  0.00    +0.032 A 
ATOM      9  C   LIG    1       26.515 -27.973   8.879  0.00  0.00    +0.012 A 
ATOM     10  C   LIG    1       26.786 -29.068   9.705  0.00  0.00    +0.001 A 
ATOM     11  C   LIG    1       26.285 -30.332   9.397  0.00  0.00    +0.002 A 
ATOM     12  C   LIG    1       25.309 -27.343   6.637  0.00  0.00    +0.155 A 
ATOM     13  C   LIG    1       25.490 -30.539   8.263  0.00  0.00    +0.028 A 
ATOM     14  N   LIG    1       24.583 -28.048   5.742  0.00  0.00    -0.166 NA
ENDBRANCH   1  12
BRANCH   2  15
ATOM     15  C   LIG    1       24.559 -23.651   6.541  0.00  0.00    +0.076 C 
ATOM     16  C   LIG    1       24.731 -23.249   5.070  0.00  0.00    +0.041 C 
ATOM     17  C   LIG    1       24.466 -21.755   4.799  0.00  0.00    +0.058 C 
ATOM     18  N   LIG    1       23.133 -21.429   5.328  0.00  0.00    -0.299 NA
ATOM     19  C   LIG    1       23.133 -21.526   6.794  0.00  0.00    +0.058 C 
ATOM     20  C   LIG    1       24.160 -20.589   7.457  0.00  0.00    +0.019 C 
ATOM     21  C   LIG    1       25.564 -20.652   6.862  0.00  0.00    +0.003 C 
ATOM     22  C   LIG    1       22.609 -20.158   4.837  0.00  0.00    +0.105 C 
ATOM     23  C   LIG    1       25.564 -20.820   5.344  0.00  0.00    +0.019 C 
ATOM     24  C   LIG    1       23.319 -23.007   7.166  0.00  0.00    +0.041 C 
ENDBRANCH   2  15
TORSDOF 2
ENDMDL
MODEL 2
REMARK VINA RESULT:      -8.1      1.064      1.752
REMARK  Name = *****
REMARK                            x       y       z     vdW  Elec       q    Type
REMARK                         _______ _______ _______ _____ _____    ______ ____
ROOT
ATOM      1  C   LIG    1       25.162 -26.700   5.836  0.00  0.00    +0.265 C 
ATOM      2  N   LIG    1       24.467 -25.812   6.631  0.00  0.00    -0.307 N 
ATOM      3  H   LIG    1       23.907 -26.234   7.367  0.00  0.00    +0.149 HD
ATOM      4  O   LIG    1       25.803 -26.356   4.849  0.00  0.00    -0.268 OA
ENDROOT
BRANCH   1  12
ATOM      5  C   LIG    1       23.888 -31.375   5.858  0.00  0.00    +0.173 C 
ATOM      6  N   LIG    1       24.524 -30.156   6.301  0.00  0.00    -0.266 N 
ATOM      7  C   LIG    1       25.234 -29.992   7.464  0.00  0.00    +0.069 A 
ATOM      8  C   LIG    1       25.567 -28.642   7.496  0.00  0.00    +0.032 A 
ATOM      9  C   LIG    1       26.287 -28.140   8.597  0.00  0.00    +0.012 A 
ATOM     10  C   LIG    1       26.680 -29.018   9.612  0.00  0.00    +0.001 A 
ATOM     11  C   LIG    1       26.349 -30.370   9.549  0.00  0.00    +0.002 A 
ATOM     12  C   LIG    1       25.052 -28.098   6.285  0.00  0.00    +0.155 A 
ATOM     13  C   LIG    1       25.607 -30.884   8.479  0.00  0.00    +0.028 A 
ATOM     14  N   LIG    1       24.437 -29.044   5.542  0.00  0.00    -0.166 NA
ENDBRANCH   1  12
BRANCH   2  15
ATOM     15  C   LIG    1       24.391 -24.388   6.346  0.00  0.00    +0.076 C 
ATOM     16  C   LIG    1       23.010 -23.808   6.683  0.00  0.00    +0.041 C 
ATOM     17  C   LIG    1       22.971 -22.267   6.701  0.00  0.00    +0.058 C 
ATOM     18  N   LIG    1       24.025 -21.799   7.613  0.00  0.00    -0.299 NA
ATOM     19  C   LIG    1       25.350 -22.110   7.059  0.00  0.00    +0.058 C 
ATOM     20  C   LIG    1       25.586 -21.472   5.677  0.00  0.00    +0.019 C 
ATOM     21  C   LIG    1       24.458 -21.687   4.670  0.00  0.00    +0.003 C 
ATOM     22  C   LIG    1       23.879 -20.398   7.999  0.00  0.00    +0.105 C 
ATOM     23  C   LIG    1       23.070 -21.626   5.303  0.00  0.00    +0.019 C 
ATOM     24  C   LIG    1       25.514 -23.640   7.068  0.00  0.00    +0.041 C 
ENDBRANCH   2  15
TORSDOF 2
ENDMDL
MODEL 3
REMARK VINA RESULT:      -7.8      1.822      7.785
REMARK  Name = *****
REMARK                            x       y       z     vdW  Elec       q    Type
REMARK                         _______ _______ _______ _____ _____    ______ ____
ROOT
ATOM      1  C   LIG    1       25.920 -26.326   6.107  0.00  0.00    +0.265 C 
ATOM      2  N   LIG    1       25.357 -27.159   7.050  0.00  0.00    -0.307 N 
ATOM      3  H   LIG    1       25.033 -26.700   7.898  0.00  0.00    +0.149 HD
ATOM      4  O   LIG    1       26.444 -26.735   5.077  0.00  0.00    -0.268 OA
ENDROOT
BRANCH   1  12
ATOM      5  C   LIG    1       27.347 -21.857   7.320  0.00  0.00    +0.173 C 
ATOM      6  N   LIG    1       26.442 -22.927   6.970  0.00  0.00    -0.266 N 
ATOM      7  C   LIG    1       25.073 -22.851   6.946  0.00  0.00    +0.069 A 
ATOM      8  C   LIG    1       24.645 -24.140   6.645  0.00  0.00    +0.032 A 
ATOM      9  C   LIG    1       23.264 -24.404   6.573  0.00  0.00    +0.012 A 
ATOM     10  C   LIG    1       22.358 -23.357   6.770  0.00  0.00    +0.001 A 
ATOM     11  C   LIG    1       22.811 -22.071   7.054  0.00  0.00    +0.002 A 
ATOM     12  C   LIG    1       25.836 -24.899   6.460  0.00  0.00    +0.155 A 
ATOM     13  C   LIG    1       24.179 -21.792   7.160  0.00  0.00    +0.028 A 
ATOM     14  N   LIG    1       26.938 -24.136   6.634  0.00  0.00    -0.166 NA
ENDBRANCH   1  12
BRANCH   2  15
ATOM     15  C   LIG    1       25.373 -28.609   6.935  0.00  0.00    +0.076 C 
ATOM     16  C   LIG    1       25.505 -29.292   8.303  0.00  0.00    +0.041 C 
ATOM     17  C   LIG    1       25.212 -30.805   8.273  0.00  0.00    +0.058 C 
ATOM     18  N   LIG    1       23.887 -30.997   7.664  0.00  0.00    -0.299 NA
ATOM     19  C   LIG    1       23.922 -30.617   6.245  0.00  0.00    +0.058 C 
ATOM     20  C   LIG    1       24.950 -31.427   5.433  0.00  0.00    +0.019 C 
ATOM     21  C   LIG    1       26.341 -31.508   6.058  0.00  0.00    +0.003 C 
ATOM     22  C   LIG    1       23.333 -32.329   7.889  0.00  0.00    +0.105 C 
ATOM     23  C   LIG    1       26.308 -31.637   7.579  0.00  0.00    +0.019 C 
ATOM     24  C   LIG    1       24.139 -29.096   6.173  0.00  0.00    +0.041 C 
ENDBRANCH   2  15
TORSDOF 2
ENDMDL
MODEL 4
REMARK VINA RESULT:      -7.7      5.276      7.938
REMARK  Name = *****
REMARK                            x       y       z     vdW  Elec       q    Type
REMARK                         _______ _______ _______ _____ _____    ______ ____
ROOT
ATOM      1  C   LIG    1       28.123 -20.040   6.665  0.00  0.00    +0.265 C 
ATOM      2  N   LIG    1       26.975 -20.587   7.200  0.00  0.00    -0.307 N 
ATOM      3  H   LIG    1       27.095 -21.060   8.092  0.00  0.00    +0.149 HD
ATOM      4  O   LIG    1       28.165 -19.524   5.554  0.00  0.00    -0.268 OA
ENDROOT
BRANCH   1  12
ATOM      5  C   LIG    1       31.706 -22.040   9.242  0.00  0.00    +0.173 C 
ATOM      6  N   LIG    1       30.883 -20.998   8.672  0.00  0.00    -0.266 N 
ATOM      7  C   LIG    1       30.991 -19.654   8.927  0.00  0.00    +0.069 A 
ATOM      8  C   LIG    1       29.938 -19.069   8.231  0.00  0.00    +0.032 A 
ATOM      9  C   LIG    1       29.753 -17.675   8.313  0.00  0.00    +0.012 A 
ATOM     10  C   LIG    1       30.653 -16.911   9.062  0.00  0.00    +0.001 A 
ATOM     11  C   LIG    1       31.710 -17.518   9.737  0.00  0.00    +0.002 A 
ATOM     12  C   LIG    1       29.291 -20.143   7.554  0.00  0.00    +0.155 A 
ATOM     13  C   LIG    1       31.895 -18.905   9.694  0.00  0.00    +0.028 A 
ATOM     14  N   LIG    1       29.898 -21.323   7.809  0.00  0.00    -0.166 NA
ENDBRANCH   1  12
BRANCH   2  15
ATOM     15  C   LIG    1       25.716 -20.646   6.476  0.00  0.00    +0.076 C 
ATOM     16  C   LIG    1       25.597 -21.923   5.632  0.00  0.00    +0.041 C 
ATOM     17  C   LIG    1       24.174 -22.188   5.103  0.00  0.00    +0.058 C 
ATOM     18  N   LIG    1       23.255 -22.175   6.251  0.00  0.00    -0.299 NA
ATOM     19  C   LIG    1       23.172 -20.822   6.818  0.00  0.00    +0.058 C 
ATOM     20  C   LIG    1       22.689 -19.773   5.799  0.00  0.00    +0.019 C 
ATOM     21  C   LIG    1       23.411 -19.806   4.453  0.00  0.00    +0.003 C 
ATOM     22  C   LIG    1       21.947 -22.753   5.954  0.00  0.00    +0.105 C 
ATOM     23  C   LIG    1       23.737 -21.222   3.984  0.00  0.00    +0.019 C 
ATOM     24  C   LIG    1       24.540 -20.492   7.443  0.00  0.00    +0.041 C 
ENDBRANCH   2  15
TORSDOF 2
ENDMDL
MODEL 5
REMARK VINA RESULT:      -7.2      5.647      7.865
REMARK  Name = *****
REMARK                            x       y       z     vdW  Elec       q    Type
REMARK                         _______ _______ _______ _____ _____    ______ ____
ROOT
ATOM      1  C   LIG    1       27.379 -20.362   7.846  0.00  0.00    +0.265 C 
ATOM      2  N   LIG    1       27.166 -20.427   6.484  0.00  0.00    -0.307 N 
ATOM      3  H   LIG    1       28.007 -20.414   5.912  0.00  0.00    +0.149 HD
ATOM      4  O   LIG    1       26.469 -20.270   8.663  0.00  0.00    -0.268 OA
ENDROOT
BRANCH   1  12
ATOM      5  C   LIG    1       31.719 -22.192   8.983  0.00  0.00    +0.173 C 
ATOM      6  N   LIG    1       30.719 -21.190   8.698  0.00  0.00    -0.266 N 
ATOM      7  C   LIG    1       30.890 -19.831   8.786  0.00  0.00    +0.069 A 
ATOM      8  C   LIG    1       29.638 -19.291   8.509  0.00  0.00    +0.032 A 
ATOM      9  C   LIG    1       29.471 -17.894   8.547  0.00  0.00    +0.012 A 
ATOM     10  C   LIG    1       30.575 -17.082   8.829  0.00  0.00    +0.001 A 
ATOM     11  C   LIG    1       31.822 -17.647   9.088  0.00  0.00    +0.002 A 
ATOM     12  C   LIG    1       28.802 -20.408   8.220  0.00  0.00    +0.155 A 
ATOM     13  C   LIG    1       32.004 -19.035   9.084  0.00  0.00    +0.028 A 
ATOM     14  N   LIG    1       29.484 -21.571   8.310  0.00  0.00    -0.166 NA
ENDBRANCH   1  12
BRANCH   2  15
ATOM     15  C   LIG    1       25.844 -20.344   5.886  0.00  0.00    +0.076 C 
ATOM     16  C   LIG    1       25.874 -19.641   4.522  0.00  0.00    +0.041 C 
ATOM     17  C   LIG    1       24.574 -19.805   3.709  0.00  0.00    +0.058 C 
ATOM     18  N   LIG    1       24.285 -21.243   3.604  0.00  0.00    -0.299 NA
ATOM     19  C   LIG    1       23.945 -21.788   4.926  0.00  0.00    +0.058 C 
ATOM     20  C   LIG    1       22.727 -21.095   5.565  0.00  0.00    +0.019 C 
ATOM     21  C   LIG    1       22.778 -19.568   5.552  0.00  0.00    +0.003 C 
ATOM     22  C   LIG    1       23.295 -21.563   2.579  0.00  0.00    +0.105 C 
ATOM     23  C   LIG    1       23.384 -19.001   4.270  0.00  0.00    +0.019 C 
ATOM     24  C   LIG    1       25.213 -21.735   5.795  0.00  0.00    +0.041 C 
ENDBRANCH   2  15
TORSDOF 2
ENDMDL
MODEL 6
REMARK VINA RESULT:      -7.1      1.525      7.530
REMARK  Name = *****
REMARK                            x       y       z     vdW  Elec       q    Type
REMARK                         _______ _______ _______ _____ _____    ______ ____
ROOT
ATOM      1  C   LIG    1       25.838 -25.920   5.874  0.00  0.00    +0.265 C 
ATOM      2  N   LIG    1       24.795 -26.778   6.153  0.00  0.00    -0.307 N 
ATOM      3  H   LIG    1       23.891 -26.333   6.287  0.00  0.00    +0.149 HD
ATOM      4  O   LIG    1       27.004 -26.288   5.784  0.00  0.00    -0.268 OA
ENDROOT
BRANCH   1  12
ATOM      5  C   LIG    1       24.015 -21.951   3.775  0.00  0.00    +0.173 C 
ATOM      6  N   LIG    1       24.599 -22.774   4.809  0.00  0.00    -0.266 N 
ATOM      7  C   LIG    1       25.013 -22.344   6.044  0.00  0.00    +0.069 A 
ATOM      8  C   LIG    1       25.583 -23.463   6.643  0.00  0.00    +0.032 A 
ATOM      9  C   LIG    1       26.137 -23.343   7.932  0.00  0.00    +0.012 A 
ATOM     10  C   LIG    1       26.069 -22.112   8.592  0.00  0.00    +0.001 A 
ATOM     11  C   LIG    1       25.478 -21.009   7.977  0.00  0.00    +0.002 A 
ATOM     12  C   LIG    1       25.416 -24.520   5.703  0.00  0.00    +0.155 A 
ATOM     13  C   LIG    1       24.948 -21.098   6.684  0.00  0.00    +0.028 A 
ATOM     14  N   LIG    1       24.783 -24.092   4.588  0.00  0.00    -0.166 NA
ENDBRANCH   1  12
BRANCH   2  15
ATOM     15  C   LIG    1       24.986 -28.196   6.414  0.00  0.00    +0.076 C 
ATOM     16  C   LIG    1       25.190 -28.482   7.908  0.00  0.00    +0.041 C 
ATOM     17  C   LIG    1       25.080 -29.976   8.275  0.00  0.00    +0.058 C 
ATOM     18  N   LIG    1       23.792 -30.472   7.769  0.00  0.00    -0.299 NA
ATOM     19  C   LIG    1       23.790 -30.470   6.300  0.00  0.00    +0.058 C 
ATOM     20  C   LIG    1       24.913 -31.336   5.698  0.00  0.00    +0.019 C 
ATOM     21  C   LIG    1       26.300 -31.088   6.287  0.00  0.00    +0.003 C 
ATOM     22  C   LIG    1       23.400 -31.757   8.342  0.00  0.00    +0.105 C 
ATOM     23  C   LIG    1       26.273 -30.824   7.791  0.00  0.00    +0.019 C 
ATOM     24  C   LIG    1       23.824 -29.004   5.833  0.00  0.00    +0.041 C 
ENDBRANCH   2  15
TORSDOF 2
ENDMDL
MODEL 7
REMARK VINA RESULT:      -7.0      1.350      2.338
REMARK  Name = *****
REMARK                            x       y       z     vdW  Elec       q    Type
REMARK                         _______ _______ _______ _____ _____    ______ ____
ROOT
ATOM      1  C   LIG    1       25.986 -25.911   6.554  0.00  0.00    +0.265 C 
ATOM      2  N   LIG    1       25.557 -24.865   7.345  0.00  0.00    -0.307 N 
ATOM      3  H   LIG    1       25.164 -25.132   8.244  0.00  0.00    +0.149 HD
ATOM      4  O   LIG    1       26.392 -25.761   5.407  0.00  0.00    -0.268 OA
ENDROOT
BRANCH   1  12
ATOM      5  C   LIG    1       26.778 -29.410   9.811  0.00  0.00    +0.173 C 
ATOM      6  N   LIG    1       26.216 -28.761   8.649  0.00  0.00    -0.266 N 
ATOM      7  C   LIG    1       25.390 -29.343   7.721  0.00  0.00    +0.069 A 
ATOM      8  C   LIG    1       25.190 -28.364   6.752  0.00  0.00    +0.032 A 
ATOM      9  C   LIG    1       24.395 -28.663   5.630  0.00  0.00    +0.012 A 
ATOM     10  C   LIG    1       23.795 -29.924   5.535  0.00  0.00    +0.001 A 
ATOM     11  C   LIG    1       23.997 -30.881   6.527  0.00  0.00    +0.002 A 
ATOM     12  C   LIG    1       25.901 -27.221   7.219  0.00  0.00    +0.155 A 
ATOM     13  C   LIG    1       24.809 -30.616   7.636  0.00  0.00    +0.028 A 
ATOM     14  N   LIG    1       26.505 -27.467   8.403  0.00  0.00    -0.166 NA
ENDBRANCH   1  12
BRANCH   2  15
ATOM     15  C   LIG    1       25.502 -23.490   6.876  0.00  0.00    +0.076 C 
ATOM     16  C   LIG    1       24.675 -23.355   5.590  0.00  0.00    +0.041 C 
ATOM     17  C   LIG    1       24.321 -21.898   5.228  0.00  0.00    +0.058 C 
ATOM     18  N   LIG    1       23.666 -21.289   6.395  0.00  0.00    -0.299 NA
ATOM     19  C   LIG    1       24.624 -21.154   7.501  0.00  0.00    +0.058 C 
ATOM     20  C   LIG    1       25.849 -20.297   7.131  0.00  0.00    +0.019 C 
ATOM     21  C   LIG    1       26.520 -20.672   5.811  0.00  0.00    +0.003 C 
ATOM     22  C   LIG    1       22.969 -20.044   6.084  0.00  0.00    +0.105 C 
ATOM     23  C   LIG    1       25.523 -21.073   4.726  0.00  0.00    +0.019 C 
ATOM     24  C   LIG    1       24.984 -22.570   7.984  0.00  0.00    +0.041 C 
ENDBRANCH   2  15
TORSDOF 2
ENDMDL
MODEL 8
REMARK VINA RESULT:      -6.7      3.995      6.172
REMARK  Name = *****
REMARK                            x       y       z     vdW  Elec       q    Type
REMARK                         _______ _______ _______ _____ _____    ______ ____
ROOT
ATOM      1  C   LIG    1       25.983 -21.516   8.126  0.00  0.00    +0.265 C 
ATOM      2  N   LIG    1       27.041 -21.220   7.291  0.00  0.00    -0.307 N 
ATOM      3  H   LIG    1       27.039 -21.707   6.399  0.00  0.00    +0.149 HD
ATOM      4  O   LIG    1       25.892 -21.088   9.271  0.00  0.00    -0.268 OA
ENDROOT
BRANCH   1  12
ATOM      5  C   LIG    1       21.698 -23.071   6.483  0.00  0.00    +0.173 C 
ATOM      6  N   LIG    1       23.115 -23.092   6.762  0.00  0.00    -0.266 N 
ATOM      7  C   LIG    1       23.968 -24.141   6.530  0.00  0.00    +0.069 A 
ATOM      8  C   LIG    1       25.195 -23.727   7.040  0.00  0.00    +0.032 A 
ATOM      9  C   LIG    1       26.293 -24.607   6.980  0.00  0.00    +0.012 A 
ATOM     10  C   LIG    1       26.133 -25.858   6.377  0.00  0.00    +0.001 A 
ATOM     11  C   LIG    1       24.898 -26.243   5.858  0.00  0.00    +0.002 A 
ATOM     12  C   LIG    1       24.980 -22.400   7.510  0.00  0.00    +0.155 A 
ATOM     13  C   LIG    1       23.785 -25.397   5.934  0.00  0.00    +0.028 A 
ATOM     14  N   LIG    1       23.703 -22.007   7.308  0.00  0.00    -0.166 NA
ENDBRANCH   1  12
BRANCH   2  15
ATOM     15  C   LIG    1       28.174 -20.409   7.708  0.00  0.00    +0.076 C 
ATOM     16  C   LIG    1       29.400 -21.267   8.047  0.00  0.00    +0.041 C 
ATOM     17  C   LIG    1       30.706 -20.458   8.184  0.00  0.00    +0.058 C 
ATOM     18  N   LIG    1       30.881 -19.670   6.955  0.00  0.00    -0.299 NA
ATOM     19  C   LIG    1       29.838 -18.641   6.860  0.00  0.00    +0.058 C 
ATOM     20  C   LIG    1       29.839 -17.673   8.059  0.00  0.00    +0.019 C 
ATOM     21  C   LIG    1       29.879 -18.349   9.428  0.00  0.00    +0.003 C 
ATOM     22  C   LIG    1       32.231 -19.137   6.796  0.00  0.00    +0.105 C 
ATOM     23  C   LIG    1       30.767 -19.590   9.457  0.00  0.00    +0.019 C 
ATOM     24  C   LIG    1       28.492 -19.355   6.645  0.00  0.00    +0.041 C 
ENDBRANCH   2  15
TORSDOF 2
ENDMDL
MODEL 9
REMARK VINA RESULT:      -6.5      1.327      2.777
REMARK  Name = *****
REMARK                            x       y       z     vdW  Elec       q    Type
REMARK                         _______ _______ _______ _____ _____    ______ ____
ROOT
ATOM      1  C   LIG    1       25.727 -25.669   6.725  0.00  0.00    +0.265 C 
ATOM      2  N   LIG    1       24.588 -24.969   7.064  0.00  0.00    -0.307 N 
ATOM      3  H   LIG    1       23.878 -25.507   7.554  0.00  0.00    +0.149 HD
ATOM      4  O   LIG    1       26.631 -25.191   6.048  0.00  0.00    -0.268 OA
ENDROOT
BRANCH   1  12
ATOM      5  C   LIG    1       26.819 -29.422   9.588  0.00  0.00    +0.173 C 
ATOM      6  N   LIG    1       26.196 -28.699   8.505  0.00  0.00    -0.266 N 
ATOM      7  C   LIG    1       25.401 -29.239   7.525  0.00  0.00    +0.069 A 
ATOM      8  C   LIG    1       25.117 -28.182   6.667  0.00  0.00    +0.032 A 
ATOM      9  C   LIG    1       24.330 -28.420   5.524  0.00  0.00    +0.012 A 
ATOM     10  C   LIG    1       23.823 -29.704   5.300  0.00  0.00    +0.001 A 
ATOM     11  C   LIG    1       24.108 -30.743   6.184  0.00  0.00    +0.002 A 
ATOM     12  C   LIG    1       25.748 -27.044   7.248  0.00  0.00    +0.155 A 
ATOM     13  C   LIG    1       24.914 -30.536   7.310  0.00  0.00    +0.028 A 
ATOM     14  N   LIG    1       26.386 -27.367   8.395  0.00  0.00    -0.166 NA
ENDBRANCH   1  12
BRANCH   2  15
ATOM     15  C   LIG    1       24.329 -23.612   6.611  0.00  0.00    +0.076 C 
ATOM     16  C   LIG    1       25.032 -22.569   7.490  0.00  0.00    +0.041 C 
ATOM     17  C   LIG    1       25.054 -21.154   6.878  0.00  0.00    +0.058 C 
ATOM     18  N   LIG    1       25.636 -21.252   5.531  0.00  0.00    -0.299 NA
ATOM     19  C   LIG    1       24.737 -22.005   4.645  0.00  0.00    +0.058 C 
ATOM     20  C   LIG    1       23.341 -21.365   4.524  0.00  0.00    +0.019 C 
ATOM     21  C   LIG    1       22.687 -20.996   5.854  0.00  0.00    +0.003 C 
ATOM     22  C   LIG    1       26.040 -19.963   4.979  0.00  0.00    +0.105 C 
ATOM     23  C   LIG    1       23.680 -20.455   6.880  0.00  0.00    +0.019 C 
ATOM     24  C   LIG    1       24.708 -23.463   5.136  0.00  0.00    +0.041 C 
ENDBRANCH   2  15
TORSDOF 2
ENDMDL
