MODEL 1
REMARK VINA RESULT:       0.2      0.000      0.000
REMARK  Name = *****
REMARK                            x       y       z     vdW  Elec       q    Type
REMARK                         _______ _______ _______ _____ _____    ______ ____
ROOT
ATOM      1  C   LIG    1       23.046 -16.732   5.099  0.00  0.00    -0.000 C 
ATOM      2  C   LIG    1       22.604 -17.905   4.569  0.00  0.00    -0.066 C 
ATOM      3  C   LIG    1       22.404 -19.176   5.419  0.00  0.00    +0.021 C 
ATOM      4  C   LIG    1       23.110 -19.295   6.778  0.00  0.00    +0.009 C 
ATOM      5  C   LIG    1       23.132 -20.791   7.062  0.00  0.00    +0.007 C 
ATOM      6  C   LIG    1       23.515 -21.431   5.719  0.00  0.00    +0.024 C 
ATOM      7  C   LIG    1       22.677 -20.556   4.702  0.00  0.00    -0.020 C 
ATOM      8  C   LIG    1       21.295 -21.252   4.493  0.00  0.00    +0.012 C 
ATOM      9  C   LIG    1       23.331 -20.379   3.325  0.00  0.00    +0.008 C 
ATOM     10  C   LIG    1       22.569 -19.394   2.439  0.00  0.00    +0.005 C 
ATOM     11  C   LIG    1       22.112 -18.099   3.142  0.00  0.00    +0.031 C 
ENDROOT
BRANCH   1  19
ATOM     12  C   LIG    1       23.576 -12.467   3.935  0.00  0.00    +0.015 C 
ATOM     13  C   LIG    1       24.458 -13.432   3.557  0.00  0.00    -0.023 C 
ATOM     14  C   LIG    1       25.573 -13.121   2.558  0.00  0.00    +0.147 C 
ATOM     15  C   LIG    1       26.936 -13.663   2.983  0.00  0.00    +0.067 C 
ATOM     16  C   LIG    1       26.842 -15.135   3.348  0.00  0.00    +0.122 C 
ATOM     17  C   LIG    1       25.788 -15.366   4.447  0.00  0.00    +0.067 C 
ATOM     18  C   LIG    1       24.403 -14.794   4.150  0.00  0.00    -0.040 C 
ATOM     19  C   LIG    1       23.232 -15.420   4.459  0.00  0.00    +0.004 C 
BRANCH  14  20
ATOM     20  O   LIG    1       25.731 -11.710   2.348  0.00  0.00    -0.387 OA
ATOM     21  H   LIG    1       26.572 -11.451   2.761  0.00  0.00    +0.210 HD
ENDBRANCH  14  20
BRANCH  16  22
ATOM     22  O   LIG    1       26.586 -15.919   2.185  0.00  0.00    -0.391 OA
ATOM     23  H   LIG    1       26.561 -15.329   1.410  0.00  0.00    +0.210 HD
ENDBRANCH  16  22
ENDBRANCH   1  19
BRANCH   6  24
ATOM     24  C   LIG    1       25.069 -21.547   5.524  0.00  0.00    +0.119 C 
ATOM     25  C   LIG    1       25.812 -21.117   6.806  0.00  0.00    +0.038 C 
BRANCH  24  26
ATOM     26  O   LIG    1       25.503 -20.777   4.391  0.00  0.00    -0.376 OA
BRANCH  26  27
ATOM     27  C   LIG    1       26.339 -19.661   4.715  0.00  0.00    +0.163 C 
BRANCH  27  28
ATOM     28  C   LIG    1       27.803 -20.098   4.846  0.00  0.00    +0.062 C 
BRANCH  28  29
ATOM     29  C   LIG    1       28.559 -19.550   6.068  0.00  0.00    +0.063 C 
ATOM     30  C   LIG    1       29.475 -18.376   5.731  0.00  0.00    +0.041 C 
ATOM     31  C   LIG    1       29.369 -20.665   6.737  0.00  0.00    +0.041 C 
BRANCH  29  32
ATOM     32  O   LIG    1       27.630 -19.110   7.042  0.00  0.00    -0.389 OA
ATOM     33  H   LIG    1       27.744 -19.661   7.843  0.00  0.00    +0.210 HD
ENDBRANCH  29  32
ENDBRANCH  28  29
ENDBRANCH  27  28
ENDBRANCH  26  27
ENDBRANCH  24  26
ENDBRANCH   6  24
TORSDOF 9
ENDMDL
MODEL 2
REMARK VINA RESULT:       1.4      1.560      2.285
REMARK  Name = *****
REMARK                            x       y       z     vdW  Elec       q    Type
REMARK                         _______ _______ _______ _____ _____    ______ ____
ROOT
ATOM      1  C   LIG    1       23.563 -15.938   4.540  0.00  0.00    -0.000 C 
ATOM      2  C   LIG    1       23.961 -17.048   3.860  0.00  0.00    -0.066 C 
ATOM      3  C   LIG    1       23.095 -18.321   3.772  0.00  0.00    +0.021 C 
ATOM      4  C   LIG    1       21.977 -18.548   4.801  0.00  0.00    +0.009 C 
ATOM      5  C   LIG    1       21.718 -20.048   4.752  0.00  0.00    +0.007 C 
ATOM      6  C   LIG    1       23.119 -20.678   4.697  0.00  0.00    +0.024 C 
ATOM      7  C   LIG    1       23.867 -19.697   3.708  0.00  0.00    -0.020 C 
ATOM      8  C   LIG    1       23.700 -20.256   2.258  0.00  0.00    +0.012 C 
ATOM      9  C   LIG    1       25.368 -19.538   3.982  0.00  0.00    +0.008 C 
ATOM     10  C   LIG    1       26.011 -18.460   3.111  0.00  0.00    +0.005 C 
ATOM     11  C   LIG    1       25.203 -17.151   2.988  0.00  0.00    +0.031 C 
ENDROOT
BRANCH   1  19
ATOM     12  C   LIG    1       25.453 -12.096   5.759  0.00  0.00    +0.015 C 
ATOM     13  C   LIG    1       26.097 -12.997   4.969  0.00  0.00    -0.023 C 
ATOM     14  C   LIG    1       27.432 -12.643   4.312  0.00  0.00    +0.147 C 
ATOM     15  C   LIG    1       28.482 -13.744   4.443  0.00  0.00    +0.067 C 
ATOM     16  C   LIG    1       27.921 -15.082   3.994  0.00  0.00    +0.122 C 
ATOM     17  C   LIG    1       26.646 -15.439   4.780  0.00  0.00    +0.067 C 
ATOM     18  C   LIG    1       25.557 -14.367   4.772  0.00  0.00    -0.040 C 
ATOM     19  C   LIG    1       24.222 -14.630   4.674  0.00  0.00    +0.004 C 
BRANCH  14  20
ATOM     20  O   LIG    1       28.005 -11.449   4.864  0.00  0.00    -0.387 OA
ATOM     21  H   LIG    1       28.940 -11.428   4.593  0.00  0.00    +0.210 HD
ENDBRANCH  14  20
BRANCH  16  22
ATOM     22  O   LIG    1       27.701 -15.081   2.585  0.00  0.00    -0.391 OA
ATOM     23  H   LIG    1       28.246 -14.379   2.185  0.00  0.00    +0.210 HD
ENDBRANCH  16  22
ENDBRANCH   1  19
BRANCH   6  24
ATOM     24  C   LIG    1       23.725 -20.931   6.123  0.00  0.00    +0.119 C 
ATOM     25  C   LIG    1       23.821 -19.611   6.917  0.00  0.00    +0.038 C 
BRANCH  24  26
ATOM     26  O   LIG    1       25.009 -21.572   6.028  0.00  0.00    -0.376 OA
BRANCH  26  27
ATOM     27  C   LIG    1       25.942 -21.190   7.044  0.00  0.00    +0.163 C 
BRANCH  27  28
ATOM     28  C   LIG    1       26.754 -19.965   6.605  0.00  0.00    +0.062 C 
BRANCH  28  29
ATOM     29  C   LIG    1       28.248 -20.211   6.340  0.00  0.00    +0.063 C 
ATOM     30  C   LIG    1       28.791 -21.444   7.058  0.00  0.00    +0.041 C 
ATOM     31  C   LIG    1       29.069 -18.979   6.731  0.00  0.00    +0.041 C 
BRANCH  29  32
ATOM     32  O   LIG    1       28.460 -20.391   4.951  0.00  0.00    -0.389 OA
ATOM     33  H   LIG    1       27.646 -20.776   4.566  0.00  0.00    +0.210 HD
ENDBRANCH  29  32
ENDBRANCH  28  29
ENDBRANCH  27  28
ENDBRANCH  26  27
ENDBRANCH  24  26
ENDBRANCH   6  24
TORSDOF 9
ENDMDL
