MODEL 1
REMARK VINA RESULT:      -8.8      0.000      0.000
REMARK  Name = *****
REMARK                            x       y       z     vdW  Elec       q    Type
REMARK                         _______ _______ _______ _____ _____    ______ ____
ROOT
ATOM      1  C   LIG    1       24.445 -21.333   7.419  0.00  0.00    +0.144 C 
ENDROOT
BRANCH   1   2
ATOM      2  C   LIG    1       24.647 -22.878   7.268  0.00  0.00    +0.072 C 
ATOM      3  N   LIG    1       25.904 -23.174   6.541  0.00  0.00    -0.312 NA
ATOM      4  H   LIG    1       25.834 -22.828   5.584  0.00  0.00    +0.122 HD
ATOM      5  C   LIG    1       26.187 -24.607   6.520  0.00  0.00    +0.081 C 
ATOM      6  C   LIG    1       25.088 -25.378   5.798  0.00  0.00    +0.015 C 
ATOM      7  C   LIG    1       23.724 -25.091   6.418  0.00  0.00    +0.003 C 
ATOM      8  C   LIG    1       23.476 -23.583   6.547  0.00  0.00    +0.020 C 
ENDBRANCH   1   2
BRANCH   1   9
ATOM      9  C   LIG    1       24.111 -20.578   6.124  0.00  0.00    -0.032 A 
ATOM     10  C   LIG    1       25.049 -20.436   5.088  0.00  0.00    +0.004 A 
ATOM     11  C   LIG    1       24.745 -19.717   3.929  0.00  0.00    +0.000 A 
ATOM     12  C   LIG    1       23.502 -19.113   3.789  0.00  0.00    +0.000 A 
ATOM     13  C   LIG    1       22.561 -19.228   4.811  0.00  0.00    +0.000 A 
ATOM     14  C   LIG    1       22.862 -19.951   5.972  0.00  0.00    +0.004 A 
ENDBRANCH   1   9
BRANCH   1  15
ATOM     15  C   LIG    1       25.671 -20.707   8.078  0.00  0.00    +0.316 C 
ATOM     16  O   LIG    1       25.809 -20.577   9.288  0.00  0.00    -0.250 OA
BRANCH  15  18
ATOM     17  C   LIG    1       27.937 -20.305   7.601  0.00  0.00    +0.280 C 
ATOM     18  O   LIG    1       26.586 -20.312   7.145  0.00  0.00    -0.468 OA
ENDBRANCH  15  18
ENDBRANCH   1  15
TORSDOF 4
ENDMDL
MODEL 2
REMARK VINA RESULT:      -8.5      1.103      1.742
REMARK  Name = *****
REMARK                            x       y       z     vdW  Elec       q    Type
REMARK                         _______ _______ _______ _____ _____    ______ ____
ROOT
ATOM      1  C   LIG    1       25.038 -21.680   6.796  0.00  0.00    +0.144 C 
ENDROOT
BRANCH   1   2
ATOM      2  C   LIG    1       25.434 -23.074   6.204  0.00  0.00    +0.072 C 
ATOM      3  N   LIG    1       24.413 -23.545   5.241  0.00  0.00    -0.312 NA
ATOM      4  H   LIG    1       23.533 -23.713   5.730  0.00  0.00    +0.122 HD
ATOM      5  C   LIG    1       24.834 -24.771   4.567  0.00  0.00    +0.081 C 
ATOM      6  C   LIG    1       25.035 -25.909   5.561  0.00  0.00    +0.015 C 
ATOM      7  C   LIG    1       26.021 -25.508   6.654  0.00  0.00    +0.003 C 
ATOM      8  C   LIG    1       25.643 -24.162   7.282  0.00  0.00    +0.020 C 
ENDBRANCH   1   2
BRANCH   1   9
ATOM      9  C   LIG    1       24.393 -20.699   5.806  0.00  0.00    -0.032 A 
ATOM     10  C   LIG    1       23.066 -20.263   5.957  0.00  0.00    +0.004 A 
ATOM     11  C   LIG    1       22.478 -19.398   5.031  0.00  0.00    +0.000 A 
ATOM     12  C   LIG    1       23.201 -18.962   3.928  0.00  0.00    +0.000 A 
ATOM     13  C   LIG    1       24.514 -19.394   3.750  0.00  0.00    +0.000 A 
ATOM     14  C   LIG    1       25.107 -20.259   4.678  0.00  0.00    +0.004 A 
ENDBRANCH   1   9
BRANCH   1  15
ATOM     15  C   LIG    1       26.252 -21.027   7.451  0.00  0.00    +0.316 C 
ATOM     16  O   LIG    1       26.195 -20.315   8.446  0.00  0.00    -0.250 OA
BRANCH  15  18
ATOM     17  C   LIG    1       28.372 -20.292   6.750  0.00  0.00    +0.280 C 
ATOM     18  O   LIG    1       27.401 -21.336   6.782  0.00  0.00    -0.468 OA
ENDBRANCH  15  18
ENDBRANCH   1  15
TORSDOF 4
ENDMDL
MODEL 3
REMARK VINA RESULT:      -8.3      1.727      3.826
REMARK  Name = *****
REMARK                            x       y       z     vdW  Elec       q    Type
REMARK                         _______ _______ _______ _____ _____    ______ ____
ROOT
ATOM      1  C   LIG    1       25.862 -21.294   6.248  0.00  0.00    +0.144 C 
ENDROOT
BRANCH   1   2
ATOM      2  C   LIG    1       27.131 -20.465   6.639  0.00  0.00    +0.072 C 
ATOM      3  N   LIG    1       27.830 -19.974   5.429  0.00  0.00    -0.312 NA
ATOM      4  H   LIG    1       28.194 -20.767   4.899  0.00  0.00    +0.122 HD
ATOM      5  C   LIG    1       28.929 -19.074   5.772  0.00  0.00    +0.081 C 
ATOM      6  C   LIG    1       29.985 -19.784   6.612  0.00  0.00    +0.015 C 
ATOM      7  C   LIG    1       29.361 -20.400   7.861  0.00  0.00    +0.003 C 
ATOM      8  C   LIG    1       28.135 -21.252   7.511  0.00  0.00    +0.020 C 
ENDBRANCH   1   2
BRANCH   1   9
ATOM      9  C   LIG    1       24.770 -20.521   5.496  0.00  0.00    -0.032 A 
ATOM     10  C   LIG    1       25.025 -19.887   4.268  0.00  0.00    +0.004 A 
ATOM     11  C   LIG    1       24.032 -19.157   3.610  0.00  0.00    +0.000 A 
ATOM     12  C   LIG    1       22.768 -19.035   4.173  0.00  0.00    +0.000 A 
ATOM     13  C   LIG    1       22.497 -19.643   5.397  0.00  0.00    +0.000 A 
ATOM     14  C   LIG    1       23.489 -20.378   6.058  0.00  0.00    +0.004 A 
ENDBRANCH   1   9
BRANCH   1  15
ATOM     15  C   LIG    1       25.266 -21.952   7.489  0.00  0.00    +0.316 C 
ATOM     16  O   LIG    1       25.198 -21.413   8.587  0.00  0.00    -0.250 OA
BRANCH  15  18
ATOM     17  C   LIG    1       25.840 -24.125   6.800  0.00  0.00    +0.280 C 
ATOM     18  O   LIG    1       24.824 -23.214   7.216  0.00  0.00    -0.468 OA
ENDBRANCH  15  18
ENDBRANCH   1  15
TORSDOF 4
ENDMDL
MODEL 4
REMARK VINA RESULT:      -8.0      1.233      4.381
REMARK  Name = *****
REMARK                            x       y       z     vdW  Elec       q    Type
REMARK                         _______ _______ _______ _____ _____    ______ ____
ROOT
ATOM      1  C   LIG    1       25.945 -21.900   6.839  0.00  0.00    +0.144 C 
ENDROOT
BRANCH   1   2
ATOM      2  C   LIG    1       25.082 -20.770   6.185  0.00  0.00    +0.072 C 
ATOM      3  N   LIG    1       23.652 -20.933   6.534  0.00  0.00    -0.312 NA
ATOM      4  H   LIG    1       23.297 -21.798   6.125  0.00  0.00    +0.122 HD
ATOM      5  C   LIG    1       22.851 -19.807   6.058  0.00  0.00    +0.081 C 
ATOM      6  C   LIG    1       22.906 -19.692   4.539  0.00  0.00    +0.015 C 
ATOM      7  C   LIG    1       24.348 -19.592   4.053  0.00  0.00    +0.003 C 
ATOM      8  C   LIG    1       25.216 -20.707   4.646  0.00  0.00    +0.020 C 
ENDBRANCH   1   2
BRANCH   1   9
ATOM      9  C   LIG    1       25.395 -23.325   6.691  0.00  0.00    -0.032 A 
ATOM     10  C   LIG    1       26.244 -24.435   6.548  0.00  0.00    +0.004 A 
ATOM     11  C   LIG    1       25.731 -25.723   6.379  0.00  0.00    +0.000 A 
ATOM     12  C   LIG    1       24.357 -25.926   6.336  0.00  0.00    +0.000 A 
ATOM     13  C   LIG    1       23.495 -24.837   6.461  0.00  0.00    +0.000 A 
ATOM     14  C   LIG    1       24.007 -23.545   6.633  0.00  0.00    +0.004 A 
ENDBRANCH   1   9
BRANCH   1  15
ATOM     15  C   LIG    1       26.180 -21.589   8.315  0.00  0.00    +0.316 C 
ATOM     16  O   LIG    1       25.288 -21.322   9.111  0.00  0.00    -0.250 OA
BRANCH  15  18
ATOM     17  C   LIG    1       28.385 -21.258   7.570  0.00  0.00    +0.280 C 
ATOM     18  O   LIG    1       27.508 -21.642   8.626  0.00  0.00    -0.468 OA
ENDBRANCH  15  18
ENDBRANCH   1  15
TORSDOF 4
ENDMDL
MODEL 5
REMARK VINA RESULT:      -7.8      1.609      3.705
REMARK  Name = *****
REMARK                            x       y       z     vdW  Elec       q    Type
REMARK                         _______ _______ _______ _____ _____    ______ ____
ROOT
ATOM      1  C   LIG    1       25.762 -21.380   6.205  0.00  0.00    +0.144 C 
ENDROOT
BRANCH   1   2
ATOM      2  C   LIG    1       25.787 -22.933   6.013  0.00  0.00    +0.072 C 
ATOM      3  N   LIG    1       24.738 -23.361   5.059  0.00  0.00    -0.312 NA
ATOM      4  H   LIG    1       23.818 -23.165   5.453  0.00  0.00    +0.122 HD
ATOM      5  C   LIG    1       24.840 -24.786   4.751  0.00  0.00    +0.081 C 
ATOM      6  C   LIG    1       24.650 -25.637   6.001  0.00  0.00    +0.015 C 
ATOM      7  C   LIG    1       25.637 -25.233   7.090  0.00  0.00    +0.003 C 
ATOM      8  C   LIG    1       25.613 -23.719   7.332  0.00  0.00    +0.020 C 
ENDBRANCH   1   2
BRANCH   1   9
ATOM      9  C   LIG    1       27.127 -20.719   6.447  0.00  0.00    -0.032 A 
ATOM     10  C   LIG    1       27.605 -19.686   5.623  0.00  0.00    +0.004 A 
ATOM     11  C   LIG    1       28.863 -19.117   5.831  0.00  0.00    +0.000 A 
ATOM     12  C   LIG    1       29.675 -19.578   6.860  0.00  0.00    +0.000 A 
ATOM     13  C   LIG    1       29.228 -20.612   7.680  0.00  0.00    +0.000 A 
ATOM     14  C   LIG    1       27.966 -21.183   7.475  0.00  0.00    +0.004 A 
ENDBRANCH   1   9
BRANCH   1  15
ATOM     15  C   LIG    1       24.803 -21.009   7.333  0.00  0.00    +0.316 C 
ATOM     16  O   LIG    1       25.161 -20.618   8.437  0.00  0.00    -0.250 OA
BRANCH  15  18
ATOM     17  C   LIG    1       23.049 -20.250   5.965  0.00  0.00    +0.280 C 
ATOM     18  O   LIG    1       23.503 -21.175   6.951  0.00  0.00    -0.468 OA
ENDBRANCH  15  18
ENDBRANCH   1  15
TORSDOF 4
ENDMDL
MODEL 6
REMARK VINA RESULT:      -7.7      1.639      4.788
REMARK  Name = *****
REMARK                            x       y       z     vdW  Elec       q    Type
REMARK                         _______ _______ _______ _____ _____    ______ ____
ROOT
ATOM      1  C   LIG    1       25.551 -22.136   7.524  0.00  0.00    +0.144 C 
ENDROOT
BRANCH   1   2
ATOM      2  C   LIG    1       26.953 -21.618   7.061  0.00  0.00    +0.072 C 
ATOM      3  N   LIG    1       27.857 -21.441   8.222  0.00  0.00    -0.312 NA
ATOM      4  H   LIG    1       27.495 -20.702   8.826  0.00  0.00    +0.122 HD
ATOM      5  C   LIG    1       29.214 -21.102   7.800  0.00  0.00    +0.081 C 
ATOM      6  C   LIG    1       29.243 -19.784   7.035  0.00  0.00    +0.015 C 
ATOM      7  C   LIG    1       28.286 -19.822   5.848  0.00  0.00    +0.003 C 
ATOM      8  C   LIG    1       26.889 -20.290   6.272  0.00  0.00    +0.020 C 
ENDBRANCH   1   2
BRANCH   1   9
ATOM      9  C   LIG    1       25.164 -23.536   7.028  0.00  0.00    -0.032 A 
ATOM     10  C   LIG    1       26.132 -24.512   6.739  0.00  0.00    +0.004 A 
ATOM     11  C   LIG    1       25.770 -25.771   6.255  0.00  0.00    +0.000 A 
ATOM     12  C   LIG    1       24.432 -26.076   6.037  0.00  0.00    +0.000 A 
ATOM     13  C   LIG    1       23.455 -25.118   6.302  0.00  0.00    +0.000 A 
ATOM     14  C   LIG    1       23.815 -23.856   6.790  0.00  0.00    +0.004 A 
ENDBRANCH   1   9
BRANCH   1  15
ATOM     15  C   LIG    1       24.469 -21.134   7.132  0.00  0.00    +0.316 C 
ATOM     16  O   LIG    1       23.824 -20.470   7.935  0.00  0.00    -0.250 OA
BRANCH  15  18
ATOM     17  C   LIG    1       23.213 -20.286   5.335  0.00  0.00    +0.280 C 
ATOM     18  O   LIG    1       24.313 -21.078   5.778  0.00  0.00    -0.468 OA
ENDBRANCH  15  18
ENDBRANCH   1  15
TORSDOF 4
ENDMDL
MODEL 7
REMARK VINA RESULT:      -7.7      1.856      4.869
REMARK  Name = *****
REMARK                            x       y       z     vdW  Elec       q    Type
REMARK                         _______ _______ _______ _____ _____    ______ ____
ROOT
ATOM      1  C   LIG    1       24.909 -22.405   7.409  0.00  0.00    +0.144 C 
ENDROOT
BRANCH   1   2
ATOM      2  C   LIG    1       25.973 -21.282   7.170  0.00  0.00    +0.072 C 
ATOM      3  N   LIG    1       26.257 -21.126   5.725  0.00  0.00    -0.312 NA
ATOM      4  H   LIG    1       26.695 -21.976   5.369  0.00  0.00    +0.122 HD
ATOM      5  C   LIG    1       27.134 -19.985   5.470  0.00  0.00    +0.081 C 
ATOM      6  C   LIG    1       28.486 -20.162   6.150  0.00  0.00    +0.015 C 
ATOM      7  C   LIG    1       28.314 -20.407   7.646  0.00  0.00    +0.003 C 
ATOM      8  C   LIG    1       27.304 -21.528   7.917  0.00  0.00    +0.020 C 
ENDBRANCH   1   2
BRANCH   1   9
ATOM      9  C   LIG    1       25.152 -23.719   6.655  0.00  0.00    -0.032 A 
ATOM     10  C   LIG    1       25.792 -24.813   7.262  0.00  0.00    +0.004 A 
ATOM     11  C   LIG    1       26.039 -25.992   6.556  0.00  0.00    +0.000 A 
ATOM     12  C   LIG    1       25.664 -26.097   5.222  0.00  0.00    +0.000 A 
ATOM     13  C   LIG    1       25.042 -25.020   4.594  0.00  0.00    +0.000 A 
ATOM     14  C   LIG    1       24.790 -23.837   5.301  0.00  0.00    +0.004 A 
ENDBRANCH   1   9
BRANCH   1  15
ATOM     15  C   LIG    1       23.513 -21.878   7.088  0.00  0.00    +0.316 C 
ATOM     16  O   LIG    1       22.497 -22.560   7.122  0.00  0.00    -0.250 OA
BRANCH  15  18
ATOM     17  C   LIG    1       22.759 -20.202   5.622  0.00  0.00    +0.280 C 
ATOM     18  O   LIG    1       23.548 -20.554   6.756  0.00  0.00    -0.468 OA
ENDBRANCH  15  18
ENDBRANCH   1  15
TORSDOF 4
ENDMDL
MODEL 8
REMARK VINA RESULT:      -7.6      1.616      3.827
REMARK  Name = *****
REMARK                            x       y       z     vdW  Elec       q    Type
REMARK                         _______ _______ _______ _____ _____    ______ ____
ROOT
ATOM      1  C   LIG    1       25.354 -21.820   5.995  0.00  0.00    +0.144 C 
ENDROOT
BRANCH   1   2
ATOM      2  C   LIG    1       26.837 -21.414   6.285  0.00  0.00    +0.072 C 
ATOM      3  N   LIG    1       27.177 -21.649   7.707  0.00  0.00    -0.312 NA
ATOM      4  H   LIG    1       26.621 -21.032   8.298  0.00  0.00    +0.122 HD
ATOM      5  C   LIG    1       28.597 -21.419   7.965  0.00  0.00    +0.081 C 
ATOM      6  C   LIG    1       28.986 -19.974   7.671  0.00  0.00    +0.015 C 
ATOM      7  C   LIG    1       28.612 -19.592   6.242  0.00  0.00    +0.003 C 
ATOM      8  C   LIG    1       27.151 -19.942   5.934  0.00  0.00    +0.020 C 
ENDBRANCH   1   2
BRANCH   1   9
ATOM      9  C   LIG    1       24.482 -20.733   5.351  0.00  0.00    -0.032 A 
ATOM     10  C   LIG    1       23.254 -20.341   5.911  0.00  0.00    +0.004 A 
ATOM     11  C   LIG    1       22.453 -19.375   5.298  0.00  0.00    +0.000 A 
ATOM     12  C   LIG    1       22.857 -18.791   4.104  0.00  0.00    +0.000 A 
ATOM     13  C   LIG    1       24.064 -19.175   3.522  0.00  0.00    +0.000 A 
ATOM     14  C   LIG    1       24.870 -20.141   4.136  0.00  0.00    +0.004 A 
ENDBRANCH   1   9
BRANCH   1  15
ATOM     15  C   LIG    1       24.690 -22.322   7.274  0.00  0.00    +0.316 C 
ATOM     16  O   LIG    1       24.426 -21.610   8.235  0.00  0.00    -0.250 OA
BRANCH  15  18
ATOM     17  C   LIG    1       23.149 -23.999   6.692  0.00  0.00    +0.280 C 
ATOM     18  O   LIG    1       24.436 -23.661   7.207  0.00  0.00    -0.468 OA
ENDBRANCH  15  18
ENDBRANCH   1  15
TORSDOF 4
ENDMDL
MODEL 9
REMARK VINA RESULT:      -7.6      2.003      4.708
REMARK  Name = *****
REMARK                            x       y       z     vdW  Elec       q    Type
REMARK                         _______ _______ _______ _____ _____    ______ ____
ROOT
ATOM      1  C   LIG    1       25.315 -22.049   6.738  0.00  0.00    +0.144 C 
ENDROOT
BRANCH   1   2
ATOM      2  C   LIG    1       24.315 -21.428   5.707  0.00  0.00    +0.072 C 
ATOM      3  N   LIG    1       25.030 -20.961   4.497  0.00  0.00    -0.312 NA
ATOM      4  H   LIG    1       25.655 -20.193   4.745  0.00  0.00    +0.122 HD
ATOM      5  C   LIG    1       24.100 -20.515   3.462  0.00  0.00    +0.081 C 
ATOM      6  C   LIG    1       23.263 -19.335   3.941  0.00  0.00    +0.015 C 
ATOM      7  C   LIG    1       22.531 -19.677   5.235  0.00  0.00    +0.003 C 
ATOM      8  C   LIG    1       23.489 -20.254   6.282  0.00  0.00    +0.020 C 
ENDBRANCH   1   2
BRANCH   1   9
ATOM      9  C   LIG    1       26.685 -21.363   6.829  0.00  0.00    -0.032 A 
ATOM     10  C   LIG    1       27.079 -20.372   5.913  0.00  0.00    +0.004 A 
ATOM     11  C   LIG    1       28.341 -19.780   5.984  0.00  0.00    +0.000 A 
ATOM     12  C   LIG    1       29.243 -20.176   6.965  0.00  0.00    +0.000 A 
ATOM     13  C   LIG    1       28.880 -21.168   7.874  0.00  0.00    +0.000 A 
ATOM     14  C   LIG    1       27.614 -21.761   7.807  0.00  0.00    +0.004 A 
ENDBRANCH   1   9
BRANCH   1  15
ATOM     15  C   LIG    1       25.502 -23.537   6.453  0.00  0.00    +0.316 C 
ATOM     16  O   LIG    1       25.949 -24.340   7.262  0.00  0.00    -0.250 OA
BRANCH  15  18
ATOM     17  C   LIG    1       25.082 -25.246   4.895  0.00  0.00    +0.280 C 
ATOM     18  O   LIG    1       25.111 -23.850   5.183  0.00  0.00    -0.468 OA
ENDBRANCH  15  18
ENDBRANCH   1  15
TORSDOF 4
ENDMDL
