MODEL 1
REMARK VINA RESULT:      -9.3      0.000      0.000
REMARK  Name = *****
REMARK                            x       y       z     vdW  Elec       q    Type
REMARK                         _______ _______ _______ _____ _____    ______ ____
ROOT
ATOM      1  C   LIG    1       25.116 -20.767   6.168  0.00  0.00    +0.034 A 
ATOM      2  C   LIG    1       26.332 -20.201   5.686  0.00  0.00    +0.044 A 
ATOM      3  C   LIG    1       26.316 -19.666   4.385  0.00  0.00    +0.024 A 
ATOM      4  C   LIG    1       25.154 -19.624   3.615  0.00  0.00    +0.002 A 
ATOM      5  C   LIG    1       23.954 -20.101   4.138  0.00  0.00    +0.001 A 
ATOM      6  C   LIG    1       23.940 -20.669   5.407  0.00  0.00    +0.017 A 
ENDROOT
BRANCH   2   7
ATOM      7  N   LIG    1       27.496 -20.160   6.494  0.00  0.00    -0.327 N 
ATOM      8  C   LIG    1       28.528 -19.284   5.882  0.00  0.00    +0.120 C 
ATOM      9  C   LIG    1       29.759 -19.143   6.808  0.00  0.00    +0.100 C 
ATOM     10  N   LIG    1       30.338 -20.433   7.240  0.00  0.00    -0.313 NA
ATOM     11  H   LIG    1       30.648 -20.933   6.408  0.00  0.00    +0.122 HD
ATOM     12  C   LIG    1       29.265 -21.226   7.881  0.00  0.00    +0.100 C 
ATOM     13  C   LIG    1       28.048 -21.452   6.955  0.00  0.00    +0.120 C 
ENDBRANCH   2   7
BRANCH   1  14
ATOM     14  S   LIG    1       25.044 -21.709   7.703  0.00  0.00    -0.087 S 
BRANCH  14  20
ATOM     15  C   LIG    1       24.767 -27.414   5.486  0.00  0.00    +0.044 C 
ATOM     16  C   LIG    1       24.816 -26.033   6.072  0.00  0.00    -0.050 A 
ATOM     17  C   LIG    1       23.638 -25.291   6.205  0.00  0.00    +0.007 A 
ATOM     18  C   LIG    1       23.646 -23.976   6.713  0.00  0.00    -0.036 A 
ATOM     19  C   LIG    1       22.330 -23.254   6.815  0.00  0.00    +0.045 C 
ATOM     20  C   LIG    1       24.872 -23.395   7.092  0.00  0.00    +0.016 A 
ATOM     21  C   LIG    1       26.053 -24.142   6.946  0.00  0.00    +0.015 A 
ATOM     22  C   LIG    1       26.027 -25.446   6.443  0.00  0.00    +0.004 A 
ENDBRANCH  14  20
ENDBRANCH   1  14
TORSDOF 3
ENDMDL
MODEL 2
REMARK VINA RESULT:      -8.8      1.499      3.708
REMARK  Name = *****
REMARK                            x       y       z     vdW  Elec       q    Type
REMARK                         _______ _______ _______ _____ _____    ______ ____
ROOT
ATOM      1  C   LIG    1       26.588 -21.422   7.194  0.00  0.00    +0.034 A 
ATOM      2  C   LIG    1       26.444 -20.604   6.035  0.00  0.00    +0.044 A 
ATOM      3  C   LIG    1       27.585 -19.905   5.600  0.00  0.00    +0.024 A 
ATOM      4  C   LIG    1       28.824 -20.048   6.224  0.00  0.00    +0.002 A 
ATOM      5  C   LIG    1       28.966 -20.922   7.300  0.00  0.00    +0.001 A 
ATOM      6  C   LIG    1       27.852 -21.602   7.779  0.00  0.00    +0.017 A 
ENDROOT
BRANCH   2   7
ATOM      7  N   LIG    1       25.211 -20.522   5.342  0.00  0.00    -0.327 N 
ATOM      8  C   LIG    1       25.347 -19.673   4.130  0.00  0.00    +0.120 C 
ATOM      9  C   LIG    1       24.037 -19.665   3.306  0.00  0.00    +0.100 C 
ATOM     10  N   LIG    1       22.837 -19.296   4.087  0.00  0.00    -0.313 NA
ATOM     11  H   LIG    1       22.971 -18.350   4.442  0.00  0.00    +0.122 HD
ATOM     12  C   LIG    1       22.744 -20.213   5.246  0.00  0.00    +0.100 C 
ATOM     13  C   LIG    1       24.008 -20.190   6.135  0.00  0.00    +0.120 C 
ENDBRANCH   2   7
BRANCH   1  14
ATOM     14  S   LIG    1       25.171 -22.174   8.014  0.00  0.00    -0.087 S 
BRANCH  14  20
ATOM     15  C   LIG    1       25.012 -27.467   4.933  0.00  0.00    +0.044 C 
ATOM     16  C   LIG    1       25.030 -26.194   5.727  0.00  0.00    -0.050 A 
ATOM     17  C   LIG    1       23.847 -25.469   5.907  0.00  0.00    +0.007 A 
ATOM     18  C   LIG    1       23.828 -24.248   6.611  0.00  0.00    -0.036 A 
ATOM     19  C   LIG    1       22.509 -23.538   6.750  0.00  0.00    +0.045 C 
ATOM     20  C   LIG    1       25.031 -23.744   7.143  0.00  0.00    +0.016 A 
ATOM     21  C   LIG    1       26.218 -24.471   6.949  0.00  0.00    +0.015 A 
ATOM     22  C   LIG    1       26.219 -25.682   6.250  0.00  0.00    +0.004 A 
ENDBRANCH  14  20
ENDBRANCH   1  14
TORSDOF 3
ENDMDL
MODEL 3
REMARK VINA RESULT:      -7.2      2.642      6.310
REMARK  Name = *****
REMARK                            x       y       z     vdW  Elec       q    Type
REMARK                         _______ _______ _______ _____ _____    ______ ____
ROOT
ATOM      1  C   LIG    1       24.826 -21.874   6.311  0.00  0.00    +0.034 A 
ATOM      2  C   LIG    1       25.432 -23.061   6.818  0.00  0.00    +0.044 A 
ATOM      3  C   LIG    1       26.116 -22.956   8.043  0.00  0.00    +0.024 A 
ATOM      4  C   LIG    1       26.150 -21.767   8.773  0.00  0.00    +0.002 A 
ATOM      5  C   LIG    1       25.476 -20.642   8.304  0.00  0.00    +0.001 A 
ATOM      6  C   LIG    1       24.820 -20.699   7.080  0.00  0.00    +0.017 A 
ENDROOT
BRANCH   2   7
ATOM      7  N   LIG    1       25.327 -24.293   6.127  0.00  0.00    -0.327 N 
ATOM      8  C   LIG    1       23.991 -24.905   6.347  0.00  0.00    +0.120 C 
ATOM      9  C   LIG    1       23.824 -26.195   5.509  0.00  0.00    +0.100 C 
ATOM     10  N   LIG    1       24.906 -27.184   5.706  0.00  0.00    -0.313 NA
ATOM     11  H   LIG    1       24.903 -27.463   6.686  0.00  0.00    +0.122 HD
ATOM     12  C   LIG    1       26.196 -26.516   5.422  0.00  0.00    +0.100 C 
ATOM     13  C   LIG    1       26.430 -25.263   6.297  0.00  0.00    +0.120 C 
ENDBRANCH   2   7
BRANCH   1  14
ATOM     14  S   LIG    1       24.138 -21.790   4.647  0.00  0.00    -0.087 S 
BRANCH  14  20
ATOM     15  C   LIG    1       25.728 -16.057   3.186  0.00  0.00    +0.044 C 
ATOM     16  C   LIG    1       25.318 -17.466   3.499  0.00  0.00    -0.050 A 
ATOM     17  C   LIG    1       23.984 -17.748   3.815  0.00  0.00    +0.007 A 
ATOM     18  C   LIG    1       23.565 -19.050   4.155  0.00  0.00    -0.036 A 
ATOM     19  C   LIG    1       22.112 -19.257   4.484  0.00  0.00    +0.045 C 
ATOM     20  C   LIG    1       24.513 -20.092   4.179  0.00  0.00    +0.016 A 
ATOM     21  C   LIG    1       25.853 -19.799   3.871  0.00  0.00    +0.015 A 
ATOM     22  C   LIG    1       26.252 -18.502   3.535  0.00  0.00    +0.004 A 
ENDBRANCH  14  20
ENDBRANCH   1  14
TORSDOF 3
ENDMDL
MODEL 4
REMARK VINA RESULT:      -7.1      1.690      3.436
REMARK  Name = *****
REMARK                            x       y       z     vdW  Elec       q    Type
REMARK                         _______ _______ _______ _____ _____    ______ ____
ROOT
ATOM      1  C   LIG    1       25.060 -23.835   6.657  0.00  0.00    +0.034 A 
ATOM      2  C   LIG    1       25.166 -22.419   6.535  0.00  0.00    +0.044 A 
ATOM      3  C   LIG    1       23.965 -21.697   6.407  0.00  0.00    +0.024 A 
ATOM      4  C   LIG    1       22.717 -22.318   6.464  0.00  0.00    +0.002 A 
ATOM      5  C   LIG    1       22.633 -23.693   6.674  0.00  0.00    +0.001 A 
ATOM      6  C   LIG    1       23.799 -24.443   6.769  0.00  0.00    +0.017 A 
ENDROOT
BRANCH   2   7
ATOM      7  N   LIG    1       26.425 -21.770   6.565  0.00  0.00    -0.327 N 
ATOM      8  C   LIG    1       26.955 -21.718   7.952  0.00  0.00    +0.120 C 
ATOM      9  C   LIG    1       28.378 -21.112   7.983  0.00  0.00    +0.100 C 
ATOM     10  N   LIG    1       28.485 -19.796   7.319  0.00  0.00    -0.313 NA
ATOM     11  H   LIG    1       27.874 -19.144   7.810  0.00  0.00    +0.122 HD
ATOM     12  C   LIG    1       27.987 -19.939   5.933  0.00  0.00    +0.100 C 
ATOM     13  C   LIG    1       26.537 -20.472   5.866  0.00  0.00    +0.120 C 
ENDBRANCH   2   7
BRANCH   1  14
ATOM     14  S   LIG    1       26.504 -24.911   6.575  0.00  0.00    -0.087 S 
BRANCH  14  20
ATOM     15  C   LIG    1       24.128 -30.542   6.156  0.00  0.00    +0.044 C 
ATOM     16  C   LIG    1       24.664 -29.144   6.257  0.00  0.00    -0.050 A 
ATOM     17  C   LIG    1       24.720 -28.337   5.116  0.00  0.00    +0.007 A 
ATOM     18  C   LIG    1       25.253 -27.033   5.158  0.00  0.00    -0.036 A 
ATOM     19  C   LIG    1       25.276 -26.241   3.880  0.00  0.00    +0.045 C 
ATOM     20  C   LIG    1       25.744 -26.532   6.380  0.00  0.00    +0.016 A 
ATOM     21  C   LIG    1       25.695 -27.353   7.520  0.00  0.00    +0.015 A 
ATOM     22  C   LIG    1       25.161 -28.643   7.461  0.00  0.00    +0.004 A 
ENDBRANCH  14  20
ENDBRANCH   1  14
TORSDOF 3
ENDMDL
MODEL 5
REMARK VINA RESULT:      -7.1      2.252      5.919
REMARK  Name = *****
REMARK                            x       y       z     vdW  Elec       q    Type
REMARK                         _______ _______ _______ _____ _____    ______ ____
ROOT
ATOM      1  C   LIG    1       25.255 -22.418   6.785  0.00  0.00    +0.034 A 
ATOM      2  C   LIG    1       24.575 -22.609   5.547  0.00  0.00    +0.044 A 
ATOM      3  C   LIG    1       24.695 -23.873   4.940  0.00  0.00    +0.024 A 
ATOM      4  C   LIG    1       25.388 -24.922   5.544  0.00  0.00    +0.002 A 
ATOM      5  C   LIG    1       25.970 -24.743   6.797  0.00  0.00    +0.001 A 
ATOM      6  C   LIG    1       25.902 -23.497   7.410  0.00  0.00    +0.017 A 
ENDROOT
BRANCH   2   7
ATOM      7  N   LIG    1       23.796 -21.577   4.969  0.00  0.00    -0.327 N 
ATOM      8  C   LIG    1       24.541 -20.911   3.870  0.00  0.00    +0.120 C 
ATOM      9  C   LIG    1       23.660 -19.856   3.158  0.00  0.00    +0.100 C 
ATOM     10  N   LIG    1       23.052 -18.865   4.072  0.00  0.00    -0.313 NA
ATOM     11  H   LIG    1       23.807 -18.359   4.534  0.00  0.00    +0.122 HD
ATOM     12  C   LIG    1       22.290 -19.601   5.106  0.00  0.00    +0.100 C 
ATOM     13  C   LIG    1       23.159 -20.611   5.890  0.00  0.00    +0.120 C 
ENDBRANCH   2   7
BRANCH   1  14
ATOM     14  S   LIG    1       25.405 -20.794   7.551  0.00  0.00    -0.087 S 
BRANCH  14  20
ATOM     15  C   LIG    1       31.362 -19.470   7.015  0.00  0.00    +0.044 C 
ATOM     16  C   LIG    1       29.910 -19.835   7.117  0.00  0.00    -0.050 A 
ATOM     17  C   LIG    1       29.052 -19.584   6.041  0.00  0.00    +0.007 A 
ATOM     18  C   LIG    1       27.675 -19.874   6.111  0.00  0.00    -0.036 A 
ATOM     19  C   LIG    1       26.830 -19.566   4.905  0.00  0.00    +0.045 C 
ATOM     20  C   LIG    1       27.149 -20.426   7.296  0.00  0.00    +0.016 A 
ATOM     21  C   LIG    1       28.014 -20.664   8.377  0.00  0.00    +0.015 A 
ATOM     22  C   LIG    1       29.379 -20.373   8.290  0.00  0.00    +0.004 A 
ENDBRANCH  14  20
ENDBRANCH   1  14
TORSDOF 3
ENDMDL
MODEL 6
REMARK VINA RESULT:      -7.1      1.742      3.209
REMARK  Name = *****
REMARK                            x       y       z     vdW  Elec       q    Type
REMARK                         _______ _______ _______ _____ _____    ______ ____
ROOT
ATOM      1  C   LIG    1       27.680 -20.380   6.654  0.00  0.00    +0.034 A 
ATOM      2  C   LIG    1       28.819 -19.531   6.779  0.00  0.00    +0.044 A 
ATOM      3  C   LIG    1       29.053 -18.617   5.735  0.00  0.00    +0.024 A 
ATOM      4  C   LIG    1       28.181 -18.489   4.653  0.00  0.00    +0.002 A 
ATOM      5  C   LIG    1       27.026 -19.265   4.594  0.00  0.00    +0.001 A 
ATOM      6  C   LIG    1       26.781 -20.204   5.589  0.00  0.00    +0.017 A 
ENDROOT
BRANCH   2   7
ATOM      7  N   LIG    1       29.661 -19.593   7.917  0.00  0.00    -0.327 N 
ATOM      8  C   LIG    1       30.128 -18.235   8.297  0.00  0.00    +0.120 C 
ATOM      9  C   LIG    1       30.957 -18.276   9.603  0.00  0.00    +0.100 C 
ATOM     10  N   LIG    1       32.077 -19.241   9.574  0.00  0.00    -0.313 NA
ATOM     11  H   LIG    1       32.713 -18.962   8.827  0.00  0.00    +0.122 HD
ATOM     12  C   LIG    1       31.528 -20.573   9.238  0.00  0.00    +0.100 C 
ATOM     13  C   LIG    1       30.756 -20.586   7.898  0.00  0.00    +0.120 C 
ENDBRANCH   2   7
BRANCH   1  14
ATOM     14  S   LIG    1       27.392 -21.762   7.773  0.00  0.00    -0.087 S 
BRANCH  14  20
ATOM     15  C   LIG    1       21.557 -23.179   6.556  0.00  0.00    +0.044 C 
ATOM     16  C   LIG    1       22.996 -22.828   6.805  0.00  0.00    -0.050 A 
ATOM     17  C   LIG    1       23.991 -23.791   6.606  0.00  0.00    +0.007 A 
ATOM     18  C   LIG    1       25.348 -23.516   6.867  0.00  0.00    -0.036 A 
ATOM     19  C   LIG    1       26.347 -24.615   6.628  0.00  0.00    +0.045 C 
ATOM     20  C   LIG    1       25.710 -22.240   7.343  0.00  0.00    +0.016 A 
ATOM     21  C   LIG    1       24.704 -21.282   7.552  0.00  0.00    +0.015 A 
ATOM     22  C   LIG    1       23.362 -21.570   7.286  0.00  0.00    +0.004 A 
ENDBRANCH  14  20
ENDBRANCH   1  14
TORSDOF 3
ENDMDL
MODEL 7
REMARK VINA RESULT:      -6.6      2.818      6.741
REMARK  Name = *****
REMARK                            x       y       z     vdW  Elec       q    Type
REMARK                         _______ _______ _______ _____ _____    ______ ____
ROOT
ATOM      1  C   LIG    1       26.116 -20.477   5.133  0.00  0.00    +0.034 A 
ATOM      2  C   LIG    1       25.905 -21.549   6.048  0.00  0.00    +0.044 A 
ATOM      3  C   LIG    1       26.870 -21.730   7.055  0.00  0.00    +0.024 A 
ATOM      4  C   LIG    1       27.956 -20.867   7.204  0.00  0.00    +0.002 A 
ATOM      5  C   LIG    1       28.097 -19.771   6.355  0.00  0.00    +0.001 A 
ATOM      6  C   LIG    1       27.181 -19.582   5.326  0.00  0.00    +0.017 A 
ENDROOT
BRANCH   2   7
ATOM      7  N   LIG    1       24.758 -22.377   5.958  0.00  0.00    -0.327 N 
ATOM      8  C   LIG    1       23.616 -21.772   6.690  0.00  0.00    +0.120 C 
ATOM      9  C   LIG    1       22.329 -22.612   6.506  0.00  0.00    +0.100 C 
ATOM     10  N   LIG    1       22.489 -24.041   6.849  0.00  0.00    -0.313 NA
ATOM     11  H   LIG    1       22.746 -24.101   7.834  0.00  0.00    +0.122 HD
ATOM     12  C   LIG    1       23.609 -24.582   6.048  0.00  0.00    +0.100 C 
ATOM     13  C   LIG    1       24.933 -23.813   6.265  0.00  0.00    +0.120 C 
ENDBRANCH   2   7
BRANCH   1  14
ATOM     14  S   LIG    1       25.112 -20.275   3.650  0.00  0.00    -0.087 S 
BRANCH  14  20
ATOM     15  C   LIG    1       23.969 -14.266   3.999  0.00  0.00    +0.044 C 
ATOM     16  C   LIG    1       24.220 -15.740   3.873  0.00  0.00    -0.050 A 
ATOM     17  C   LIG    1       23.230 -16.650   4.257  0.00  0.00    +0.007 A 
ATOM     18  C   LIG    1       23.440 -18.042   4.193  0.00  0.00    -0.036 A 
ATOM     19  C   LIG    1       22.318 -18.943   4.632  0.00  0.00    +0.045 C 
ATOM     20  C   LIG    1       24.679 -18.529   3.734  0.00  0.00    +0.016 A 
ATOM     21  C   LIG    1       25.674 -17.609   3.360  0.00  0.00    +0.015 A 
ATOM     22  C   LIG    1       25.448 -16.231   3.427  0.00  0.00    +0.004 A 
ENDBRANCH  14  20
ENDBRANCH   1  14
TORSDOF 3
ENDMDL
MODEL 8
REMARK VINA RESULT:      -6.6      2.603      4.250
REMARK  Name = *****
REMARK                            x       y       z     vdW  Elec       q    Type
REMARK                         _______ _______ _______ _____ _____    ______ ____
ROOT
ATOM      1  C   LIG    1       25.411 -22.479   6.089  0.00  0.00    +0.034 A 
ATOM      2  C   LIG    1       24.814 -21.214   6.367  0.00  0.00    +0.044 A 
ATOM      3  C   LIG    1       25.027 -20.675   7.648  0.00  0.00    +0.024 A 
ATOM      4  C   LIG    1       25.838 -21.304   8.592  0.00  0.00    +0.002 A 
ATOM      5  C   LIG    1       26.486 -22.495   8.270  0.00  0.00    +0.001 A 
ATOM      6  C   LIG    1       26.270 -23.076   7.026  0.00  0.00    +0.017 A 
ENDROOT
BRANCH   2   7
ATOM      7  N   LIG    1       24.060 -20.525   5.384  0.00  0.00    -0.327 N 
ATOM      8  C   LIG    1       24.941 -19.654   4.564  0.00  0.00    +0.120 C 
ATOM      9  C   LIG    1       24.149 -18.982   3.417  0.00  0.00    +0.100 C 
ATOM     10  N   LIG    1       22.942 -18.255   3.866  0.00  0.00    -0.313 NA
ATOM     11  H   LIG    1       23.239 -17.512   4.498  0.00  0.00    +0.122 HD
ATOM     12  C   LIG    1       22.095 -19.198   4.631  0.00  0.00    +0.100 C 
ATOM     13  C   LIG    1       22.833 -19.832   5.832  0.00  0.00    +0.120 C 
ENDBRANCH   2   7
BRANCH   1  14
ATOM     14  S   LIG    1       25.025 -23.410   4.595  0.00  0.00    -0.087 S 
BRANCH  14  20
ATOM     15  C   LIG    1       24.950 -29.262   6.406  0.00  0.00    +0.044 C 
ATOM     16  C   LIG    1       24.989 -27.816   6.006  0.00  0.00    -0.050 A 
ATOM     17  C   LIG    1       24.061 -26.919   6.546  0.00  0.00    +0.007 A 
ATOM     18  C   LIG    1       24.038 -25.562   6.166  0.00  0.00    -0.036 A 
ATOM     19  C   LIG    1       23.000 -24.674   6.796  0.00  0.00    +0.045 C 
ATOM     20  C   LIG    1       24.970 -25.099   5.217  0.00  0.00    +0.016 A 
ATOM     21  C   LIG    1       25.893 -26.008   4.671  0.00  0.00    +0.015 A 
ATOM     22  C   LIG    1       25.904 -27.350   5.060  0.00  0.00    +0.004 A 
ENDBRANCH  14  20
ENDBRANCH   1  14
TORSDOF 3
ENDMDL
MODEL 9
REMARK VINA RESULT:      -6.6      7.975      9.226
REMARK  Name = *****
REMARK                            x       y       z     vdW  Elec       q    Type
REMARK                         _______ _______ _______ _____ _____    ______ ____
ROOT
ATOM      1  C   LIG    1       23.581 -28.611  12.932  0.00  0.00    +0.034 A 
ATOM      2  C   LIG    1       23.961 -27.311  13.376  0.00  0.00    +0.044 A 
ATOM      3  C   LIG    1       22.941 -26.350  13.491  0.00  0.00    +0.024 A 
ATOM      4  C   LIG    1       21.602 -26.659  13.250  0.00  0.00    +0.002 A 
ATOM      5  C   LIG    1       21.238 -27.959  12.905  0.00  0.00    +0.001 A 
ATOM      6  C   LIG    1       22.225 -28.925  12.747  0.00  0.00    +0.017 A 
ENDROOT
BRANCH   2   7
ATOM      7  N   LIG    1       25.307 -27.011  13.707  0.00  0.00    -0.327 N 
ATOM      8  C   LIG    1       25.561 -27.271  15.148  0.00  0.00    +0.120 C 
ATOM      9  C   LIG    1       27.053 -27.054  15.498  0.00  0.00    +0.100 C 
ATOM     10  N   LIG    1       27.580 -25.735  15.089  0.00  0.00    -0.313 NA
ATOM     11  H   LIG    1       27.052 -25.017  15.583  0.00  0.00    +0.122 HD
ATOM     12  C   LIG    1       27.334 -25.572  13.639  0.00  0.00    +0.100 C 
ATOM     13  C   LIG    1       25.841 -25.707  13.262  0.00  0.00    +0.120 C 
ENDBRANCH   2   7
BRANCH   1  14
ATOM     14  S   LIG    1       24.798 -29.866  12.496  0.00  0.00    -0.087 S 
BRANCH  14  20
ATOM     15  C   LIG    1       25.029 -29.503   6.385  0.00  0.00    +0.044 C 
ATOM     16  C   LIG    1       24.956 -29.545   7.883  0.00  0.00    -0.050 A 
ATOM     17  C   LIG    1       25.936 -28.901   8.646  0.00  0.00    +0.007 A 
ATOM     18  C   LIG    1       25.927 -28.950  10.054  0.00  0.00    -0.036 A 
ATOM     19  C   LIG    1       27.025 -28.231  10.790  0.00  0.00    +0.045 C 
ATOM     20  C   LIG    1       24.908 -29.668  10.710  0.00  0.00    +0.016 A 
ATOM     21  C   LIG    1       23.932 -30.321   9.937  0.00  0.00    +0.015 A 
ATOM     22  C   LIG    1       23.955 -30.261   8.541  0.00  0.00    +0.004 A 
ENDBRANCH  14  20
ENDBRANCH   1  14
TORSDOF 3
ENDMDL
