MODEL 1
REMARK VINA RESULT:       3.4      0.000      0.000
REMARK  Name = *****
REMARK                            x       y       z     vdW  Elec       q    Type
REMARK                         _______ _______ _______ _____ _____    ______ ____
ROOT
ATOM      1  C   LIG    1       24.573 -15.904   3.948  0.00  0.00    +0.100 C 
ATOM      2  C   LIG    1       25.606 -14.935   4.018  0.00  0.00    +0.073 C 
ATOM      3  C   LIG    1       26.933 -15.393   3.887  0.00  0.00    +0.050 C 
ATOM      4  C   LIG    1       28.064 -14.466   4.123  0.00  0.00    +0.203 C 
ATOM      5  C   LIG    1       27.771 -13.053   4.425  0.00  0.00    +0.122 C 
ATOM      6  C   LIG    1       26.479 -12.693   4.421  0.00  0.00    +0.105 C 
ATOM      7  O   LIG    1       29.229 -14.860   4.083  0.00  0.00    -0.286 OA
ATOM      8  C   LIG    1       27.216 -16.712   3.536  0.00  0.00    +0.054 C 
ATOM      9  C   LIG    1       26.173 -17.597   3.311  0.00  0.00    +0.146 C 
ATOM     10  F   LIG    1       26.495 -18.818   2.857  0.00  0.00    -0.203 F 
ATOM     11  N   LIG    1       25.396 -13.528   4.185  0.00  0.00    -0.342 NA
ATOM     12  C   LIG    1       24.829 -17.238   3.520  0.00  0.00    +0.085 C 
ENDROOT
BRANCH  12  13
ATOM     13  N   LIG    1       23.733 -18.097   3.244  0.00  0.00    -0.323 NA
ATOM     14  C   LIG    1       23.967 -19.450   3.808  0.00  0.00    +0.138 C 
ATOM     15  C   LIG    1       23.141 -19.473   5.096  0.00  0.00    +0.154 C 
ATOM     16  C   LIG    1       21.848 -18.741   4.675  0.00  0.00    +0.102 C 
ATOM     17  N   LIG    1       20.818 -19.618   4.065  0.00  0.00    -0.307 NA
ATOM     18  H   LIG    1       21.129 -19.896   3.132  0.00  0.00    +0.122 HD
ATOM     19  C   LIG    1       20.664 -20.825   4.892  0.00  0.00    +0.109 C 
ATOM     20  C   LIG    1       21.993 -21.572   5.033  0.00  0.00    +0.175 C 
ATOM     21  O   LIG    1       22.974 -20.763   5.682  0.00  0.00    -0.372 OA
ATOM     22  C   LIG    1       22.369 -17.672   3.669  0.00  0.00    +0.126 C 
ENDBRANCH  12  13
BRANCH  11  23
ATOM     23  C   LIG    1       24.154 -12.867   3.699  0.00  0.00    +0.087 C 
ATOM     24  C   LIG    1       23.641 -11.565   4.279  0.00  0.00    +0.027 C 
ATOM     25  C   LIG    1       24.203 -11.583   2.897  0.00  0.00    +0.027 C 
ENDBRANCH  11  23
BRANCH   1  27
ATOM     26  N   LIG    1       22.186 -15.381   4.841  0.00  0.00    -0.191 NA
ATOM     27  C   LIG    1       23.248 -15.596   4.430  0.00  0.00    +0.103 C 
ENDBRANCH   1  27
BRANCH   5  28
ATOM     28  C   LIG    1       28.816 -12.038   4.668  0.00  0.00    +0.342 C 
ATOM     29  O   LIG    1       29.412 -11.460   3.771  0.00  0.00    -0.245 OA
BRANCH  28  30
ATOM     30  O   LIG    1       29.072 -11.795   5.973  0.00  0.00    -0.477 OA
ATOM     31  H   LIG    1       29.643 -11.004   6.138  0.00  0.00    +0.295 HD
ENDBRANCH  28  30
ENDBRANCH   5  28
TORSDOF 5
ENDMDL
MODEL 2
REMARK VINA RESULT:       4.8      1.711      7.284
REMARK  Name = *****
REMARK                            x       y       z     vdW  Elec       q    Type
REMARK                         _______ _______ _______ _____ _____    ______ ____
ROOT
ATOM      1  C   LIG    1       24.322 -15.820   3.644  0.00  0.00    +0.100 C 
ATOM      2  C   LIG    1       23.744 -17.058   4.026  0.00  0.00    +0.073 C 
ATOM      3  C   LIG    1       24.557 -18.206   3.939  0.00  0.00    +0.050 C 
ATOM      4  C   LIG    1       23.970 -19.549   4.155  0.00  0.00    +0.203 C 
ATOM      5  C   LIG    1       22.547 -19.648   4.528  0.00  0.00    +0.122 C 
ATOM      6  C   LIG    1       21.886 -18.492   4.690  0.00  0.00    +0.105 C 
ATOM      7  O   LIG    1       24.644 -20.568   4.016  0.00  0.00    -0.286 OA
ATOM      8  C   LIG    1       25.918 -18.114   3.653  0.00  0.00    +0.054 C 
ATOM      9  C   LIG    1       26.489 -16.867   3.446  0.00  0.00    +0.146 C 
ATOM     10  F   LIG    1       27.822 -16.823   3.296  0.00  0.00    -0.203 F 
ATOM     11  N   LIG    1       22.408 -17.218   4.517  0.00  0.00    -0.342 NA
ATOM     12  C   LIG    1       25.721 -15.688   3.419  0.00  0.00    +0.085 C 
ENDROOT
BRANCH  12  13
ATOM     13  N   LIG    1       26.278 -14.391   3.270  0.00  0.00    -0.323 NA
ATOM     14  C   LIG    1       26.408 -13.717   4.586  0.00  0.00    +0.138 C 
ATOM     15  C   LIG    1       27.887 -13.872   4.948  0.00  0.00    +0.154 C 
ATOM     16  C   LIG    1       28.588 -13.631   3.593  0.00  0.00    +0.102 C 
ATOM     17  N   LIG    1       28.867 -12.204   3.292  0.00  0.00    -0.307 NA
ATOM     18  H   LIG    1       27.987 -11.732   3.078  0.00  0.00    +0.122 HD
ATOM     19  C   LIG    1       29.468 -11.572   4.477  0.00  0.00    +0.109 C 
ATOM     20  C   LIG    1       28.549 -11.696   5.695  0.00  0.00    +0.175 C 
ATOM     21  O   LIG    1       28.328 -13.064   6.039  0.00  0.00    -0.372 OA
ATOM     22  C   LIG    1       27.588 -14.254   2.573  0.00  0.00    +0.126 C 
ENDBRANCH  12  13
BRANCH  11  23
ATOM     23  C   LIG    1       21.713 -16.121   5.246  0.00  0.00    +0.087 C 
ATOM     24  C   LIG    1       21.702 -16.024   6.757  0.00  0.00    +0.027 C 
ATOM     25  C   LIG    1       22.487 -15.034   5.963  0.00  0.00    +0.027 C 
ENDBRANCH  11  23
BRANCH   1  27
ATOM     26  N   LIG    1       22.841 -13.745   3.122  0.00  0.00    -0.191 NA
ATOM     27  C   LIG    1       23.485 -14.683   3.349  0.00  0.00    +0.103 C 
ENDBRANCH   1  27
BRANCH   5  28
ATOM     28  C   LIG    1       21.857 -20.930   4.778  0.00  0.00    +0.342 C 
ATOM     29  O   LIG    1       20.994 -21.382   4.039  0.00  0.00    -0.245 OA
BRANCH  28  30
ATOM     30  O   LIG    1       22.250 -21.571   5.900  0.00  0.00    -0.477 OA
ATOM     31  H   LIG    1       22.705 -22.435   5.740  0.00  0.00    +0.295 HD
ENDBRANCH  28  30
ENDBRANCH   5  28
TORSDOF 5
ENDMDL
