MODEL 1
REMARK VINA RESULT:      -5.8      0.000      0.000
REMARK  Name = *****
REMARK                            x       y       z     vdW  Elec       q    Type
REMARK                         _______ _______ _______ _____ _____    ______ ____
ROOT
ATOM      1  C   LIG    1       24.886 -14.747   3.639  0.00  0.00    +0.017 A 
ATOM      2  C   LIG    1       25.753 -15.770   3.248  0.00  0.00    +0.012 A 
ATOM      3  C   LIG    1       25.383 -17.106   3.422  0.00  0.00    +0.009 A 
ATOM      4  C   LIG    1       24.137 -17.452   3.974  0.00  0.00    -0.018 A 
ATOM      5  C   LIG    1       23.281 -16.401   4.351  0.00  0.00    +0.009 A 
ATOM      6  C   LIG    1       23.649 -15.066   4.197  0.00  0.00    +0.012 A 
ENDROOT
BRANCH   4   7
ATOM      7  C   LIG    1       23.736 -18.863   4.154  0.00  0.00    -0.018 A 
ATOM      8  C   LIG    1       24.599 -19.917   3.799  0.00  0.00    +0.008 A 
ATOM      9  C   LIG    1       24.232 -21.251   3.984  0.00  0.00    +0.001 A 
ATOM     10  C   LIG    1       22.984 -21.562   4.514  0.00  0.00    +0.000 A 
ATOM     11  C   LIG    1       22.107 -20.540   4.863  0.00  0.00    +0.001 A 
ATOM     12  C   LIG    1       22.483 -19.207   4.691  0.00  0.00    +0.008 A 
ENDBRANCH   4   7
BRANCH   1  13
ATOM     13  C   LIG    1       25.314 -13.337   3.457  0.00  0.00    +0.164 C 
ATOM     14  O   LIG    1       25.249 -12.822   2.341  0.00  0.00    -0.292 OA
BRANCH  13  15
ATOM     15  C   LIG    1       25.873 -12.577   4.646  0.00  0.00    +0.091 C 
BRANCH  15  16
ATOM     16  C   LIG    1       27.087 -13.270   5.253  0.00  0.00    +0.128 C 
BRANCH  16  18
ATOM     17  O   LIG    1       28.922 -13.153   3.704  0.00  0.00    -0.251 OA
ATOM     18  C   LIG    1       28.410 -12.753   4.745  0.00  0.00    +0.305 C 
BRANCH  18  19
ATOM     19  O   LIG    1       29.020 -11.843   5.527  0.00  0.00    -0.481 OA
ATOM     20  H   LIG    1       29.859 -11.478   5.139  0.00  0.00    +0.295 HD
ENDBRANCH  18  19
ENDBRANCH  16  18
ENDBRANCH  15  16
ENDBRANCH  13  15
ENDBRANCH   1  13
TORSDOF 6
ENDMDL
MODEL 2
REMARK VINA RESULT:      -5.5      0.855      1.487
REMARK  Name = *****
REMARK                            x       y       z     vdW  Elec       q    Type
REMARK                         _______ _______ _______ _____ _____    ______ ____
ROOT
ATOM      1  C   LIG    1       24.801 -14.666   3.609  0.00  0.00    +0.017 A 
ATOM      2  C   LIG    1       23.556 -14.979   4.158  0.00  0.00    +0.012 A 
ATOM      3  C   LIG    1       23.188 -16.314   4.343  0.00  0.00    +0.009 A 
ATOM      4  C   LIG    1       24.057 -17.365   4.000  0.00  0.00    -0.018 A 
ATOM      5  C   LIG    1       25.307 -17.020   3.456  0.00  0.00    +0.009 A 
ATOM      6  C   LIG    1       25.676 -15.691   3.252  0.00  0.00    +0.012 A 
ENDROOT
BRANCH   4   7
ATOM      7  C   LIG    1       23.677 -18.779   4.200  0.00  0.00    -0.018 A 
ATOM      8  C   LIG    1       24.525 -19.827   3.796  0.00  0.00    +0.008 A 
ATOM      9  C   LIG    1       24.178 -21.164   4.000  0.00  0.00    +0.001 A 
ATOM     10  C   LIG    1       22.965 -21.483   4.599  0.00  0.00    +0.000 A 
ATOM     11  C   LIG    1       22.102 -20.468   4.998  0.00  0.00    +0.001 A 
ATOM     12  C   LIG    1       22.459 -19.132   4.807  0.00  0.00    +0.008 A 
ENDBRANCH   4   7
BRANCH   1  13
ATOM     13  C   LIG    1       25.157 -13.239   3.408  0.00  0.00    +0.164 C 
ATOM     14  O   LIG    1       24.368 -12.361   3.757  0.00  0.00    -0.292 OA
BRANCH  13  15
ATOM     15  C   LIG    1       26.469 -12.895   2.727  0.00  0.00    +0.091 C 
BRANCH  15  16
ATOM     16  C   LIG    1       27.666 -13.518   3.434  0.00  0.00    +0.128 C 
BRANCH  16  18
ATOM     17  O   LIG    1       28.967 -12.101   4.878  0.00  0.00    -0.251 OA
ATOM     18  C   LIG    1       28.014 -12.864   4.748  0.00  0.00    +0.305 C 
BRANCH  18  19
ATOM     19  O   LIG    1       27.232 -13.198   5.792  0.00  0.00    -0.481 OA
ATOM     20  H   LIG    1       27.737 -13.437   6.613  0.00  0.00    +0.295 HD
ENDBRANCH  18  19
ENDBRANCH  16  18
ENDBRANCH  15  16
ENDBRANCH  13  15
ENDBRANCH   1  13
TORSDOF 6
ENDMDL
MODEL 3
REMARK VINA RESULT:      -5.3      3.610      6.758
REMARK  Name = *****
REMARK                            x       y       z     vdW  Elec       q    Type
REMARK                         _______ _______ _______ _____ _____    ______ ____
ROOT
ATOM      1  C   LIG    1       24.487 -19.399   3.831  0.00  0.00    +0.017 A 
ATOM      2  C   LIG    1       23.405 -18.577   4.152  0.00  0.00    +0.012 A 
ATOM      3  C   LIG    1       23.528 -17.189   4.065  0.00  0.00    +0.009 A 
ATOM      4  C   LIG    1       24.727 -16.588   3.640  0.00  0.00    -0.018 A 
ATOM      5  C   LIG    1       25.798 -17.440   3.314  0.00  0.00    +0.009 A 
ATOM      6  C   LIG    1       25.689 -18.826   3.415  0.00  0.00    +0.012 A 
ENDROOT
BRANCH   4   7
ATOM      7  C   LIG    1       24.862 -15.121   3.537  0.00  0.00    -0.018 A 
ATOM      8  C   LIG    1       25.949 -14.533   2.863  0.00  0.00    +0.008 A 
ATOM      9  C   LIG    1       26.071 -13.147   2.747  0.00  0.00    +0.001 A 
ATOM     10  C   LIG    1       25.115 -12.316   3.320  0.00  0.00    +0.000 A 
ATOM     11  C   LIG    1       24.036 -12.868   4.002  0.00  0.00    +0.001 A 
ATOM     12  C   LIG    1       23.909 -14.255   4.102  0.00  0.00    +0.008 A 
ENDBRANCH   4   7
BRANCH   1  13
ATOM     13  C   LIG    1       24.332 -20.870   3.950  0.00  0.00    +0.164 C 
ATOM     14  O   LIG    1       23.852 -21.508   3.012  0.00  0.00    -0.292 OA
BRANCH  13  15
ATOM     15  C   LIG    1       24.719 -21.550   5.250  0.00  0.00    +0.091 C 
BRANCH  15  16
ATOM     16  C   LIG    1       25.455 -20.608   6.195  0.00  0.00    +0.128 C 
BRANCH  16  18
ATOM     17  O   LIG    1       27.481 -21.572   7.062  0.00  0.00    -0.251 OA
ATOM     18  C   LIG    1       26.947 -20.828   6.245  0.00  0.00    +0.305 C 
BRANCH  18  19
ATOM     19  O   LIG    1       27.671 -20.124   5.354  0.00  0.00    -0.481 OA
ATOM     20  H   LIG    1       28.487 -19.707   5.738  0.00  0.00    +0.295 HD
ENDBRANCH  18  19
ENDBRANCH  16  18
ENDBRANCH  15  16
ENDBRANCH  13  15
ENDBRANCH   1  13
TORSDOF 6
ENDMDL
MODEL 4
REMARK VINA RESULT:      -5.2      3.620      6.987
REMARK  Name = *****
REMARK                            x       y       z     vdW  Elec       q    Type
REMARK                         _______ _______ _______ _____ _____    ______ ____
ROOT
ATOM      1  C   LIG    1       23.157 -18.185   4.082  0.00  0.00    +0.017 A 
ATOM      2  C   LIG    1       22.805 -16.888   4.460  0.00  0.00    +0.012 A 
ATOM      3  C   LIG    1       23.705 -15.836   4.278  0.00  0.00    +0.009 A 
ATOM      4  C   LIG    1       24.970 -16.050   3.701  0.00  0.00    -0.018 A 
ATOM      5  C   LIG    1       25.294 -17.364   3.321  0.00  0.00    +0.009 A 
ATOM      6  C   LIG    1       24.408 -18.423   3.515  0.00  0.00    +0.012 A 
ENDROOT
BRANCH   4   7
ATOM      7  C   LIG    1       25.924 -14.940   3.498  0.00  0.00    -0.018 A 
ATOM      8  C   LIG    1       25.558 -13.784   2.785  0.00  0.00    +0.008 A 
ATOM      9  C   LIG    1       26.450 -12.725   2.607  0.00  0.00    +0.001 A 
ATOM     10  C   LIG    1       27.738 -12.807   3.125  0.00  0.00    +0.000 A 
ATOM     11  C   LIG    1       28.131 -13.943   3.825  0.00  0.00    +0.001 A 
ATOM     12  C   LIG    1       27.231 -14.993   4.015  0.00  0.00    +0.008 A 
ENDBRANCH   4   7
BRANCH   1  13
ATOM     13  C   LIG    1       22.186 -19.286   4.303  0.00  0.00    +0.164 C 
ATOM     14  O   LIG    1       20.990 -19.096   4.076  0.00  0.00    -0.292 OA
BRANCH  13  15
ATOM     15  C   LIG    1       22.683 -20.608   4.857  0.00  0.00    +0.091 C 
BRANCH  15  16
ATOM     16  C   LIG    1       23.384 -20.443   6.200  0.00  0.00    +0.128 C 
BRANCH  16  18
ATOM     17  O   LIG    1       25.628 -20.491   7.062  0.00  0.00    -0.251 OA
ATOM     18  C   LIG    1       24.840 -20.837   6.187  0.00  0.00    +0.305 C 
BRANCH  18  19
ATOM     19  O   LIG    1       25.237 -21.571   5.131  0.00  0.00    -0.481 OA
ATOM     20  H   LIG    1       24.802 -22.462   5.074  0.00  0.00    +0.295 HD
ENDBRANCH  18  19
ENDBRANCH  16  18
ENDBRANCH  15  16
ENDBRANCH  13  15
ENDBRANCH   1  13
TORSDOF 6
ENDMDL
MODEL 5
REMARK VINA RESULT:      -4.8      3.981      7.206
REMARK  Name = *****
REMARK                            x       y       z     vdW  Elec       q    Type
REMARK                         _______ _______ _______ _____ _____    ______ ____
ROOT
ATOM      1  C   LIG    1       24.723 -18.534   3.705  0.00  0.00    +0.017 A 
ATOM      2  C   LIG    1       23.501 -17.963   4.065  0.00  0.00    +0.012 A 
ATOM      3  C   LIG    1       23.350 -16.574   4.069  0.00  0.00    +0.009 A 
ATOM      4  C   LIG    1       24.408 -15.725   3.699  0.00  0.00    -0.018 A 
ATOM      5  C   LIG    1       25.625 -16.327   3.333  0.00  0.00    +0.009 A 
ATOM      6  C   LIG    1       25.789 -17.712   3.343  0.00  0.00    +0.012 A 
ENDROOT
BRANCH   4   7
ATOM      7  C   LIG    1       24.254 -14.255   3.694  0.00  0.00    -0.018 A 
ATOM      8  C   LIG    1       24.295 -13.521   2.493  0.00  0.00    +0.008 A 
ATOM      9  C   LIG    1       24.130 -12.135   2.481  0.00  0.00    +0.001 A 
ATOM     10  C   LIG    1       23.937 -11.448   3.675  0.00  0.00    +0.000 A 
ATOM     11  C   LIG    1       23.904 -12.146   4.878  0.00  0.00    +0.001 A 
ATOM     12  C   LIG    1       24.053 -13.535   4.884  0.00  0.00    +0.008 A 
ENDBRANCH   4   7
BRANCH   1  13
ATOM     13  C   LIG    1       24.858 -20.012   3.726  0.00  0.00    +0.164 C 
ATOM     14  O   LIG    1       24.250 -20.690   2.897  0.00  0.00    -0.292 OA
BRANCH  13  15
ATOM     15  C   LIG    1       25.704 -20.660   4.807  0.00  0.00    +0.091 C 
BRANCH  15  16
ATOM     16  C   LIG    1       24.884 -21.570   5.712  0.00  0.00    +0.128 C 
BRANCH  16  18
ATOM     17  O   LIG    1       23.174 -20.467   6.994  0.00  0.00    -0.251 OA
ATOM     18  C   LIG    1       23.482 -21.078   5.975  0.00  0.00    +0.305 C 
BRANCH  18  19
ATOM     19  O   LIG    1       22.570 -21.382   5.033  0.00  0.00    -0.481 OA
ATOM     20  H   LIG    1       22.947 -21.453   4.116  0.00  0.00    +0.295 HD
ENDBRANCH  18  19
ENDBRANCH  16  18
ENDBRANCH  15  16
ENDBRANCH  13  15
ENDBRANCH   1  13
TORSDOF 6
ENDMDL
MODEL 6
REMARK VINA RESULT:      -4.6      3.913      7.433
REMARK  Name = *****
REMARK                            x       y       z     vdW  Elec       q    Type
REMARK                         _______ _______ _______ _____ _____    ______ ____
ROOT
ATOM      1  C   LIG    1       25.349 -19.517   3.965  0.00  0.00    +0.017 A 
ATOM      2  C   LIG    1       24.414 -18.559   3.568  0.00  0.00    +0.012 A 
ATOM      3  C   LIG    1       24.803 -17.229   3.394  0.00  0.00    +0.009 A 
ATOM      4  C   LIG    1       26.135 -16.826   3.597  0.00  0.00    -0.018 A 
ATOM      5  C   LIG    1       27.057 -17.814   3.989  0.00  0.00    +0.009 A 
ATOM      6  C   LIG    1       26.674 -19.140   4.180  0.00  0.00    +0.012 A 
ENDROOT
BRANCH   4   7
ATOM      7  C   LIG    1       26.556 -15.423   3.408  0.00  0.00    -0.018 A 
ATOM      8  C   LIG    1       25.785 -14.526   2.644  0.00  0.00    +0.008 A 
ATOM      9  C   LIG    1       26.169 -13.194   2.478  0.00  0.00    +0.001 A 
ATOM     10  C   LIG    1       27.344 -12.733   3.060  0.00  0.00    +0.000 A 
ATOM     11  C   LIG    1       28.132 -13.599   3.812  0.00  0.00    +0.001 A 
ATOM     12  C   LIG    1       27.736 -14.927   3.989  0.00  0.00    +0.008 A 
ENDBRANCH   4   7
BRANCH   1  13
ATOM     13  C   LIG    1       24.902 -20.919   4.157  0.00  0.00    +0.164 C 
ATOM     14  O   LIG    1       24.365 -21.519   3.225  0.00  0.00    -0.292 OA
BRANCH  13  15
ATOM     15  C   LIG    1       25.069 -21.566   5.519  0.00  0.00    +0.091 C 
BRANCH  15  16
ATOM     16  C   LIG    1       24.045 -21.060   6.527  0.00  0.00    +0.128 C 
BRANCH  16  18
ATOM     17  O   LIG    1       22.364 -19.440   5.951  0.00  0.00    -0.251 OA
ATOM     18  C   LIG    1       22.745 -20.606   5.911  0.00  0.00    +0.305 C 
BRANCH  18  19
ATOM     19  O   LIG    1       22.002 -21.571   5.338  0.00  0.00    -0.481 OA
ATOM     20  H   LIG    1       22.361 -22.488   5.472  0.00  0.00    +0.295 HD
ENDBRANCH  18  19
ENDBRANCH  16  18
ENDBRANCH  15  16
ENDBRANCH  13  15
ENDBRANCH   1  13
TORSDOF 6
ENDMDL
MODEL 7
REMARK VINA RESULT:      -4.1      1.661      2.721
REMARK  Name = *****
REMARK                            x       y       z     vdW  Elec       q    Type
REMARK                         _______ _______ _______ _____ _____    ______ ____
ROOT
ATOM      1  C   LIG    1       25.760 -15.607   3.291  0.00  0.00    +0.017 A 
ATOM      2  C   LIG    1       24.417 -15.549   3.670  0.00  0.00    +0.012 A 
ATOM      3  C   LIG    1       23.739 -16.716   4.030  0.00  0.00    +0.009 A 
ATOM      4  C   LIG    1       24.388 -17.964   4.034  0.00  0.00    -0.018 A 
ATOM      5  C   LIG    1       25.742 -17.992   3.655  0.00  0.00    +0.009 A 
ATOM      6  C   LIG    1       26.421 -16.834   3.279  0.00  0.00    +0.012 A 
ENDROOT
BRANCH   4   7
ATOM      7  C   LIG    1       23.679 -19.202   4.421  0.00  0.00    -0.018 A 
ATOM      8  C   LIG    1       22.274 -19.281   4.381  0.00  0.00    +0.008 A 
ATOM      9  C   LIG    1       21.602 -20.454   4.728  0.00  0.00    +0.001 A 
ATOM     10  C   LIG    1       22.320 -21.572   5.138  0.00  0.00    +0.000 A 
ATOM     11  C   LIG    1       23.709 -21.519   5.198  0.00  0.00    +0.001 A 
ATOM     12  C   LIG    1       24.379 -20.348   4.835  0.00  0.00    +0.008 A 
ENDBRANCH   4   7
BRANCH   1  13
ATOM     13  C   LIG    1       26.449 -14.352   2.898  0.00  0.00    +0.164 C 
ATOM     14  O   LIG    1       27.026 -14.290   1.812  0.00  0.00    -0.292 OA
BRANCH  13  15
ATOM     15  C   LIG    1       26.471 -13.188   3.870  0.00  0.00    +0.091 C 
BRANCH  15  16
ATOM     16  C   LIG    1       25.206 -13.120   4.717  0.00  0.00    +0.128 C 
BRANCH  16  18
ATOM     17  O   LIG    1       24.033 -11.867   3.032  0.00  0.00    -0.251 OA
ATOM     18  C   LIG    1       24.186 -12.124   4.222  0.00  0.00    +0.305 C 
BRANCH  18  19
ATOM     19  O   LIG    1       23.470 -11.500   5.176  0.00  0.00    -0.481 OA
ATOM     20  H   LIG    1       23.026 -10.667   4.865  0.00  0.00    +0.295 HD
ENDBRANCH  18  19
ENDBRANCH  16  18
ENDBRANCH  15  16
ENDBRANCH  13  15
ENDBRANCH   1  13
TORSDOF 6
ENDMDL
MODEL 8
REMARK VINA RESULT:      -4.0      4.002      7.125
REMARK  Name = *****
REMARK                            x       y       z     vdW  Elec       q    Type
REMARK                         _______ _______ _______ _____ _____    ______ ____
ROOT
ATOM      1  C   LIG    1       24.821 -18.726   3.710  0.00  0.00    +0.017 A 
ATOM      2  C   LIG    1       25.954 -18.024   3.295  0.00  0.00    +0.012 A 
ATOM      3  C   LIG    1       25.921 -16.630   3.206  0.00  0.00    +0.009 A 
ATOM      4  C   LIG    1       24.765 -15.905   3.542  0.00  0.00    -0.018 A 
ATOM      5  C   LIG    1       23.641 -16.637   3.965  0.00  0.00    +0.009 A 
ATOM      6  C   LIG    1       23.660 -18.029   4.041  0.00  0.00    +0.012 A 
ENDROOT
BRANCH   4   7
ATOM      7  C   LIG    1       24.725 -14.430   3.458  0.00  0.00    -0.018 A 
ATOM      8  C   LIG    1       23.910 -13.671   4.318  0.00  0.00    +0.008 A 
ATOM      9  C   LIG    1       23.884 -12.277   4.254  0.00  0.00    +0.001 A 
ATOM     10  C   LIG    1       24.661 -11.610   3.314  0.00  0.00    +0.000 A 
ATOM     11  C   LIG    1       25.468 -12.335   2.443  0.00  0.00    +0.001 A 
ATOM     12  C   LIG    1       25.504 -13.729   2.520  0.00  0.00    +0.008 A 
ENDBRANCH   4   7
BRANCH   1  13
ATOM     13  C   LIG    1       24.881 -20.208   3.779  0.00  0.00    +0.164 C 
ATOM     14  O   LIG    1       24.217 -20.880   2.990  0.00  0.00    -0.292 OA
BRANCH  13  15
ATOM     15  C   LIG    1       25.722 -20.862   4.860  0.00  0.00    +0.091 C 
BRANCH  15  16
ATOM     16  C   LIG    1       25.110 -20.695   6.245  0.00  0.00    +0.128 C 
BRANCH  16  18
ATOM     17  O   LIG    1       22.929 -20.096   7.061  0.00  0.00    -0.251 OA
ATOM     18  C   LIG    1       23.603 -20.742   6.264  0.00  0.00    +0.305 C 
BRANCH  18  19
ATOM     19  O   LIG    1       23.033 -21.569   5.368  0.00  0.00    -0.481 OA
ATOM     20  H   LIG    1       22.478 -22.284   5.777  0.00  0.00    +0.295 HD
ENDBRANCH  18  19
ENDBRANCH  16  18
ENDBRANCH  15  16
ENDBRANCH  13  15
ENDBRANCH   1  13
TORSDOF 6
ENDMDL
MODEL 9
REMARK VINA RESULT:      -2.9      2.894      4.139
REMARK  Name = *****
REMARK                            x       y       z     vdW  Elec       q    Type
REMARK                         _______ _______ _______ _____ _____    ______ ____
ROOT
ATOM      1  C   LIG    1       26.749 -14.778   3.194  0.00  0.00    +0.017 A 
ATOM      2  C   LIG    1       27.846 -14.815   4.057  0.00  0.00    +0.012 A 
ATOM      3  C   LIG    1       28.206 -16.011   4.683  0.00  0.00    +0.009 A 
ATOM      4  C   LIG    1       27.491 -17.200   4.450  0.00  0.00    -0.018 A 
ATOM      5  C   LIG    1       26.396 -17.135   3.570  0.00  0.00    +0.009 A 
ATOM      6  C   LIG    1       26.019 -15.942   2.955  0.00  0.00    +0.012 A 
ENDROOT
BRANCH   4   7
ATOM      7  C   LIG    1       27.871 -18.470   5.102  0.00  0.00    -0.018 A 
ATOM      8  C   LIG    1       29.119 -18.620   5.737  0.00  0.00    +0.008 A 
ATOM      9  C   LIG    1       29.475 -19.812   6.371  0.00  0.00    +0.001 A 
ATOM     10  C   LIG    1       28.596 -20.889   6.369  0.00  0.00    +0.000 A 
ATOM     11  C   LIG    1       27.360 -20.773   5.739  0.00  0.00    +0.001 A 
ATOM     12  C   LIG    1       27.001 -19.574   5.121  0.00  0.00    +0.008 A 
ENDBRANCH   4   7
BRANCH   1  13
ATOM     13  C   LIG    1       26.380 -13.489   2.557  0.00  0.00    +0.164 C 
ATOM     14  O   LIG    1       27.178 -12.552   2.577  0.00  0.00    -0.292 OA
BRANCH  13  15
ATOM     15  C   LIG    1       25.001 -13.339   1.942  0.00  0.00    +0.091 C 
BRANCH  15  16
ATOM     16  C   LIG    1       24.124 -12.369   2.723  0.00  0.00    +0.128 C 
BRANCH  16  18
ATOM     17  O   LIG    1       24.177 -11.895   5.080  0.00  0.00    -0.251 OA
ATOM     18  C   LIG    1       23.977 -12.710   4.185  0.00  0.00    +0.305 C 
BRANCH  18  19
ATOM     19  O   LIG    1       23.645 -13.987   4.455  0.00  0.00    -0.481 OA
ATOM     20  H   LIG    1       23.631 -14.202   5.425  0.00  0.00    +0.295 HD
ENDBRANCH  18  19
ENDBRANCH  16  18
ENDBRANCH  15  16
ENDBRANCH  13  15
ENDBRANCH   1  13
TORSDOF 6
ENDMDL
