MODEL 1
REMARK VINA RESULT:      -3.2      0.000      0.000
REMARK  Name = *****
REMARK                            x       y       z     vdW  Elec       q    Type
REMARK                         _______ _______ _______ _____ _____    ______ ____
ROOT
ATOM      1  O   LIG    1       27.135 -16.927   3.641  0.00  0.00    -0.350 OA
ENDROOT
BRANCH   1   2
ATOM      2  C   LIG    1       26.854 -15.518   3.712  0.00  0.00    +0.183 C 
BRANCH   2   3
ATOM      3  C   LIG    1       27.065 -14.962   2.289  0.00  0.00    +0.266 C 
BRANCH   3   4
ATOM      4  O   LIG    1       25.997 -14.074   1.895  0.00  0.00    -0.461 OA
BRANCH   4   5
ATOM      5  C   LIG    1       26.028 -12.854   2.496  0.00  0.00    +0.324 C 
ATOM      6  O   LIG    1       27.039 -12.165   2.563  0.00  0.00    -0.249 OA
BRANCH   5   7
ATOM      7  C   LIG    1       24.621 -12.407   2.985  0.00  0.00    +0.163 C 
BRANCH   7   9
ATOM      8  C   LIG    1       23.833 -13.944   4.865  0.00  0.00    +0.009 C 
ATOM      9  C   LIG    1       24.428 -12.570   4.514  0.00  0.00    +0.011 C 
ATOM     10  C   LIG    1       23.506 -11.488   5.100  0.00  0.00    +0.009 C 
ENDBRANCH   7   9
BRANCH   7  11
ATOM     11  N   LIG    1       23.562 -13.137   2.239  0.00  0.00    -0.318 NA
ATOM     12  H   LIG    1       23.686 -14.138   2.420  0.00  0.00    +0.119 HD
ATOM     13  H   LIG    1       22.657 -12.921   2.663  0.00  0.00    +0.119 HD
ENDBRANCH   7  11
ENDBRANCH   5   7
ENDBRANCH   4   5
ENDBRANCH   3   4
ENDBRANCH   2   3
BRANCH   2  14
ATOM     14  C   LIG    1       27.781 -14.789   4.705  0.00  0.00    +0.191 C 
BRANCH  14  15
ATOM     15  O   LIG    1       28.637 -13.820   4.111  0.00  0.00    -0.392 OA
ATOM     16  H   LIG    1       28.491 -13.776   3.150  0.00  0.00    +0.209 HD
ENDBRANCH  14  15
ENDBRANCH   2  14
ENDBRANCH   1   2
BRANCH   1  17
ATOM     17  C   LIG    1       26.150 -17.738   3.000  0.00  0.00    +0.287 C 
BRANCH  17  18
ATOM     18  N   LIG    1       25.718 -18.767   3.936  0.00  0.00    -0.291 N 
ATOM     19  C   LIG    1       24.430 -19.088   4.264  0.00  0.00    +0.171 A 
ATOM     20  N   LIG    1       23.299 -18.516   3.781  0.00  0.00    -0.196 NA
ATOM     21  C   LIG    1       22.208 -19.022   4.293  0.00  0.00    +0.195 C 
ATOM     22  N   LIG    1       22.192 -20.038   5.231  0.00  0.00    -0.293 N 
ATOM     23  H   LIG    1       21.316 -20.416   5.551  0.00  0.00    +0.172 HD
ATOM     24  C   LIG    1       23.322 -20.658   5.740  0.00  0.00    +0.280 C 
ATOM     25  O   LIG    1       23.247 -21.571   6.562  0.00  0.00    -0.265 OA
ATOM     26  C   LIG    1       24.541 -20.097   5.197  0.00  0.00    +0.172 A 
ATOM     27  N   LIG    1       25.850 -20.384   5.475  0.00  0.00    -0.229 NA
ATOM     28  C   LIG    1       26.534 -19.555   4.712  0.00  0.00    +0.203 A 
BRANCH  21  29
ATOM     29  N   LIG    1       20.997 -18.541   3.916  0.00  0.00    -0.329 N 
ATOM     30  H   LIG    1       20.330 -18.368   4.656  0.00  0.00    +0.145 HD
ATOM     31  H   LIG    1       21.079 -17.759   3.274  0.00  0.00    +0.145 HD
ENDBRANCH  21  29
ENDBRANCH  17  18
ENDBRANCH   1  17
TORSDOF 12
ENDMDL
MODEL 2
REMARK VINA RESULT:      -3.1      1.209      1.437
REMARK  Name = *****
REMARK                            x       y       z     vdW  Elec       q    Type
REMARK                         _______ _______ _______ _____ _____    ______ ____
ROOT
ATOM      1  O   LIG    1       26.423 -17.271   3.569  0.00  0.00    -0.350 OA
ENDROOT
BRANCH   1   2
ATOM      2  C   LIG    1       27.455 -16.873   4.488  0.00  0.00    +0.183 C 
BRANCH   2   3
ATOM      3  C   LIG    1       27.865 -15.441   4.087  0.00  0.00    +0.266 C 
BRANCH   3   4
ATOM      4  O   LIG    1       26.960 -14.876   3.113  0.00  0.00    -0.461 OA
BRANCH   4   5
ATOM      5  C   LIG    1       26.969 -13.517   3.057  0.00  0.00    +0.324 C 
ATOM      6  O   LIG    1       27.997 -12.857   2.958  0.00  0.00    -0.249 OA
BRANCH   5   7
ATOM      7  C   LIG    1       25.532 -12.923   3.031  0.00  0.00    +0.163 C 
BRANCH   7   9
ATOM      8  C   LIG    1       23.761 -14.434   4.076  0.00  0.00    +0.009 C 
ATOM      9  C   LIG    1       24.715 -13.251   4.306  0.00  0.00    +0.011 C 
ATOM     10  C   LIG    1       23.881 -12.052   4.784  0.00  0.00    +0.009 C 
ENDBRANCH   7   9
BRANCH   7  11
ATOM     11  N   LIG    1       24.812 -13.375   1.812  0.00  0.00    -0.318 NA
ATOM     12  H   LIG    1       24.634 -14.379   1.909  0.00  0.00    +0.119 HD
ATOM     13  H   LIG    1       23.878 -12.958   1.812  0.00  0.00    +0.119 HD
ENDBRANCH   7  11
ENDBRANCH   5   7
ENDBRANCH   4   5
ENDBRANCH   3   4
ENDBRANCH   2   3
BRANCH   2  14
ATOM     14  C   LIG    1       28.681 -17.807   4.429  0.00  0.00    +0.191 C 
BRANCH  14  15
ATOM     15  O   LIG    1       29.454 -17.842   5.623  0.00  0.00    -0.392 OA
ATOM     16  H   LIG    1       30.384 -17.625   5.436  0.00  0.00    +0.209 HD
ENDBRANCH  14  15
ENDBRANCH   2  14
ENDBRANCH   1   2
BRANCH   1  17
ATOM     17  C   LIG    1       26.448 -18.631   3.138  0.00  0.00    +0.287 C 
BRANCH  17  18
ATOM     18  N   LIG    1       25.842 -19.456   4.173  0.00  0.00    -0.291 N 
ATOM     19  C   LIG    1       24.511 -19.539   4.481  0.00  0.00    +0.171 A 
ATOM     20  N   LIG    1       23.493 -18.874   3.880  0.00  0.00    -0.196 NA
ATOM     21  C   LIG    1       22.325 -19.144   4.402  0.00  0.00    +0.195 C 
ATOM     22  N   LIG    1       22.131 -20.017   5.457  0.00  0.00    -0.293 N 
ATOM     23  H   LIG    1       21.200 -20.217   5.782  0.00  0.00    +0.172 HD
ATOM     24  C   LIG    1       23.141 -20.725   6.090  0.00  0.00    +0.280 C 
ATOM     25  O   LIG    1       22.908 -21.503   7.015  0.00  0.00    -0.265 OA
ATOM     26  C   LIG    1       24.444 -20.424   5.536  0.00  0.00    +0.172 A 
ATOM     27  N   LIG    1       25.687 -20.862   5.906  0.00  0.00    -0.229 NA
ATOM     28  C   LIG    1       26.508 -20.247   5.078  0.00  0.00    +0.203 A 
BRANCH  21  29
ATOM     29  N   LIG    1       21.211 -18.544   3.915  0.00  0.00    -0.329 N 
ATOM     30  H   LIG    1       20.737 -19.017   3.157  0.00  0.00    +0.145 HD
ATOM     31  H   LIG    1       20.575 -18.259   4.654  0.00  0.00    +0.145 HD
ENDBRANCH  21  29
ENDBRANCH  17  18
ENDBRANCH   1  17
TORSDOF 12
ENDMDL
MODEL 3
REMARK VINA RESULT:      -2.7      2.334      7.393
REMARK  Name = *****
REMARK                            x       y       z     vdW  Elec       q    Type
REMARK                         _______ _______ _______ _____ _____    ______ ____
ROOT
ATOM      1  O   LIG    1       22.756 -16.626   4.033  0.00  0.00    -0.350 OA
ENDROOT
BRANCH   1   2
ATOM      2  C   LIG    1       21.840 -17.676   4.392  0.00  0.00    +0.183 C 
BRANCH   2   3
ATOM      3  C   LIG    1       22.671 -18.743   5.133  0.00  0.00    +0.266 C 
BRANCH   3   4
ATOM      4  O   LIG    1       23.328 -19.645   4.216  0.00  0.00    -0.461 OA
BRANCH   4   5
ATOM      5  C   LIG    1       23.937 -20.706   4.810  0.00  0.00    +0.324 C 
ATOM      6  O   LIG    1       23.326 -21.572   5.426  0.00  0.00    -0.249 OA
BRANCH   5   7
ATOM      7  C   LIG    1       25.466 -20.736   4.525  0.00  0.00    +0.163 C 
BRANCH   7   9
ATOM      8  C   LIG    1       25.548 -20.465   7.061  0.00  0.00    +0.009 C 
ATOM      9  C   LIG    1       26.320 -20.903   5.806  0.00  0.00    +0.011 C 
ATOM     10  C   LIG    1       27.625 -20.092   5.742  0.00  0.00    +0.009 C 
ENDBRANCH   7   9
BRANCH   7  11
ATOM     11  N   LIG    1       25.873 -19.519   3.774  0.00  0.00    -0.318 NA
ATOM     12  H   LIG    1       25.044 -18.926   3.669  0.00  0.00    +0.119 HD
ATOM     13  H   LIG    1       26.498 -18.966   4.364  0.00  0.00    +0.119 HD
ENDBRANCH   7  11
ENDBRANCH   5   7
ENDBRANCH   4   5
ENDBRANCH   3   4
ENDBRANCH   2   3
BRANCH   2  14
ATOM     14  C   LIG    1       21.158 -18.302   3.159  0.00  0.00    +0.191 C 
BRANCH  14  15
ATOM     15  O   LIG    1       19.761 -18.524   3.306  0.00  0.00    -0.392 OA
ATOM     16  H   LIG    1       19.550 -19.468   3.195  0.00  0.00    +0.209 HD
ENDBRANCH  14  15
ENDBRANCH   2  14
ENDBRANCH   1   2
BRANCH   1  17
ATOM     17  C   LIG    1       22.711 -15.445   4.832  0.00  0.00    +0.287 C 
BRANCH  17  18
ATOM     18  N   LIG    1       23.715 -14.514   4.337  0.00  0.00    -0.291 N 
ATOM     19  C   LIG    1       24.997 -14.811   3.967  0.00  0.00    +0.171 A 
ATOM     20  N   LIG    1       25.588 -16.032   3.982  0.00  0.00    -0.196 NA
ATOM     21  C   LIG    1       26.834 -16.006   3.586  0.00  0.00    +0.195 C 
ATOM     22  N   LIG    1       27.495 -14.858   3.187  0.00  0.00    -0.293 N 
ATOM     23  H   LIG    1       28.441 -14.913   2.849  0.00  0.00    +0.172 HD
ATOM     24  C   LIG    1       26.926 -13.596   3.144  0.00  0.00    +0.280 C 
ATOM     25  O   LIG    1       27.558 -12.610   2.764  0.00  0.00    -0.265 OA
ATOM     26  C   LIG    1       25.551 -13.604   3.597  0.00  0.00    +0.172 A 
ATOM     27  N   LIG    1       24.664 -12.573   3.757  0.00  0.00    -0.229 NA
ATOM     28  C   LIG    1       23.574 -13.152   4.221  0.00  0.00    +0.203 A 
BRANCH  21  29
ATOM     29  N   LIG    1       27.560 -17.150   3.561  0.00  0.00    -0.329 N 
ATOM     30  H   LIG    1       27.427 -17.752   2.759  0.00  0.00    +0.145 HD
ATOM     31  H   LIG    1       28.541 -16.985   3.765  0.00  0.00    +0.145 HD
ENDBRANCH  21  29
ENDBRANCH  17  18
ENDBRANCH   1  17
TORSDOF 12
ENDMDL
MODEL 4
REMARK VINA RESULT:      -2.5      2.209      6.827
REMARK  Name = *****
REMARK                            x       y       z     vdW  Elec       q    Type
REMARK                         _______ _______ _______ _____ _____    ______ ____
ROOT
ATOM      1  O   LIG    1       25.450 -18.755   4.201  0.00  0.00    -0.350 OA
ENDROOT
BRANCH   1   2
ATOM      2  C   LIG    1       26.105 -20.034   4.253  0.00  0.00    +0.183 C 
BRANCH   2   3
ATOM      3  C   LIG    1       25.026 -21.057   4.666  0.00  0.00    +0.266 C 
BRANCH   3   4
ATOM      4  O   LIG    1       24.497 -20.780   5.980  0.00  0.00    -0.461 OA
BRANCH   4   5
ATOM      5  C   LIG    1       23.197 -20.378   5.991  0.00  0.00    +0.324 C 
ATOM      6  O   LIG    1       22.675 -19.825   6.952  0.00  0.00    -0.249 OA
BRANCH   5   7
ATOM      7  C   LIG    1       22.502 -20.611   4.620  0.00  0.00    +0.163 C 
BRANCH   7   9
ATOM      8  C   LIG    1       22.414 -18.066   4.779  0.00  0.00    +0.009 C 
ATOM      9  C   LIG    1       22.019 -19.300   3.952  0.00  0.00    +0.011 C 
ATOM     10  C   LIG    1       20.494 -19.276   3.758  0.00  0.00    +0.009 C 
ENDBRANCH   7   9
BRANCH   7  11
ATOM     11  N   LIG    1       21.377 -21.572   4.771  0.00  0.00    -0.318 NA
ATOM     12  H   LIG    1       21.110 -21.586   5.759  0.00  0.00    +0.119 HD
ATOM     13  H   LIG    1       20.556 -21.188   4.299  0.00  0.00    +0.119 HD
ENDBRANCH   7  11
ENDBRANCH   5   7
ENDBRANCH   4   5
ENDBRANCH   3   4
ENDBRANCH   2   3
BRANCH   2  14
ATOM     14  C   LIG    1       27.265 -20.055   5.268  0.00  0.00    +0.191 C 
BRANCH  14  15
ATOM     15  O   LIG    1       27.171 -21.079   6.251  0.00  0.00    -0.392 OA
ATOM     16  H   LIG    1       26.535 -20.831   6.945  0.00  0.00    +0.209 HD
ENDBRANCH  14  15
ENDBRANCH   2  14
ENDBRANCH   1   2
BRANCH   1  17
ATOM     17  C   LIG    1       25.760 -17.928   3.080  0.00  0.00    +0.287 C 
BRANCH  17  18
ATOM     18  N   LIG    1       26.604 -16.832   3.532  0.00  0.00    -0.291 N 
ATOM     19  C   LIG    1       26.418 -15.499   3.288  0.00  0.00    +0.171 A 
ATOM     20  N   LIG    1       25.408 -14.933   2.581  0.00  0.00    -0.196 NA
ATOM     21  C   LIG    1       25.503 -13.632   2.502  0.00  0.00    +0.195 C 
ATOM     22  N   LIG    1       26.521 -12.893   3.077  0.00  0.00    -0.293 N 
ATOM     23  H   LIG    1       26.510 -11.889   3.019  0.00  0.00    +0.172 HD
ATOM     24  C   LIG    1       27.562 -13.430   3.818  0.00  0.00    +0.280 C 
ATOM     25  O   LIG    1       28.433 -12.721   4.322  0.00  0.00    -0.265 OA
ATOM     26  C   LIG    1       27.483 -14.873   3.900  0.00  0.00    +0.172 A 
ATOM     27  N   LIG    1       28.331 -15.776   4.483  0.00  0.00    -0.229 NA
ATOM     28  C   LIG    1       27.783 -16.947   4.229  0.00  0.00    +0.203 A 
BRANCH  21  29
ATOM     29  N   LIG    1       24.572 -12.926   1.814  0.00  0.00    -0.329 N 
ATOM     30  H   LIG    1       24.017 -13.443   1.145  0.00  0.00    +0.145 HD
ATOM     31  H   LIG    1       24.005 -12.344   2.423  0.00  0.00    +0.145 HD
ENDBRANCH  21  29
ENDBRANCH  17  18
ENDBRANCH   1  17
TORSDOF 12
ENDMDL
MODEL 5
REMARK VINA RESULT:      -2.5      1.222      1.879
REMARK  Name = *****
REMARK                            x       y       z     vdW  Elec       q    Type
REMARK                         _______ _______ _______ _____ _____    ______ ____
ROOT
ATOM      1  O   LIG    1       26.190 -16.566   3.608  0.00  0.00    -0.350 OA
ENDROOT
BRANCH   1   2
ATOM      2  C   LIG    1       27.213 -15.663   3.153  0.00  0.00    +0.183 C 
BRANCH   2   3
ATOM      3  C   LIG    1       27.876 -15.086   4.421  0.00  0.00    +0.266 C 
BRANCH   3   4
ATOM      4  O   LIG    1       26.898 -14.663   5.395  0.00  0.00    -0.461 OA
BRANCH   4   5
ATOM      5  C   LIG    1       26.685 -13.320   5.432  0.00  0.00    +0.324 C 
ATOM      6  O   LIG    1       27.593 -12.497   5.415  0.00  0.00    -0.249 OA
BRANCH   5   7
ATOM      7  C   LIG    1       25.171 -12.967   5.396  0.00  0.00    +0.163 C 
BRANCH   7   9
ATOM      8  C   LIG    1       23.752 -12.257   3.398  0.00  0.00    +0.009 C 
ATOM      9  C   LIG    1       24.471 -13.424   4.093  0.00  0.00    +0.011 C 
ATOM     10  C   LIG    1       23.439 -14.535   4.349  0.00  0.00    +0.009 C 
ENDBRANCH   7   9
BRANCH   7  11
ATOM     11  N   LIG    1       24.978 -11.509   5.616  0.00  0.00    -0.318 NA
ATOM     12  H   LIG    1       24.233 -11.195   4.986  0.00  0.00    +0.119 HD
ATOM     13  H   LIG    1       24.586 -11.369   6.549  0.00  0.00    +0.119 HD
ENDBRANCH   7  11
ENDBRANCH   5   7
ENDBRANCH   4   5
ENDBRANCH   3   4
ENDBRANCH   2   3
BRANCH   2  14
ATOM     14  C   LIG    1       26.640 -14.520   2.292  0.00  0.00    +0.191 C 
BRANCH  14  15
ATOM     15  O   LIG    1       27.272 -13.260   2.488  0.00  0.00    -0.392 OA
ATOM     16  H   LIG    1       26.613 -12.574   2.693  0.00  0.00    +0.209 HD
ENDBRANCH  14  15
ENDBRANCH   2  14
ENDBRANCH   1   2
BRANCH   1  17
ATOM     17  C   LIG    1       26.115 -17.826   2.942  0.00  0.00    +0.287 C 
BRANCH  17  18
ATOM     18  N   LIG    1       25.682 -18.832   3.902  0.00  0.00    -0.291 N 
ATOM     19  C   LIG    1       24.393 -19.145   4.235  0.00  0.00    +0.171 A 
ATOM     20  N   LIG    1       23.262 -18.585   3.736  0.00  0.00    -0.196 NA
ATOM     21  C   LIG    1       22.171 -19.079   4.259  0.00  0.00    +0.195 C 
ATOM     22  N   LIG    1       22.153 -20.072   5.221  0.00  0.00    -0.293 N 
ATOM     23  H   LIG    1       21.277 -20.442   5.549  0.00  0.00    +0.172 HD
ATOM     24  C   LIG    1       23.282 -20.679   5.748  0.00  0.00    +0.280 C 
ATOM     25  O   LIG    1       23.207 -21.571   6.592  0.00  0.00    -0.265 OA
ATOM     26  C   LIG    1       24.502 -20.131   5.193  0.00  0.00    +0.172 A 
ATOM     27  N   LIG    1       25.811 -20.411   5.480  0.00  0.00    -0.229 NA
ATOM     28  C   LIG    1       26.496 -19.600   4.699  0.00  0.00    +0.203 A 
BRANCH  21  29
ATOM     29  N   LIG    1       20.961 -18.608   3.868  0.00  0.00    -0.329 N 
ATOM     30  H   LIG    1       20.154 -19.152   4.144  0.00  0.00    +0.145 HD
ATOM     31  H   LIG    1       20.852 -17.619   4.070  0.00  0.00    +0.145 HD
ENDBRANCH  21  29
ENDBRANCH  17  18
ENDBRANCH   1  17
TORSDOF 12
ENDMDL
MODEL 6
REMARK VINA RESULT:      -2.4      2.270      4.003
REMARK  Name = *****
REMARK                            x       y       z     vdW  Elec       q    Type
REMARK                         _______ _______ _______ _____ _____    ______ ____
ROOT
ATOM      1  O   LIG    1       23.893 -14.544   4.012  0.00  0.00    -0.350 OA
ENDROOT
BRANCH   1   2
ATOM      2  C   LIG    1       23.763 -13.172   3.600  0.00  0.00    +0.183 C 
BRANCH   2   3
ATOM      3  C   LIG    1       24.684 -12.999   2.375  0.00  0.00    +0.266 C 
BRANCH   3   4
ATOM      4  O   LIG    1       26.042 -12.700   2.761  0.00  0.00    -0.461 OA
BRANCH   4   5
ATOM      5  C   LIG    1       26.896 -13.757   2.685  0.00  0.00    +0.324 C 
ATOM      6  O   LIG    1       26.826 -14.613   1.812  0.00  0.00    -0.249 OA
BRANCH   5   7
ATOM      7  C   LIG    1       28.014 -13.684   3.764  0.00  0.00    +0.163 C 
BRANCH   7   9
ATOM      8  C   LIG    1       28.852 -12.127   5.604  0.00  0.00    +0.009 C 
ATOM      9  C   LIG    1       27.624 -12.814   4.985  0.00  0.00    +0.011 C 
ATOM     10  C   LIG    1       26.934 -13.637   6.085  0.00  0.00    +0.009 C 
ENDBRANCH   7   9
BRANCH   7  11
ATOM     11  N   LIG    1       29.283 -13.202   3.157  0.00  0.00    -0.318 NA
ATOM     12  H   LIG    1       29.169 -12.208   2.942  0.00  0.00    +0.119 HD
ATOM     13  H   LIG    1       30.012 -13.218   3.873  0.00  0.00    +0.119 HD
ENDBRANCH   7  11
ENDBRANCH   5   7
ENDBRANCH   4   5
ENDBRANCH   3   4
ENDBRANCH   2   3
BRANCH   2  14
ATOM     14  C   LIG    1       24.176 -12.188   4.712  0.00  0.00    +0.191 C 
BRANCH  14  15
ATOM     15  O   LIG    1       23.091 -11.507   5.331  0.00  0.00    -0.392 OA
ATOM     16  H   LIG    1       22.794 -11.984   6.125  0.00  0.00    +0.209 HD
ENDBRANCH  14  15
ENDBRANCH   2  14
ENDBRANCH   1   2
BRANCH   1  17
ATOM     17  C   LIG    1       22.729 -15.151   4.573  0.00  0.00    +0.287 C 
BRANCH  17  18
ATOM     18  N   LIG    1       22.822 -16.591   4.386  0.00  0.00    -0.291 N 
ATOM     19  C   LIG    1       23.943 -17.305   4.062  0.00  0.00    +0.171 A 
ATOM     20  N   LIG    1       25.191 -16.814   3.856  0.00  0.00    -0.196 NA
ATOM     21  C   LIG    1       26.061 -17.738   3.544  0.00  0.00    +0.195 C 
ATOM     22  N   LIG    1       25.757 -19.083   3.433  0.00  0.00    -0.293 N 
ATOM     23  H   LIG    1       26.484 -19.750   3.234  0.00  0.00    +0.172 HD
ATOM     24  C   LIG    1       24.501 -19.627   3.648  0.00  0.00    +0.280 C 
ATOM     25  O   LIG    1       24.291 -20.836   3.551  0.00  0.00    -0.265 OA
ATOM     26  C   LIG    1       23.520 -18.614   3.977  0.00  0.00    +0.172 A 
ATOM     27  N   LIG    1       22.174 -18.724   4.206  0.00  0.00    -0.229 NA
ATOM     28  C   LIG    1       21.781 -17.487   4.431  0.00  0.00    +0.203 A 
BRANCH  21  29
ATOM     29  N   LIG    1       27.350 -17.397   3.294  0.00  0.00    -0.329 N 
ATOM     30  H   LIG    1       28.041 -18.125   3.416  0.00  0.00    +0.145 HD
ATOM     31  H   LIG    1       27.451 -16.907   2.411  0.00  0.00    +0.145 HD
ENDBRANCH  21  29
ENDBRANCH  17  18
ENDBRANCH   1  17
TORSDOF 12
ENDMDL
MODEL 7
REMARK VINA RESULT:      -1.9      2.245      3.420
REMARK  Name = *****
REMARK                            x       y       z     vdW  Elec       q    Type
REMARK                         _______ _______ _______ _____ _____    ______ ____
ROOT
ATOM      1  O   LIG    1       24.370 -14.304   4.152  0.00  0.00    -0.350 OA
ENDROOT
BRANCH   1   2
ATOM      2  C   LIG    1       23.918 -13.058   3.592  0.00  0.00    +0.183 C 
BRANCH   2   3
ATOM      3  C   LIG    1       24.731 -12.845   2.298  0.00  0.00    +0.266 C 
BRANCH   3   4
ATOM      4  O   LIG    1       26.119 -12.557   2.576  0.00  0.00    -0.461 OA
BRANCH   4   5
ATOM      5  C   LIG    1       26.929 -13.650   2.592  0.00  0.00    +0.324 C 
ATOM      6  O   LIG    1       26.804 -14.587   1.813  0.00  0.00    -0.249 OA
BRANCH   5   7
ATOM      7  C   LIG    1       28.075 -13.513   3.634  0.00  0.00    +0.163 C 
BRANCH   7   9
ATOM      8  C   LIG    1       28.860 -12.070   5.587  0.00  0.00    +0.009 C 
ATOM      9  C   LIG    1       27.652 -12.732   4.903  0.00  0.00    +0.011 C 
ATOM     10  C   LIG    1       26.956 -13.635   5.935  0.00  0.00    +0.009 C 
ENDBRANCH   7   9
BRANCH   7  11
ATOM     11  N   LIG    1       29.270 -12.891   3.005  0.00  0.00    -0.318 NA
ATOM     12  H   LIG    1       30.033 -12.922   3.688  0.00  0.00    +0.119 HD
ATOM     13  H   LIG    1       29.592 -13.498   2.248  0.00  0.00    +0.119 HD
ENDBRANCH   7  11
ENDBRANCH   5   7
ENDBRANCH   4   5
ENDBRANCH   3   4
ENDBRANCH   2   3
BRANCH   2  14
ATOM     14  C   LIG    1       24.138 -11.873   4.553  0.00  0.00    +0.191 C 
BRANCH  14  15
ATOM     15  O   LIG    1       22.968 -11.447   5.242  0.00  0.00    -0.392 OA
ATOM     16  H   LIG    1       22.169 -11.681   4.738  0.00  0.00    +0.209 HD
ENDBRANCH  14  15
ENDBRANCH   2  14
ENDBRANCH   1   2
BRANCH   1  17
ATOM     17  C   LIG    1       23.450 -15.394   4.097  0.00  0.00    +0.287 C 
BRANCH  17  18
ATOM     18  N   LIG    1       24.197 -16.617   3.842  0.00  0.00    -0.291 N 
ATOM     19  C   LIG    1       23.741 -17.899   3.980  0.00  0.00    +0.171 A 
ATOM     20  N   LIG    1       22.502 -18.286   4.375  0.00  0.00    -0.196 NA
ATOM     21  C   LIG    1       22.363 -19.585   4.429  0.00  0.00    +0.195 C 
ATOM     22  N   LIG    1       23.364 -20.485   4.115  0.00  0.00    -0.293 N 
ATOM     23  H   LIG    1       23.178 -21.474   4.131  0.00  0.00    +0.172 HD
ATOM     24  C   LIG    1       24.637 -20.133   3.695  0.00  0.00    +0.280 C 
ATOM     25  O   LIG    1       25.486 -20.979   3.412  0.00  0.00    -0.265 OA
ATOM     26  C   LIG    1       24.815 -18.697   3.648  0.00  0.00    +0.172 A 
ATOM     27  N   LIG    1       25.921 -17.950   3.342  0.00  0.00    -0.229 NA
ATOM     28  C   LIG    1       25.521 -16.703   3.486  0.00  0.00    +0.203 A 
BRANCH  21  29
ATOM     29  N   LIG    1       21.182 -20.123   4.821  0.00  0.00    -0.329 N 
ATOM     30  H   LIG    1       21.073 -21.120   4.688  0.00  0.00    +0.145 HD
ATOM     31  H   LIG    1       20.916 -19.823   5.755  0.00  0.00    +0.145 HD
ENDBRANCH  21  29
ENDBRANCH  17  18
ENDBRANCH   1  17
TORSDOF 12
ENDMDL
MODEL 8
REMARK VINA RESULT:      -1.2      1.657      2.934
REMARK  Name = *****
REMARK                            x       y       z     vdW  Elec       q    Type
REMARK                         _______ _______ _______ _____ _____    ______ ____
ROOT
ATOM      1  O   LIG    1       25.590 -17.343   3.317  0.00  0.00    -0.350 OA
ENDROOT
BRANCH   1   2
ATOM      2  C   LIG    1       26.772 -17.164   4.117  0.00  0.00    +0.183 C 
BRANCH   2   3
ATOM      3  C   LIG    1       27.469 -15.896   3.581  0.00  0.00    +0.266 C 
BRANCH   3   4
ATOM      4  O   LIG    1       26.566 -15.068   2.817  0.00  0.00    -0.461 OA
BRANCH   4   5
ATOM      5  C   LIG    1       26.494 -13.776   3.238  0.00  0.00    +0.324 C 
ATOM      6  O   LIG    1       27.013 -12.845   2.634  0.00  0.00    -0.249 OA
BRANCH   5   7
ATOM      7  C   LIG    1       25.599 -13.622   4.501  0.00  0.00    +0.163 C 
BRANCH   7   9
ATOM      8  C   LIG    1       24.032 -12.747   2.686  0.00  0.00    +0.009 C 
ATOM      9  C   LIG    1       24.200 -13.037   4.186  0.00  0.00    +0.011 C 
ATOM     10  C   LIG    1       23.930 -11.734   4.957  0.00  0.00    +0.009 C 
ENDBRANCH   7   9
BRANCH   7  11
ATOM     11  N   LIG    1       26.295 -12.802   5.527  0.00  0.00    -0.318 NA
ATOM     12  H   LIG    1       25.590 -12.228   5.999  0.00  0.00    +0.119 HD
ATOM     13  H   LIG    1       26.639 -13.423   6.262  0.00  0.00    +0.119 HD
ENDBRANCH   7  11
ENDBRANCH   5   7
ENDBRANCH   4   5
ENDBRANCH   3   4
ENDBRANCH   2   3
BRANCH   2  14
ATOM     14  C   LIG    1       27.728 -18.369   4.023  0.00  0.00    +0.191 C 
BRANCH  14  15
ATOM     15  O   LIG    1       27.725 -19.216   5.167  0.00  0.00    -0.392 OA
ATOM     16  H   LIG    1       27.640 -20.148   4.903  0.00  0.00    +0.209 HD
ENDBRANCH  14  15
ENDBRANCH   2  14
ENDBRANCH   1   2
BRANCH   1  17
ATOM     17  C   LIG    1       24.407 -16.693   3.779  0.00  0.00    +0.287 C 
BRANCH  17  18
ATOM     18  N   LIG    1       23.384 -17.703   4.008  0.00  0.00    -0.291 N 
ATOM     19  C   LIG    1       23.582 -18.994   4.416  0.00  0.00    +0.171 A 
ATOM     20  N   LIG    1       24.770 -19.588   4.692  0.00  0.00    -0.196 NA
ATOM     21  C   LIG    1       24.649 -20.841   5.044  0.00  0.00    +0.195 C 
ATOM     22  N   LIG    1       23.439 -21.506   5.134  0.00  0.00    -0.293 N 
ATOM     23  H   LIG    1       23.410 -22.458   5.456  0.00  0.00    +0.172 HD
ATOM     24  C   LIG    1       22.204 -20.934   4.874  0.00  0.00    +0.280 C 
ATOM     25  O   LIG    1       21.156 -21.570   4.986  0.00  0.00    -0.265 OA
ATOM     26  C   LIG    1       22.322 -19.550   4.464  0.00  0.00    +0.172 A 
ATOM     27  N   LIG    1       21.362 -18.657   4.072  0.00  0.00    -0.229 NA
ATOM     28  C   LIG    1       22.035 -17.560   3.787  0.00  0.00    +0.203 A 
BRANCH  21  29
ATOM     29  N   LIG    1       25.752 -21.572   5.337  0.00  0.00    -0.329 N 
ATOM     30  H   LIG    1       25.703 -22.562   5.141  0.00  0.00    +0.145 HD
ATOM     31  H   LIG    1       26.600 -21.144   4.978  0.00  0.00    +0.145 HD
ENDBRANCH  21  29
ENDBRANCH  17  18
ENDBRANCH   1  17
TORSDOF 12
ENDMDL
MODEL 9
REMARK VINA RESULT:      -0.9      2.094      3.872
REMARK  Name = *****
REMARK                            x       y       z     vdW  Elec       q    Type
REMARK                         _______ _______ _______ _____ _____    ______ ____
ROOT
ATOM      1  O   LIG    1       23.468 -15.249   4.064  0.00  0.00    -0.350 OA
ENDROOT
BRANCH   1   2
ATOM      2  C   LIG    1       24.228 -14.069   3.750  0.00  0.00    +0.183 C 
BRANCH   2   3
ATOM      3  C   LIG    1       24.348 -13.269   5.063  0.00  0.00    +0.266 C 
BRANCH   3   4
ATOM      4  O   LIG    1       25.489 -12.384   5.052  0.00  0.00    -0.461 OA
BRANCH   4   5
ATOM      5  C   LIG    1       26.675 -12.991   5.330  0.00  0.00    +0.324 C 
ATOM      6  O   LIG    1       26.863 -13.665   6.336  0.00  0.00    -0.249 OA
BRANCH   5   7
ATOM      7  C   LIG    1       27.707 -12.811   4.182  0.00  0.00    +0.163 C 
BRANCH   7   9
ATOM      8  C   LIG    1       26.856 -14.043   2.116  0.00  0.00    +0.009 C 
ATOM      9  C   LIG    1       27.850 -14.068   3.288  0.00  0.00    +0.011 C 
ATOM     10  C   LIG    1       27.624 -15.368   4.077  0.00  0.00    +0.009 C 
ENDBRANCH   7   9
BRANCH   7  11
ATOM     11  N   LIG    1       29.026 -12.405   4.735  0.00  0.00    -0.318 NA
ATOM     12  H   LIG    1       29.262 -13.057   5.489  0.00  0.00    +0.119 HD
ATOM     13  H   LIG    1       29.744 -12.577   4.028  0.00  0.00    +0.119 HD
ENDBRANCH   7  11
ENDBRANCH   5   7
ENDBRANCH   4   5
ENDBRANCH   3   4
ENDBRANCH   2   3
BRANCH   2  14
ATOM     14  C   LIG    1       23.547 -13.207   2.669  0.00  0.00    +0.191 C 
BRANCH  14  15
ATOM     15  O   LIG    1       24.057 -11.883   2.561  0.00  0.00    -0.392 OA
ATOM     16  H   LIG    1       23.810 -11.356   3.340  0.00  0.00    +0.209 HD
ENDBRANCH  14  15
ENDBRANCH   2  14
ENDBRANCH   1   2
BRANCH   1  17
ATOM     17  C   LIG    1       23.743 -16.409   3.279  0.00  0.00    +0.287 C 
BRANCH  17  18
ATOM     18  N   LIG    1       23.283 -17.581   4.008  0.00  0.00    -0.291 N 
ATOM     19  C   LIG    1       24.048 -18.628   4.444  0.00  0.00    +0.171 A 
ATOM     20  N   LIG    1       25.387 -18.780   4.287  0.00  0.00    -0.196 NA
ATOM     21  C   LIG    1       25.840 -19.896   4.797  0.00  0.00    +0.195 C 
ATOM     22  N   LIG    1       25.049 -20.833   5.435  0.00  0.00    -0.293 N 
ATOM     23  H   LIG    1       25.468 -21.651   5.846  0.00  0.00    +0.172 HD
ATOM     24  C   LIG    1       23.682 -20.711   5.627  0.00  0.00    +0.280 C 
ATOM     25  O   LIG    1       23.030 -21.572   6.218  0.00  0.00    -0.265 OA
ATOM     26  C   LIG    1       23.160 -19.489   5.052  0.00  0.00    +0.172 A 
ATOM     27  N   LIG    1       21.875 -19.023   4.978  0.00  0.00    -0.229 NA
ATOM     28  C   LIG    1       21.981 -17.881   4.329  0.00  0.00    +0.203 A 
BRANCH  21  29
ATOM     29  N   LIG    1       27.160 -20.194   4.705  0.00  0.00    -0.329 N 
ATOM     30  H   LIG    1       27.505 -20.440   3.787  0.00  0.00    +0.145 HD
ATOM     31  H   LIG    1       27.741 -19.502   5.168  0.00  0.00    +0.145 HD
ENDBRANCH  21  29
ENDBRANCH  17  18
ENDBRANCH   1  17
TORSDOF 12
ENDMDL
