MODEL 1
REMARK VINA RESULT:       4.0      0.000      0.000
REMARK  Name = *****
REMARK                            x       y       z     vdW  Elec       q    Type
REMARK                         _______ _______ _______ _____ _____    ______ ____
ROOT
ATOM      1  C   LIG    1       23.336 -17.107   4.271  0.00  0.00    +0.160 A 
ATOM      2  C   LIG    1       22.729 -15.840   4.280  0.00  0.00    +0.164 A 
ATOM      3  F   LIG    1       21.397 -15.699   4.381  0.00  0.00    -0.202 F 
ATOM      4  C   LIG    1       23.491 -14.691   4.199  0.00  0.00    +0.057 A 
ATOM      5  C   LIG    1       24.866 -14.823   4.062  0.00  0.00    +0.068 A 
ATOM      6  C   LIG    1       25.705 -13.615   3.965  0.00  0.00    +0.205 A 
ATOM      7  C   LIG    1       27.161 -13.777   3.801  0.00  0.00    +0.122 A 
ATOM      8  C   LIG    1       27.627 -15.034   3.753  0.00  0.00    +0.106 A 
ATOM      9  N   LIG    1       26.860 -16.181   3.810  0.00  0.00    -0.328 N 
ATOM     10  O   LIG    1       25.211 -12.490   4.024  0.00  0.00    -0.286 OA
ATOM     11  C   LIG    1       25.446 -16.094   4.001  0.00  0.00    +0.147 A 
ATOM     12  N   LIG    1       24.683 -17.218   4.114  0.00  0.00    -0.211 NA
ENDROOT
BRANCH   1  17
ATOM     13  N   LIG    1       22.449 -21.571   5.798  0.00  0.00    -0.092 NA
ATOM     14  C   LIG    1       22.352 -20.470   5.116  0.00  0.00    +0.081 C 
ATOM     15  C   LIG    1       21.789 -20.423   3.718  0.00  0.00    +0.069 C 
ATOM     16  C   LIG    1       22.476 -19.144   3.214  0.00  0.00    +0.117 C 
ATOM     17  N   LIG    1       22.584 -18.273   4.391  0.00  0.00    -0.307 N 
ATOM     18  C   LIG    1       22.770 -19.096   5.591  0.00  0.00    +0.161 C 
BRANCH  13  20
ATOM     19  C   LIG    1       24.404 -21.493   7.017  0.00  0.00    +0.313 C 
ATOM     20  O   LIG    1       22.997 -21.291   7.062  0.00  0.00    -0.397 OA
ENDBRANCH  13  20
BRANCH  15  21
ATOM     21  C   LIG    1       20.264 -20.329   3.803  0.00  0.00    +0.088 C 
BRANCH  21  22
ATOM     22  N   LIG    1       19.739 -19.035   3.362  0.00  0.00    -0.329 NA
ATOM     23  H   LIG    1       18.738 -19.002   3.560  0.00  0.00    +0.118 HD
ATOM     24  H   LIG    1       20.141 -18.290   3.932  0.00  0.00    +0.118 HD
ENDBRANCH  21  22
ENDBRANCH  15  21
ENDBRANCH   1  17
BRANCH   9  25
ATOM     25  C   LIG    1       27.498 -17.504   3.664  0.00  0.00    +0.089 C 
ATOM     26  C   LIG    1       28.447 -18.015   4.722  0.00  0.00    +0.027 C 
ATOM     27  C   LIG    1       27.142 -18.713   4.500  0.00  0.00    +0.027 C 
ENDBRANCH   9  25
BRANCH   7  28
ATOM     28  C   LIG    1       28.100 -12.645   3.663  0.00  0.00    +0.342 C 
ATOM     29  O   LIG    1       29.023 -12.443   4.433  0.00  0.00    -0.245 OA
BRANCH  28  30
ATOM     30  O   LIG    1       27.865 -11.850   2.595  0.00  0.00    -0.477 OA
ATOM     31  H   LIG    1       28.242 -12.183   1.745  0.00  0.00    +0.295 HD
ENDBRANCH  28  30
ENDBRANCH   7  28
TORSDOF 7
ENDMDL
MODEL 2
REMARK VINA RESULT:       5.9      1.462      2.380
REMARK  Name = *****
REMARK                            x       y       z     vdW  Elec       q    Type
REMARK                         _______ _______ _______ _____ _____    ______ ____
ROOT
ATOM      1  C   LIG    1       23.763 -17.267   4.081  0.00  0.00    +0.160 A 
ATOM      2  C   LIG    1       23.092 -16.032   4.067  0.00  0.00    +0.164 A 
ATOM      3  F   LIG    1       21.752 -15.960   4.039  0.00  0.00    -0.202 F 
ATOM      4  C   LIG    1       23.798 -14.845   4.095  0.00  0.00    +0.057 A 
ATOM      5  C   LIG    1       25.184 -14.905   4.092  0.00  0.00    +0.068 A 
ATOM      6  C   LIG    1       25.966 -13.655   4.114  0.00  0.00    +0.205 A 
ATOM      7  C   LIG    1       27.437 -13.740   4.091  0.00  0.00    +0.122 A 
ATOM      8  C   LIG    1       27.970 -14.970   4.053  0.00  0.00    +0.106 A 
ATOM      9  N   LIG    1       27.262 -16.155   4.000  0.00  0.00    -0.328 N 
ATOM     10  O   LIG    1       25.410 -12.558   4.157  0.00  0.00    -0.286 OA
ATOM     11  C   LIG    1       25.833 -16.144   4.051  0.00  0.00    +0.147 A 
ATOM     12  N   LIG    1       25.123 -17.306   4.055  0.00  0.00    -0.211 NA
ENDROOT
BRANCH   1  17
ATOM     13  N   LIG    1       19.850 -20.030   3.748  0.00  0.00    -0.092 NA
ATOM     14  C   LIG    1       21.066 -19.658   4.013  0.00  0.00    +0.081 C 
ATOM     15  C   LIG    1       21.895 -20.295   5.100  0.00  0.00    +0.069 C 
ATOM     16  C   LIG    1       22.866 -19.139   5.385  0.00  0.00    +0.117 C 
ATOM     17  N   LIG    1       23.064 -18.472   4.092  0.00  0.00    -0.307 N 
ATOM     18  C   LIG    1       21.832 -18.565   3.301  0.00  0.00    +0.161 C 
BRANCH  13  20
ATOM     19  C   LIG    1       19.350 -17.889   3.053  0.00  0.00    +0.313 C 
ATOM     20  O   LIG    1       19.350 -19.262   2.682  0.00  0.00    -0.397 OA
ENDBRANCH  13  20
BRANCH  15  21
ATOM     21  C   LIG    1       22.560 -21.555   4.539  0.00  0.00    +0.088 C 
BRANCH  21  22
ATOM     22  N   LIG    1       24.020 -21.456   4.472  0.00  0.00    -0.329 NA
ATOM     23  H   LIG    1       24.412 -22.399   4.441  0.00  0.00    +0.118 HD
ATOM     24  H   LIG    1       24.294 -21.033   3.584  0.00  0.00    +0.118 HD
ENDBRANCH  21  22
ENDBRANCH  15  21
ENDBRANCH   1  17
BRANCH   9  25
ATOM     25  C   LIG    1       27.978 -17.439   3.879  0.00  0.00    +0.089 C 
ATOM     26  C   LIG    1       29.097 -17.781   4.834  0.00  0.00    +0.027 C 
ATOM     27  C   LIG    1       27.835 -18.585   4.855  0.00  0.00    +0.027 C 
ENDBRANCH   9  25
BRANCH   7  28
ATOM     28  C   LIG    1       28.325 -12.559   4.080  0.00  0.00    +0.342 C 
ATOM     29  O   LIG    1       28.931 -12.168   5.063  0.00  0.00    -0.245 OA
BRANCH  28  30
ATOM     30  O   LIG    1       28.428 -11.949   2.879  0.00  0.00    -0.477 OA
ATOM     31  H   LIG    1       29.176 -12.269   2.318  0.00  0.00    +0.295 HD
ENDBRANCH  28  30
ENDBRANCH   7  28
TORSDOF 7
ENDMDL
MODEL 3
REMARK VINA RESULT:       6.7      2.401      7.975
REMARK  Name = *****
REMARK                            x       y       z     vdW  Elec       q    Type
REMARK                         _______ _______ _______ _____ _____    ______ ____
ROOT
ATOM      1  C   LIG    1       25.719 -16.086   3.729  0.00  0.00    +0.160 A 
ATOM      2  C   LIG    1       26.368 -17.262   3.315  0.00  0.00    +0.164 A 
ATOM      3  F   LIG    1       27.618 -17.239   2.824  0.00  0.00    -0.202 F 
ATOM      4  C   LIG    1       25.740 -18.488   3.414  0.00  0.00    +0.057 A 
ATOM      5  C   LIG    1       24.437 -18.521   3.890  0.00  0.00    +0.068 A 
ATOM      6  C   LIG    1       23.737 -19.814   4.000  0.00  0.00    +0.205 A 
ATOM      7  C   LIG    1       22.347 -19.826   4.491  0.00  0.00    +0.122 A 
ATOM      8  C   LIG    1       21.808 -18.640   4.809  0.00  0.00    +0.106 A 
ATOM      9  N   LIG    1       22.431 -17.412   4.685  0.00  0.00    -0.328 N 
ATOM     10  O   LIG    1       24.295 -20.868   3.697  0.00  0.00    -0.286 OA
ATOM     11  C   LIG    1       23.789 -17.334   4.247  0.00  0.00    +0.147 A 
ATOM     12  N   LIG    1       24.433 -16.136   4.172  0.00  0.00    -0.211 NA
ENDROOT
BRANCH   1  17
ATOM     13  N   LIG    1       26.502 -11.677   1.998  0.00  0.00    -0.092 NA
ATOM     14  C   LIG    1       26.685 -12.785   2.651  0.00  0.00    +0.081 C 
ATOM     15  C   LIG    1       28.054 -13.308   3.004  0.00  0.00    +0.069 C 
ATOM     16  C   LIG    1       27.723 -14.802   3.144  0.00  0.00    +0.117 C 
ATOM     17  N   LIG    1       26.354 -14.847   3.672  0.00  0.00    -0.307 N 
ATOM     18  C   LIG    1       25.593 -13.704   3.156  0.00  0.00    +0.161 C 
BRANCH  13  20
ATOM     19  C   LIG    1       24.473 -11.607   3.091  0.00  0.00    +0.313 C 
ATOM     20  O   LIG    1       25.124 -11.453   1.836  0.00  0.00    -0.397 OA
ENDBRANCH  13  20
BRANCH  15  21
ATOM     21  C   LIG    1       28.519 -12.640   4.300  0.00  0.00    +0.088 C 
BRANCH  21  22
ATOM     22  N   LIG    1       27.848 -13.162   5.493  0.00  0.00    -0.329 NA
ATOM     23  H   LIG    1       28.035 -12.535   6.276  0.00  0.00    +0.118 HD
ATOM     24  H   LIG    1       26.836 -13.119   5.362  0.00  0.00    +0.118 HD
ENDBRANCH  21  22
ENDBRANCH  15  21
ENDBRANCH   1  17
BRANCH   9  25
ATOM     25  C   LIG    1       21.691 -16.175   4.996  0.00  0.00    +0.089 C 
ATOM     26  C   LIG    1       21.818 -15.530   6.356  0.00  0.00    +0.027 C 
ATOM     27  C   LIG    1       22.338 -14.816   5.149  0.00  0.00    +0.027 C 
ENDBRANCH   9  25
BRANCH   7  28
ATOM     28  C   LIG    1       21.534 -21.053   4.616  0.00  0.00    +0.342 C 
ATOM     29  O   LIG    1       20.955 -21.571   3.676  0.00  0.00    -0.245 OA
BRANCH  28  30
ATOM     30  O   LIG    1       21.492 -21.571   5.863  0.00  0.00    -0.477 OA
ATOM     31  H   LIG    1       20.689 -21.325   6.384  0.00  0.00    +0.295 HD
ENDBRANCH  28  30
ENDBRANCH   7  28
TORSDOF 7
ENDMDL
