MODEL 1
REMARK VINA RESULT:      -5.7      0.000      0.000
REMARK  Name = *****
REMARK                            x       y       z     vdW  Elec       q    Type
REMARK                         _______ _______ _______ _____ _____    ______ ____
ROOT
ATOM      1  C   LIG    1       23.539 -20.936   5.795  0.00  0.00    +0.043 A 
ATOM      2  N   LIG    1       24.699 -21.079   5.108  0.00  0.00    -0.260 NA
ATOM      3  C   LIG    1       24.928 -20.234   4.080  0.00  0.00    +0.111 A 
ATOM      4  C   LIG    1       24.056 -19.233   3.699  0.00  0.00    +0.020 A 
ATOM      5  C   LIG    1       22.873 -19.089   4.413  0.00  0.00    +0.003 A 
ATOM      6  C   LIG    1       22.607 -19.950   5.474  0.00  0.00    +0.023 A 
ENDROOT
BRANCH   1   7
ATOM      7  C   LIG    1       23.257 -21.882   6.941  0.00  0.00    +0.070 C 
BRANCH   7   8
ATOM      8  C   LIG    1       24.068 -23.183   6.872  0.00  0.00    +0.087 C 
BRANCH   8  10
ATOM      9  C   LIG    1       24.028 -25.464   6.121  0.00  0.00    +0.101 C 
ATOM     10  N   LIG    1       23.209 -24.324   6.517  0.00  0.00    -0.319 NA
ATOM     11  H   LIG    1       22.646 -24.585   7.326  0.00  0.00    +0.122 HD
ENDBRANCH   8  10
ENDBRANCH   7   8
ENDBRANCH   1   7
TORSDOF 3
ENDMDL
MODEL 2
REMARK VINA RESULT:      -5.6      8.824      9.452
REMARK  Name = *****
REMARK                            x       y       z     vdW  Elec       q    Type
REMARK                         _______ _______ _______ _____ _____    ______ ____
ROOT
ATOM      1  C   LIG    1       30.879 -17.779   9.251  0.00  0.00    +0.043 A 
ATOM      2  N   LIG    1       32.025 -17.220   8.789  0.00  0.00    -0.260 NA
ATOM      3  C   LIG    1       32.679 -16.366   9.604  0.00  0.00    +0.111 A 
ATOM      4  C   LIG    1       32.253 -16.038  10.878  0.00  0.00    +0.020 A 
ATOM      5  C   LIG    1       31.082 -16.620  11.345  0.00  0.00    +0.003 A 
ATOM      6  C   LIG    1       30.382 -17.501  10.524  0.00  0.00    +0.023 A 
ENDROOT
BRANCH   1   7
ATOM      7  C   LIG    1       30.123 -18.727   8.348  0.00  0.00    +0.070 C 
BRANCH   7   8
ATOM      8  C   LIG    1       30.977 -19.897   7.840  0.00  0.00    +0.087 C 
BRANCH   8  10
ATOM      9  C   LIG    1       31.327 -21.869   9.166  0.00  0.00    +0.101 C 
ATOM     10  N   LIG    1       31.759 -20.496   8.934  0.00  0.00    -0.319 NA
ATOM     11  H   LIG    1       32.746 -20.497   8.679  0.00  0.00    +0.122 HD
ENDBRANCH   8  10
ENDBRANCH   7   8
ENDBRANCH   1   7
TORSDOF 3
ENDMDL
MODEL 3
REMARK VINA RESULT:      -5.6      1.952      2.484
REMARK  Name = *****
REMARK                            x       y       z     vdW  Elec       q    Type
REMARK                         _______ _______ _______ _____ _____    ______ ____
ROOT
ATOM      1  C   LIG    1       23.636 -20.605   5.856  0.00  0.00    +0.043 A 
ATOM      2  N   LIG    1       24.811 -20.670   5.183  0.00  0.00    -0.260 NA
ATOM      3  C   LIG    1       24.953 -19.890   4.090  0.00  0.00    +0.111 A 
ATOM      4  C   LIG    1       23.976 -19.029   3.628  0.00  0.00    +0.020 A 
ATOM      5  C   LIG    1       22.778 -18.963   4.327  0.00  0.00    +0.003 A 
ATOM      6  C   LIG    1       22.601 -19.760   5.455  0.00  0.00    +0.023 A 
ENDROOT
BRANCH   1   7
ATOM      7  C   LIG    1       23.451 -21.481   7.075  0.00  0.00    +0.070 C 
BRANCH   7   8
ATOM      8  C   LIG    1       24.769 -21.830   7.780  0.00  0.00    +0.087 C 
BRANCH   8  10
ATOM      9  C   LIG    1       26.740 -20.505   8.142  0.00  0.00    +0.101 C 
ATOM     10  N   LIG    1       25.327 -20.657   8.471  0.00  0.00    -0.319 NA
ATOM     11  H   LIG    1       24.826 -19.821   8.172  0.00  0.00    +0.122 HD
ENDBRANCH   8  10
ENDBRANCH   7   8
ENDBRANCH   1   7
TORSDOF 3
ENDMDL
MODEL 4
REMARK VINA RESULT:      -5.5      5.713      6.867
REMARK  Name = *****
REMARK                            x       y       z     vdW  Elec       q    Type
REMARK                         _______ _______ _______ _____ _____    ______ ____
ROOT
ATOM      1  C   LIG    1       28.798 -20.063   7.144  0.00  0.00    +0.043 A 
ATOM      2  N   LIG    1       28.111 -20.321   8.284  0.00  0.00    -0.260 NA
ATOM      3  C   LIG    1       26.781 -20.529   8.181  0.00  0.00    +0.111 A 
ATOM      4  C   LIG    1       26.088 -20.504   6.985  0.00  0.00    +0.020 A 
ATOM      5  C   LIG    1       26.802 -20.246   5.822  0.00  0.00    +0.003 A 
ATOM      6  C   LIG    1       28.174 -20.021   5.898  0.00  0.00    +0.023 A 
ENDROOT
BRANCH   1   7
ATOM      7  C   LIG    1       30.287 -19.813   7.240  0.00  0.00    +0.070 C 
BRANCH   7   8
ATOM      8  C   LIG    1       30.955 -20.547   8.409  0.00  0.00    +0.087 C 
BRANCH   8  10
ATOM      9  C   LIG    1       31.759 -18.296   8.649  0.00  0.00    +0.101 C 
ATOM     10  N   LIG    1       31.910 -19.671   9.108  0.00  0.00    -0.319 NA
ATOM     11  H   LIG    1       31.727 -19.708  10.111  0.00  0.00    +0.122 HD
ENDBRANCH   8  10
ENDBRANCH   7   8
ENDBRANCH   1   7
TORSDOF 3
ENDMDL
MODEL 5
REMARK VINA RESULT:      -5.4      2.698      4.380
REMARK  Name = *****
REMARK                            x       y       z     vdW  Elec       q    Type
REMARK                         _______ _______ _______ _____ _____    ______ ____
ROOT
ATOM      1  C   LIG    1       24.790 -22.109   6.875  0.00  0.00    +0.043 A 
ATOM      2  N   LIG    1       25.600 -23.156   6.579  0.00  0.00    -0.260 NA
ATOM      3  C   LIG    1       25.026 -24.365   6.406  0.00  0.00    +0.111 A 
ATOM      4  C   LIG    1       23.666 -24.592   6.504  0.00  0.00    +0.020 A 
ATOM      5  C   LIG    1       22.843 -23.513   6.801  0.00  0.00    +0.003 A 
ATOM      6  C   LIG    1       23.409 -22.254   6.991  0.00  0.00    +0.023 A 
ENDROOT
BRANCH   1   7
ATOM      7  C   LIG    1       25.416 -20.749   7.087  0.00  0.00    +0.070 C 
BRANCH   7   8
ATOM      8  C   LIG    1       26.081 -20.591   8.461  0.00  0.00    +0.087 C 
BRANCH   8  10
ATOM      9  C   LIG    1       28.302 -21.091   7.695  0.00  0.00    +0.101 C 
ATOM     10  N   LIG    1       27.233 -21.496   8.600  0.00  0.00    -0.319 NA
ATOM     11  H   LIG    1       27.577 -21.456   9.559  0.00  0.00    +0.122 HD
ENDBRANCH   8  10
ENDBRANCH   7   8
ENDBRANCH   1   7
TORSDOF 3
ENDMDL
MODEL 6
REMARK VINA RESULT:      -5.3      4.727      5.687
REMARK  Name = *****
REMARK                            x       y       z     vdW  Elec       q    Type
REMARK                         _______ _______ _______ _____ _____    ______ ____
ROOT
ATOM      1  C   LIG    1       27.644 -20.294   7.020  0.00  0.00    +0.043 A 
ATOM      2  N   LIG    1       27.314 -20.385   8.332  0.00  0.00    -0.260 NA
ATOM      3  C   LIG    1       26.021 -20.624   8.638  0.00  0.00    +0.111 A 
ATOM      4  C   LIG    1       25.025 -20.789   7.695  0.00  0.00    +0.020 A 
ATOM      5  C   LIG    1       25.374 -20.702   6.354  0.00  0.00    +0.003 A 
ATOM      6  C   LIG    1       26.699 -20.450   6.007  0.00  0.00    +0.023 A 
ENDROOT
BRANCH   1   7
ATOM      7  C   LIG    1       29.085 -20.013   6.656  0.00  0.00    +0.070 C 
BRANCH   7   8
ATOM      8  C   LIG    1       30.053 -20.163   7.837  0.00  0.00    +0.087 C 
BRANCH   8  10
ATOM      9  C   LIG    1       31.253 -21.813   9.107  0.00  0.00    +0.101 C 
ATOM     10  N   LIG    1       30.022 -21.532   8.377  0.00  0.00    -0.319 NA
ATOM     11  H   LIG    1       29.231 -21.623   9.014  0.00  0.00    +0.122 HD
ENDBRANCH   8  10
ENDBRANCH   7   8
ENDBRANCH   1   7
TORSDOF 3
ENDMDL
MODEL 7
REMARK VINA RESULT:      -5.3      2.815      3.599
REMARK  Name = *****
REMARK                            x       y       z     vdW  Elec       q    Type
REMARK                         _______ _______ _______ _____ _____    ______ ____
ROOT
ATOM      1  C   LIG    1       24.948 -20.770   7.037  0.00  0.00    +0.043 A 
ATOM      2  N   LIG    1       25.668 -20.580   5.904  0.00  0.00    -0.260 NA
ATOM      3  C   LIG    1       24.990 -20.314   4.767  0.00  0.00    +0.111 A 
ATOM      4  C   LIG    1       23.613 -20.218   4.697  0.00  0.00    +0.020 A 
ATOM      5  C   LIG    1       22.884 -20.407   5.864  0.00  0.00    +0.003 A 
ATOM      6  C   LIG    1       23.556 -20.688   7.051  0.00  0.00    +0.023 A 
ENDROOT
BRANCH   1   7
ATOM      7  C   LIG    1       25.687 -21.083   8.319  0.00  0.00    +0.070 C 
BRANCH   7   8
ATOM      8  C   LIG    1       27.133 -21.545   8.092  0.00  0.00    +0.087 C 
BRANCH   8  10
ATOM      9  C   LIG    1       29.142 -20.648   7.128  0.00  0.00    +0.101 C 
ATOM     10  N   LIG    1       28.058 -20.401   8.072  0.00  0.00    -0.319 NA
ATOM     11  H   LIG    1       27.551 -19.564   7.783  0.00  0.00    +0.122 HD
ENDBRANCH   8  10
ENDBRANCH   7   8
ENDBRANCH   1   7
TORSDOF 3
ENDMDL
MODEL 8
REMARK VINA RESULT:      -5.3      2.502      3.242
REMARK  Name = *****
REMARK                            x       y       z     vdW  Elec       q    Type
REMARK                         _______ _______ _______ _____ _____    ______ ____
ROOT
ATOM      1  C   LIG    1       24.240 -23.573   6.599  0.00  0.00    +0.043 A 
ATOM      2  N   LIG    1       25.494 -23.057   6.598  0.00  0.00    -0.260 NA
ATOM      3  C   LIG    1       25.635 -21.751   6.910  0.00  0.00    +0.111 A 
ATOM      4  C   LIG    1       24.581 -20.919   7.236  0.00  0.00    +0.020 A 
ATOM      5  C   LIG    1       23.301 -21.458   7.242  0.00  0.00    +0.003 A 
ATOM      6  C   LIG    1       23.123 -22.801   6.918  0.00  0.00    +0.023 A 
ENDROOT
BRANCH   1   7
ATOM      7  C   LIG    1       24.058 -25.030   6.238  0.00  0.00    +0.070 C 
BRANCH   7   8
ATOM      8  C   LIG    1       24.953 -25.488   5.079  0.00  0.00    +0.087 C 
BRANCH   8  10
ATOM      9  C   LIG    1       26.037 -26.816   6.761  0.00  0.00    +0.101 C 
ATOM     10  N   LIG    1       26.242 -25.996   5.573  0.00  0.00    -0.319 NA
ATOM     11  H   LIG    1       26.679 -26.565   4.849  0.00  0.00    +0.122 HD
ENDBRANCH   8  10
ENDBRANCH   7   8
ENDBRANCH   1   7
TORSDOF 3
ENDMDL
MODEL 9
REMARK VINA RESULT:      -5.3      1.776      4.366
REMARK  Name = *****
REMARK                            x       y       z     vdW  Elec       q    Type
REMARK                         _______ _______ _______ _____ _____    ______ ____
ROOT
ATOM      1  C   LIG    1       24.728 -22.113   6.728  0.00  0.00    +0.043 A 
ATOM      2  N   LIG    1       25.612 -23.096   6.427  0.00  0.00    -0.260 NA
ATOM      3  C   LIG    1       25.135 -24.353   6.306  0.00  0.00    +0.111 A 
ATOM      4  C   LIG    1       23.804 -24.690   6.462  0.00  0.00    +0.020 A 
ATOM      5  C   LIG    1       22.905 -23.675   6.763  0.00  0.00    +0.003 A 
ATOM      6  C   LIG    1       23.368 -22.369   6.900  0.00  0.00    +0.023 A 
ENDROOT
BRANCH   1   7
ATOM      7  C   LIG    1       25.244 -20.700   6.882  0.00  0.00    +0.070 C 
BRANCH   7   8
ATOM      8  C   LIG    1       26.418 -20.374   5.949  0.00  0.00    +0.087 C 
BRANCH   8  10
ATOM      9  C   LIG    1       25.211 -19.566   4.036  0.00  0.00    +0.101 C 
ATOM     10  N   LIG    1       26.066 -20.632   4.544  0.00  0.00    -0.319 NA
ATOM     11  H   LIG    1       26.919 -20.668   3.986  0.00  0.00    +0.122 HD
ENDBRANCH   8  10
ENDBRANCH   7   8
ENDBRANCH   1   7
TORSDOF 3
ENDMDL
