MODEL 1
REMARK VINA RESULT:      -9.1      0.000      0.000
REMARK  Name = *****
REMARK                            x       y       z     vdW  Elec       q    Type
REMARK                         _______ _______ _______ _____ _____    ______ ____
ROOT
ATOM      1  N   LIG    1       27.026 -20.288   5.278  0.00  0.00    -0.311 N 
ATOM      2  H   LIG    1       26.957 -21.037   5.953  0.00  0.00    +0.149 HD
ATOM      3  C   LIG    1       25.921 -19.949   4.529  0.00  0.00    +0.213 C 
ATOM      4  O   LIG    1       25.853 -18.903   3.872  0.00  0.00    -0.276 OA
ENDROOT
BRANCH   1   5
ATOM      5  C   LIG    1       28.151 -19.381   5.393  0.00  0.00    +0.139 C 
BRANCH   5  10
ATOM      6  C   LIG    1       31.179 -19.274   7.738  0.00  0.00    +0.162 A 
ATOM      7  C   LIG    1       31.042 -20.490   8.414  0.00  0.00    +0.159 A 
ATOM      8  C   LIG    1       29.960 -21.328   8.142  0.00  0.00    +0.049 A 
ATOM      9  C   LIG    1       29.012 -20.967   7.183  0.00  0.00    +0.009 A 
ATOM     10  C   LIG    1       29.109 -19.746   6.505  0.00  0.00    -0.027 A 
ATOM     11  C   LIG    1       30.199 -18.904   6.802  0.00  0.00    +0.054 A 
BRANCH   6  13
ATOM     12  C   LIG    1       32.000 -17.416   8.967  0.00  0.00    +0.277 C 
ATOM     13  O   LIG    1       32.179 -18.350   7.905  0.00  0.00    -0.491 OA
ENDBRANCH   6  13
BRANCH   7  14
ATOM     14  O   LIG    1       31.946 -20.884   9.360  0.00  0.00    -0.503 OA
ATOM     15  H   LIG    1       31.470 -21.269  10.113  0.00  0.00    +0.292 HD
ENDBRANCH   7  14
ENDBRANCH   5  10
ENDBRANCH   1   5
BRANCH   3  16
ATOM     16  C   LIG    1       24.801 -20.975   4.499  0.00  0.00    +0.096 C 
BRANCH  16  17
ATOM     17  C   LIG    1       23.422 -20.328   4.613  0.00  0.00    +0.010 C 
BRANCH  17  18
ATOM     18  C   LIG    1       22.855 -20.347   6.039  0.00  0.00    +0.004 C 
BRANCH  18  19
ATOM     19  C   LIG    1       23.542 -21.392   6.938  0.00  0.00    +0.027 C 
BRANCH  19  20
ATOM     20  C   LIG    1       22.806 -22.701   7.069  0.00  0.00    -0.031 C 
ATOM     21  C   LIG    1       23.211 -23.947   6.755  0.00  0.00    -0.028 C 
BRANCH  21  22
ATOM     22  C   LIG    1       24.501 -24.375   6.091  0.00  0.00    +0.005 C 
ATOM     23  C   LIG    1       24.414 -25.849   5.683  0.00  0.00    +0.011 C 
ATOM     24  C   LIG    1       25.727 -24.151   6.982  0.00  0.00    +0.011 C 
ENDBRANCH  21  22
ENDBRANCH  19  20
ENDBRANCH  18  19
ENDBRANCH  17  18
ENDBRANCH  16  17
ENDBRANCH   3  16
TORSDOF 10
ENDMDL
MODEL 2
REMARK VINA RESULT:      -9.0      0.760      1.126
REMARK  Name = *****
REMARK                            x       y       z     vdW  Elec       q    Type
REMARK                         _______ _______ _______ _____ _____    ______ ____
ROOT
ATOM      1  N   LIG    1       26.713 -20.380   5.307  0.00  0.00    -0.311 N 
ATOM      2  H   LIG    1       26.621 -21.082   6.028  0.00  0.00    +0.149 HD
ATOM      3  C   LIG    1       25.610 -20.026   4.563  0.00  0.00    +0.213 C 
ATOM      4  O   LIG    1       25.582 -19.020   3.844  0.00  0.00    -0.276 OA
ENDROOT
BRANCH   1   5
ATOM      5  C   LIG    1       27.889 -19.532   5.342  0.00  0.00    +0.139 C 
BRANCH   5  10
ATOM      6  C   LIG    1       30.980 -19.457   7.604  0.00  0.00    +0.162 A 
ATOM      7  C   LIG    1       30.811 -20.639   8.332  0.00  0.00    +0.159 A 
ATOM      8  C   LIG    1       29.689 -21.441   8.122  0.00  0.00    +0.049 A 
ATOM      9  C   LIG    1       28.731 -21.079   7.173  0.00  0.00    +0.009 A 
ATOM     10  C   LIG    1       28.860 -19.892   6.443  0.00  0.00    -0.027 A 
ATOM     11  C   LIG    1       29.991 -19.085   6.678  0.00  0.00    +0.054 A 
BRANCH   6  13
ATOM     12  C   LIG    1       31.925 -17.610   8.756  0.00  0.00    +0.277 C 
ATOM     13  O   LIG    1       32.021 -18.570   7.707  0.00  0.00    -0.491 OA
ENDBRANCH   6  13
BRANCH   7  14
ATOM     14  O   LIG    1       31.723 -21.032   9.271  0.00  0.00    -0.503 OA
ATOM     15  H   LIG    1       32.564 -21.236   8.831  0.00  0.00    +0.292 HD
ENDBRANCH   7  14
ENDBRANCH   5  10
ENDBRANCH   1   5
BRANCH   3  16
ATOM     16  C   LIG    1       24.435 -20.988   4.621  0.00  0.00    +0.096 C 
BRANCH  16  17
ATOM     17  C   LIG    1       23.323 -20.486   5.539  0.00  0.00    +0.010 C 
BRANCH  17  18
ATOM     18  C   LIG    1       23.568 -20.797   7.021  0.00  0.00    +0.004 C 
BRANCH  18  19
ATOM     19  C   LIG    1       23.753 -22.303   7.291  0.00  0.00    +0.027 C 
BRANCH  19  20
ATOM     20  C   LIG    1       25.180 -22.743   7.494  0.00  0.00    -0.031 C 
ATOM     21  C   LIG    1       25.786 -23.887   7.123  0.00  0.00    -0.028 C 
BRANCH  21  22
ATOM     22  C   LIG    1       25.171 -25.105   6.469  0.00  0.00    +0.005 C 
ATOM     23  C   LIG    1       25.984 -26.354   6.823  0.00  0.00    +0.011 C 
ATOM     24  C   LIG    1       25.062 -24.967   4.947  0.00  0.00    +0.011 C 
ENDBRANCH  21  22
ENDBRANCH  19  20
ENDBRANCH  18  19
ENDBRANCH  17  18
ENDBRANCH  16  17
ENDBRANCH   3  16
TORSDOF 10
ENDMDL
MODEL 3
REMARK VINA RESULT:      -8.9      1.695      3.716
REMARK  Name = *****
REMARK                            x       y       z     vdW  Elec       q    Type
REMARK                         _______ _______ _______ _____ _____    ______ ____
ROOT
ATOM      1  N   LIG    1       26.424 -21.836   6.339  0.00  0.00    -0.311 N 
ATOM      2  H   LIG    1       26.727 -22.154   5.428  0.00  0.00    +0.149 HD
ATOM      3  C   LIG    1       26.141 -22.763   7.318  0.00  0.00    +0.213 C 
ATOM      4  O   LIG    1       26.006 -22.458   8.509  0.00  0.00    -0.276 OA
ENDROOT
BRANCH   1   5
ATOM      5  C   LIG    1       26.655 -20.446   6.678  0.00  0.00    +0.139 C 
BRANCH   5  10
ATOM      6  C   LIG    1       30.185 -20.128   8.133  0.00  0.00    +0.162 A 
ATOM      7  C   LIG    1       30.787 -19.278   7.200  0.00  0.00    +0.159 A 
ATOM      8  C   LIG    1       30.072 -18.835   6.087  0.00  0.00    +0.049 A 
ATOM      9  C   LIG    1       28.745 -19.224   5.901  0.00  0.00    +0.009 A 
ATOM     10  C   LIG    1       28.120 -20.092   6.805  0.00  0.00    -0.027 A 
ATOM     11  C   LIG    1       28.861 -20.543   7.915  0.00  0.00    +0.054 A 
BRANCH   6  13
ATOM     12  C   LIG    1       31.248 -21.984   9.162  0.00  0.00    +0.277 C 
ATOM     13  O   LIG    1       30.762 -20.648   9.263  0.00  0.00    -0.491 OA
ENDBRANCH   6  13
BRANCH   7  14
ATOM     14  O   LIG    1       32.084 -18.871   7.342  0.00  0.00    -0.503 OA
ATOM     15  H   LIG    1       32.666 -19.501   6.888  0.00  0.00    +0.292 HD
ENDBRANCH   7  14
ENDBRANCH   5  10
ENDBRANCH   1   5
BRANCH   3  16
ATOM     16  C   LIG    1       25.935 -24.190   6.840  0.00  0.00    +0.096 C 
BRANCH  16  17
ATOM     17  C   LIG    1       24.669 -24.340   5.999  0.00  0.00    +0.010 C 
BRANCH  17  18
ATOM     18  C   LIG    1       23.379 -24.057   6.780  0.00  0.00    +0.004 C 
BRANCH  18  19
ATOM     19  C   LIG    1       22.598 -22.852   6.222  0.00  0.00    +0.027 C 
BRANCH  19  20
ATOM     20  C   LIG    1       22.991 -21.516   6.797  0.00  0.00    -0.031 C 
ATOM     21  C   LIG    1       23.040 -20.308   6.204  0.00  0.00    -0.028 C 
BRANCH  21  22
ATOM     22  C   LIG    1       22.799 -19.966   4.750  0.00  0.00    +0.005 C 
ATOM     23  C   LIG    1       24.096 -20.130   3.953  0.00  0.00    +0.011 C 
ATOM     24  C   LIG    1       22.245 -18.549   4.561  0.00  0.00    +0.011 C 
ENDBRANCH  21  22
ENDBRANCH  19  20
ENDBRANCH  18  19
ENDBRANCH  17  18
ENDBRANCH  16  17
ENDBRANCH   3  16
TORSDOF 10
ENDMDL
MODEL 4
REMARK VINA RESULT:      -8.4      1.693      3.446
REMARK  Name = *****
REMARK                            x       y       z     vdW  Elec       q    Type
REMARK                         _______ _______ _______ _____ _____    ______ ____
ROOT
ATOM      1  N   LIG    1       27.820 -21.060   6.590  0.00  0.00    -0.311 N 
ATOM      2  H   LIG    1       28.149 -21.914   6.161  0.00  0.00    +0.149 HD
ATOM      3  C   LIG    1       27.035 -21.129   7.720  0.00  0.00    +0.213 C 
ATOM      4  O   LIG    1       26.800 -20.147   8.433  0.00  0.00    -0.276 OA
ENDROOT
BRANCH   1   5
ATOM      5  C   LIG    1       28.481 -19.823   6.221  0.00  0.00    +0.139 C 
BRANCH   5  10
ATOM      6  C   LIG    1       31.354 -20.021   8.748  0.00  0.00    +0.162 A 
ATOM      7  C   LIG    1       31.421 -18.694   9.186  0.00  0.00    +0.159 A 
ATOM      8  C   LIG    1       30.568 -17.731   8.646  0.00  0.00    +0.049 A 
ATOM      9  C   LIG    1       29.632 -18.084   7.673  0.00  0.00    +0.009 A 
ATOM     10  C   LIG    1       29.553 -19.398   7.198  0.00  0.00    -0.027 A 
ATOM     11  C   LIG    1       30.432 -20.356   7.742  0.00  0.00    +0.054 A 
BRANCH   6  13
ATOM     12  C   LIG    1       31.462 -22.319   9.328  0.00  0.00    +0.277 C 
ATOM     13  O   LIG    1       32.128 -21.068   9.178  0.00  0.00    -0.491 OA
ENDBRANCH   6  13
BRANCH   7  14
ATOM     14  O   LIG    1       32.323 -18.304  10.135  0.00  0.00    -0.503 OA
ATOM     15  H   LIG    1       32.156 -18.798  10.954  0.00  0.00    +0.292 HD
ENDBRANCH   7  14
ENDBRANCH   5  10
ENDBRANCH   1   5
BRANCH   3  16
ATOM     16  C   LIG    1       26.409 -22.483   8.009  0.00  0.00    +0.096 C 
BRANCH  16  17
ATOM     17  C   LIG    1       26.359 -23.373   6.769  0.00  0.00    +0.010 C 
BRANCH  17  18
ATOM     18  C   LIG    1       25.512 -24.639   6.960  0.00  0.00    +0.004 C 
BRANCH  18  19
ATOM     19  C   LIG    1       24.241 -24.641   6.090  0.00  0.00    +0.027 C 
BRANCH  19  20
ATOM     20  C   LIG    1       23.014 -24.069   6.753  0.00  0.00    -0.031 C 
ATOM     21  C   LIG    1       22.547 -22.806   6.747  0.00  0.00    -0.028 C 
BRANCH  21  22
ATOM     22  C   LIG    1       23.179 -21.574   6.138  0.00  0.00    +0.005 C 
ATOM     23  C   LIG    1       23.430 -20.524   7.225  0.00  0.00    +0.011 C 
ATOM     24  C   LIG    1       22.332 -20.969   5.013  0.00  0.00    +0.011 C 
ENDBRANCH  21  22
ENDBRANCH  19  20
ENDBRANCH  18  19
ENDBRANCH  17  18
ENDBRANCH  16  17
ENDBRANCH   3  16
TORSDOF 10
ENDMDL
MODEL 5
REMARK VINA RESULT:      -8.4      1.193      2.025
REMARK  Name = *****
REMARK                            x       y       z     vdW  Elec       q    Type
REMARK                         _______ _______ _______ _____ _____    ______ ____
ROOT
ATOM      1  N   LIG    1       27.379 -20.391   6.556  0.00  0.00    -0.311 N 
ATOM      2  H   LIG    1       27.282 -20.468   7.559  0.00  0.00    +0.149 HD
ATOM      3  C   LIG    1       26.255 -20.203   5.781  0.00  0.00    +0.213 C 
ATOM      4  O   LIG    1       26.310 -19.859   4.595  0.00  0.00    -0.276 OA
ENDROOT
BRANCH   1   5
ATOM      5  C   LIG    1       28.700 -20.116   6.026  0.00  0.00    +0.139 C 
BRANCH   5  10
ATOM      6  C   LIG    1       31.322 -20.073   8.820  0.00  0.00    +0.162 A 
ATOM      7  C   LIG    1       31.333 -18.717   9.160  0.00  0.00    +0.159 A 
ATOM      8  C   LIG    1       30.526 -17.811   8.470  0.00  0.00    +0.049 A 
ATOM      9  C   LIG    1       29.689 -18.252   7.444  0.00  0.00    +0.009 A 
ATOM     10  C   LIG    1       29.670 -19.600   7.065  0.00  0.00    -0.027 A 
ATOM     11  C   LIG    1       30.503 -20.499   7.760  0.00  0.00    +0.054 A 
BRANCH   6  13
ATOM     12  C   LIG    1       31.507 -22.383   9.332  0.00  0.00    +0.277 C 
ATOM     13  O   LIG    1       32.062 -21.071   9.400  0.00  0.00    -0.491 OA
ENDBRANCH   6  13
BRANCH   7  14
ATOM     14  O   LIG    1       32.136 -18.241  10.158  0.00  0.00    -0.503 OA
ATOM     15  H   LIG    1       32.783 -18.923  10.398  0.00  0.00    +0.292 HD
ENDBRANCH   7  14
ENDBRANCH   5  10
ENDBRANCH   1   5
BRANCH   3  16
ATOM     16  C   LIG    1       24.928 -20.511   6.454  0.00  0.00    +0.096 C 
BRANCH  16  17
ATOM     17  C   LIG    1       23.747 -20.360   5.497  0.00  0.00    +0.010 C 
BRANCH  17  18
ATOM     18  C   LIG    1       22.612 -21.356   5.767  0.00  0.00    +0.004 C 
BRANCH  18  19
ATOM     19  C   LIG    1       22.850 -22.201   7.033  0.00  0.00    +0.027 C 
BRANCH  19  20
ATOM     20  C   LIG    1       22.702 -23.689   6.843  0.00  0.00    -0.031 C 
ATOM     21  C   LIG    1       23.607 -24.594   6.423  0.00  0.00    -0.028 C 
BRANCH  21  22
ATOM     22  C   LIG    1       25.018 -24.353   5.934  0.00  0.00    +0.005 C 
ATOM     23  C   LIG    1       25.527 -25.586   5.181  0.00  0.00    +0.011 C 
ATOM     24  C   LIG    1       25.984 -23.999   7.070  0.00  0.00    +0.011 C 
ENDBRANCH  21  22
ENDBRANCH  19  20
ENDBRANCH  18  19
ENDBRANCH  17  18
ENDBRANCH  16  17
ENDBRANCH   3  16
TORSDOF 10
ENDMDL
MODEL 6
REMARK VINA RESULT:      -8.4      3.239      7.022
REMARK  Name = *****
REMARK                            x       y       z     vdW  Elec       q    Type
REMARK                         _______ _______ _______ _____ _____    ______ ____
ROOT
ATOM      1  N   LIG    1       22.612 -22.341   5.940  0.00  0.00    -0.311 N 
ATOM      2  H   LIG    1       22.048 -22.444   5.108  0.00  0.00    +0.149 HD
ATOM      3  C   LIG    1       22.907 -21.079   6.405  0.00  0.00    +0.213 C 
ATOM      4  O   LIG    1       23.374 -20.872   7.532  0.00  0.00    -0.276 OA
ENDROOT
BRANCH   1   5
ATOM      5  C   LIG    1       22.768 -23.501   6.796  0.00  0.00    +0.139 C 
BRANCH   5  10
ATOM      6  C   LIG    1       24.908 -26.492   5.720  0.00  0.00    +0.162 A 
ATOM      7  C   LIG    1       26.192 -26.027   6.018  0.00  0.00    +0.159 A 
ATOM      8  C   LIG    1       26.374 -24.742   6.531  0.00  0.00    +0.049 A 
ATOM      9  C   LIG    1       25.275 -23.914   6.765  0.00  0.00    +0.009 A 
ATOM     10  C   LIG    1       23.978 -24.342   6.457  0.00  0.00    -0.027 A 
ATOM     11  C   LIG    1       23.813 -25.636   5.925  0.00  0.00    +0.054 A 
BRANCH   6  13
ATOM     12  C   LIG    1       24.321 -28.749   6.160  0.00  0.00    +0.277 C 
ATOM     13  O   LIG    1       24.577 -27.720   5.207  0.00  0.00    -0.491 OA
ENDBRANCH   6  13
BRANCH   7  14
ATOM     14  O   LIG    1       27.296 -26.804   5.805  0.00  0.00    -0.503 OA
ATOM     15  H   LIG    1       27.514 -26.794   4.859  0.00  0.00    +0.292 HD
ENDBRANCH   7  14
ENDBRANCH   5  10
ENDBRANCH   1   5
BRANCH   3  16
ATOM     16  C   LIG    1       22.688 -19.942   5.420  0.00  0.00    +0.096 C 
BRANCH  16  17
ATOM     17  C   LIG    1       23.953 -19.610   4.631  0.00  0.00    +0.010 C 
BRANCH  17  18
ATOM     18  C   LIG    1       24.995 -20.737   4.646  0.00  0.00    +0.004 C 
BRANCH  18  19
ATOM     19  C   LIG    1       26.360 -20.277   5.193  0.00  0.00    +0.027 C 
BRANCH  19  20
ATOM     20  C   LIG    1       26.522 -20.402   6.686  0.00  0.00    -0.031 C 
ATOM     21  C   LIG    1       27.645 -20.402   7.430  0.00  0.00    -0.028 C 
BRANCH  21  22
ATOM     22  C   LIG    1       29.082 -20.366   6.960  0.00  0.00    +0.005 C 
ATOM     23  C   LIG    1       29.997 -20.966   8.033  0.00  0.00    +0.011 C 
ATOM     24  C   LIG    1       29.552 -18.952   6.603  0.00  0.00    +0.011 C 
ENDBRANCH  21  22
ENDBRANCH  19  20
ENDBRANCH  18  19
ENDBRANCH  17  18
ENDBRANCH  16  17
ENDBRANCH   3  16
TORSDOF 10
ENDMDL
MODEL 7
REMARK VINA RESULT:      -8.3      1.721      3.284
REMARK  Name = *****
REMARK                            x       y       z     vdW  Elec       q    Type
REMARK                         _______ _______ _______ _____ _____    ______ ____
ROOT
ATOM      1  N   LIG    1       26.781 -21.717   6.544  0.00  0.00    -0.311 N 
ATOM      2  H   LIG    1       27.089 -22.080   5.653  0.00  0.00    +0.149 HD
ATOM      3  C   LIG    1       26.291 -22.585   7.494  0.00  0.00    +0.213 C 
ATOM      4  O   LIG    1       26.127 -22.260   8.676  0.00  0.00    -0.276 OA
ENDROOT
BRANCH   1   5
ATOM      5  C   LIG    1       27.206 -20.380   6.910  0.00  0.00    +0.139 C 
BRANCH   5  10
ATOM      6  C   LIG    1       30.302 -19.039   8.727  0.00  0.00    +0.162 A 
ATOM      7  C   LIG    1       31.097 -20.187   8.792  0.00  0.00    +0.159 A 
ATOM      8  C   LIG    1       30.626 -21.399   8.283  0.00  0.00    +0.049 A 
ATOM      9  C   LIG    1       29.363 -21.473   7.694  0.00  0.00    +0.009 A 
ATOM     10  C   LIG    1       28.534 -20.346   7.632  0.00  0.00    -0.027 A 
ATOM     11  C   LIG    1       29.018 -19.135   8.164  0.00  0.00    +0.054 A 
BRANCH   6  13
ATOM     12  C   LIG    1       31.891 -17.277   8.779  0.00  0.00    +0.277 C 
ATOM     13  O   LIG    1       30.625 -17.789   9.189  0.00  0.00    -0.491 OA
ENDBRANCH   6  13
BRANCH   7  14
ATOM     14  O   LIG    1       32.339 -20.161   9.360  0.00  0.00    -0.503 OA
ATOM     15  H   LIG    1       32.895 -20.835   8.939  0.00  0.00    +0.292 HD
ENDBRANCH   7  14
ENDBRANCH   5  10
ENDBRANCH   1   5
BRANCH   3  16
ATOM     16  C   LIG    1       25.893 -23.962   6.991  0.00  0.00    +0.096 C 
BRANCH  16  17
ATOM     17  C   LIG    1       24.708 -23.906   6.029  0.00  0.00    +0.010 C 
BRANCH  17  18
ATOM     18  C   LIG    1       23.353 -24.116   6.717  0.00  0.00    +0.004 C 
BRANCH  18  19
ATOM     19  C   LIG    1       22.432 -22.885   6.607  0.00  0.00    +0.027 C 
BRANCH  19  20
ATOM     20  C   LIG    1       23.047 -21.588   7.066  0.00  0.00    -0.031 C 
ATOM     21  C   LIG    1       23.252 -20.447   6.381  0.00  0.00    -0.028 C 
BRANCH  21  22
ATOM     22  C   LIG    1       23.001 -20.174   4.915  0.00  0.00    +0.005 C 
ATOM     23  C   LIG    1       24.320 -20.239   4.138  0.00  0.00    +0.011 C 
ATOM     24  C   LIG    1       22.318 -18.824   4.673  0.00  0.00    +0.011 C 
ENDBRANCH  21  22
ENDBRANCH  19  20
ENDBRANCH  18  19
ENDBRANCH  17  18
ENDBRANCH  16  17
ENDBRANCH   3  16
TORSDOF 10
ENDMDL
MODEL 8
REMARK VINA RESULT:      -8.1      1.222      2.181
REMARK  Name = *****
REMARK                            x       y       z     vdW  Elec       q    Type
REMARK                         _______ _______ _______ _____ _____    ______ ____
ROOT
ATOM      1  N   LIG    1       26.423 -19.715   5.308  0.00  0.00    -0.311 N 
ATOM      2  H   LIG    1       26.746 -18.757   5.295  0.00  0.00    +0.149 HD
ATOM      3  C   LIG    1       25.489 -20.126   4.384  0.00  0.00    +0.213 C 
ATOM      4  O   LIG    1       25.231 -21.318   4.178  0.00  0.00    -0.276 OA
ENDROOT
BRANCH   1   5
ATOM      5  C   LIG    1       27.216 -20.681   6.043  0.00  0.00    +0.139 C 
BRANCH   5  10
ATOM      6  C   LIG    1       30.352 -20.107   8.168  0.00  0.00    +0.162 A 
ATOM      7  C   LIG    1       30.939 -19.029   7.498  0.00  0.00    +0.159 A 
ATOM      8  C   LIG    1       30.348 -18.510   6.346  0.00  0.00    +0.049 A 
ATOM      9  C   LIG    1       29.158 -19.052   5.859  0.00  0.00    +0.009 A 
ATOM     10  C   LIG    1       28.555 -20.144   6.494  0.00  0.00    -0.027 A 
ATOM     11  C   LIG    1       29.174 -20.667   7.647  0.00  0.00    +0.054 A 
BRANCH   6  13
ATOM     12  C   LIG    1       31.237 -22.078   9.149  0.00  0.00    +0.277 C 
ATOM     13  O   LIG    1       30.819 -20.724   9.300  0.00  0.00    -0.491 OA
ENDBRANCH   6  13
BRANCH   7  14
ATOM     14  O   LIG    1       32.104 -18.467   7.939  0.00  0.00    -0.503 OA
ATOM     15  H   LIG    1       32.722 -19.173   8.190  0.00  0.00    +0.292 HD
ENDBRANCH   7  14
ENDBRANCH   5  10
ENDBRANCH   1   5
BRANCH   3  16
ATOM     16  C   LIG    1       24.734 -19.019   3.668  0.00  0.00    +0.096 C 
BRANCH  16  17
ATOM     17  C   LIG    1       23.222 -19.232   3.709  0.00  0.00    +0.010 C 
BRANCH  17  18
ATOM     18  C   LIG    1       22.644 -19.231   5.130  0.00  0.00    +0.004 C 
BRANCH  18  19
ATOM     19  C   LIG    1       22.488 -20.651   5.710  0.00  0.00    +0.027 C 
BRANCH  19  20
ATOM     20  C   LIG    1       23.172 -20.876   7.034  0.00  0.00    -0.031 C 
ATOM     21  C   LIG    1       23.976 -21.884   7.423  0.00  0.00    -0.028 C 
BRANCH  21  22
ATOM     22  C   LIG    1       24.351 -23.134   6.659  0.00  0.00    +0.005 C 
ATOM     23  C   LIG    1       23.197 -24.140   6.705  0.00  0.00    +0.011 C 
ATOM     24  C   LIG    1       25.634 -23.786   7.185  0.00  0.00    +0.011 C 
ENDBRANCH  21  22
ENDBRANCH  19  20
ENDBRANCH  18  19
ENDBRANCH  17  18
ENDBRANCH  16  17
ENDBRANCH   3  16
TORSDOF 10
ENDMDL
MODEL 9
REMARK VINA RESULT:      -8.0      1.176      2.162
REMARK  Name = *****
REMARK                            x       y       z     vdW  Elec       q    Type
REMARK                         _______ _______ _______ _____ _____    ______ ____
ROOT
ATOM      1  N   LIG    1       26.552 -20.220   6.358  0.00  0.00    -0.311 N 
ATOM      2  H   LIG    1       26.375 -20.054   7.339  0.00  0.00    +0.149 HD
ATOM      3  C   LIG    1       25.490 -20.433   5.507  0.00  0.00    +0.213 C 
ATOM      4  O   LIG    1       25.602 -20.398   4.276  0.00  0.00    -0.276 OA
ENDROOT
BRANCH   1   5
ATOM      5  C   LIG    1       27.858 -19.863   5.840  0.00  0.00    +0.139 C 
BRANCH   5  10
ATOM      6  C   LIG    1       31.107 -19.301   7.791  0.00  0.00    +0.162 A 
ATOM      7  C   LIG    1       31.198 -20.494   8.516  0.00  0.00    +0.159 A 
ATOM      8  C   LIG    1       30.199 -21.462   8.405  0.00  0.00    +0.049 A 
ATOM      9  C   LIG    1       29.108 -21.256   7.559  0.00  0.00    +0.009 A 
ATOM     10  C   LIG    1       28.977 -20.065   6.836  0.00  0.00    -0.027 A 
ATOM     11  C   LIG    1       29.986 -19.090   6.972  0.00  0.00    +0.054 A 
BRANCH   6  13
ATOM     12  C   LIG    1       31.930 -17.388   8.928  0.00  0.00    +0.277 C 
ATOM     13  O   LIG    1       32.002 -18.262   7.805  0.00  0.00    -0.491 OA
ENDBRANCH   6  13
BRANCH   7  14
ATOM     14  O   LIG    1       32.248 -20.737   9.355  0.00  0.00    -0.503 OA
ATOM     15  H   LIG    1       32.020 -21.476   9.943  0.00  0.00    +0.292 HD
ENDBRANCH   7  14
ENDBRANCH   5  10
ENDBRANCH   1   5
BRANCH   3  16
ATOM     16  C   LIG    1       24.170 -20.785   6.170  0.00  0.00    +0.096 C 
BRANCH  16  17
ATOM     17  C   LIG    1       24.235 -22.116   6.917  0.00  0.00    +0.010 C 
BRANCH  17  18
ATOM     18  C   LIG    1       25.517 -22.911   6.637  0.00  0.00    +0.004 C 
BRANCH  18  19
ATOM     19  C   LIG    1       25.379 -24.405   6.988  0.00  0.00    +0.027 C 
BRANCH  19  20
ATOM     20  C   LIG    1       24.242 -25.117   6.302  0.00  0.00    -0.031 C 
ATOM     21  C   LIG    1       24.158 -26.396   5.886  0.00  0.00    -0.028 C 
BRANCH  21  22
ATOM     22  C   LIG    1       25.229 -27.464   5.912  0.00  0.00    +0.005 C 
ATOM     23  C   LIG    1       26.311 -27.142   4.877  0.00  0.00    +0.011 C 
ATOM     24  C   LIG    1       24.668 -28.868   5.663  0.00  0.00    +0.011 C 
ENDBRANCH  21  22
ENDBRANCH  19  20
ENDBRANCH  18  19
ENDBRANCH  17  18
ENDBRANCH  16  17
ENDBRANCH   3  16
TORSDOF 10
ENDMDL
