MODEL 1
REMARK VINA RESULT:      -6.7      0.000      0.000
REMARK  Name = *****
REMARK                            x       y       z     vdW  Elec       q    Type
REMARK                         _______ _______ _______ _____ _____    ______ ____
ROOT
ATOM      1  C   LIG    1       24.847 -20.689   7.497  0.00  0.00    +0.115 C 
ATOM      2  C   LIG    1       25.163 -20.424   6.004  0.00  0.00    +0.153 C 
ATOM      3  C   LIG    1       26.646 -20.059   5.756  0.00  0.00    +0.115 C 
ATOM      4  C   LIG    1       27.575 -21.165   6.339  0.00  0.00    +0.173 C 
ATOM      5  C   LIG    1       27.271 -21.462   7.808  0.00  0.00    +0.182 C 
ATOM      6  O   LIG    1       27.627 -20.308   8.591  0.00  0.00    -0.338 OA
ATOM      7  C   LIG    1       29.054 -20.132   8.560  0.00  0.00    +0.319 C 
ATOM      8  C   LIG    1       29.578 -19.994   7.088  0.00  0.00    +0.281 C 
ATOM      9  C   LIG    1       29.599 -18.500   6.719  0.00  0.00    +0.200 C 
ATOM     10  O   LIG    1       29.252 -18.090   5.610  0.00  0.00    -0.291 OA
ATOM     11  C   LIG    1       30.147 -17.540   7.754  0.00  0.00    +0.111 C 
ATOM     12  C   LIG    1       30.484 -18.272   9.046  0.00  0.00    +0.126 C 
ATOM     13  C   LIG    1       30.793 -17.291  10.171  0.00  0.00    +0.038 C 
ATOM     14  O   LIG    1       29.348 -19.036   9.435  0.00  0.00    -0.343 OA
ATOM     15  O   LIG    1       28.971 -20.868   6.148  0.00  0.00    -0.331 OA
ATOM     16  C   LIG    1       25.793 -21.794   8.042  0.00  0.00    +0.165 C 
ENDROOT
BRANCH   1  18
ATOM     17  C   LIG    1       23.138 -22.452   7.253  0.00  0.00    +0.101 C 
ATOM     18  N   LIG    1       23.442 -21.111   7.729  0.00  0.00    -0.312 NA
ATOM     19  H   LIG    1       23.270 -21.077   8.738  0.00  0.00    +0.122 HD
ENDBRANCH   1  18
BRANCH   3  20
ATOM     20  N   LIG    1       26.940 -19.940   4.299  0.00  0.00    -0.312 NA
ATOM     21  H   LIG    1       27.910 -19.608   4.224  0.00  0.00    +0.122 HD
ATOM     22  C   LIG    1       26.090 -18.975   3.612  0.00  0.00    +0.101 C 
ENDBRANCH   3  20
BRANCH   2  23
ATOM     23  O   LIG    1       24.836 -21.587   5.224  0.00  0.00    -0.389 OA
ATOM     24  H   LIG    1       24.090 -22.008   5.702  0.00  0.00    +0.210 HD
ENDBRANCH   2  23
BRANCH   8  25
ATOM     25  O   LIG    1       30.964 -20.375   7.041  0.00  0.00    -0.355 OA
ATOM     26  H   LIG    1       30.932 -21.347   7.106  0.00  0.00    +0.213 HD
ENDBRANCH   8  25
BRANCH  16  27
ATOM     27  O   LIG    1       25.605 -21.996   9.451  0.00  0.00    -0.388 OA
ATOM     28  H   LIG    1       26.291 -21.467   9.898  0.00  0.00    +0.210 HD
ENDBRANCH  16  27
TORSDOF 5
ENDMDL
MODEL 2
REMARK VINA RESULT:      -6.2      8.572     11.674
REMARK  Name = *****
REMARK                            x       y       z     vdW  Elec       q    Type
REMARK                         _______ _______ _______ _____ _____    ______ ____
ROOT
ATOM      1  C   LIG    1       24.258 -27.869   6.711  0.00  0.00    +0.115 C 
ATOM      2  C   LIG    1       25.536 -27.704   7.570  0.00  0.00    +0.153 C 
ATOM      3  C   LIG    1       25.786 -28.902   8.517  0.00  0.00    +0.115 C 
ATOM      4  C   LIG    1       25.824 -30.230   7.704  0.00  0.00    +0.173 C 
ATOM      5  C   LIG    1       24.583 -30.410   6.829  0.00  0.00    +0.182 C 
ATOM      6  O   LIG    1       23.443 -30.600   7.687  0.00  0.00    -0.338 OA
ATOM      7  C   LIG    1       23.568 -31.856   8.375  0.00  0.00    +0.319 C 
ATOM      8  C   LIG    1       24.904 -31.925   9.195  0.00  0.00    +0.281 C 
ATOM      9  C   LIG    1       24.626 -31.414  10.620  0.00  0.00    +0.200 C 
ATOM     10  O   LIG    1       25.418 -30.693  11.228  0.00  0.00    -0.291 OA
ATOM     11  C   LIG    1       23.361 -31.903  11.294  0.00  0.00    +0.111 C 
ATOM     12  C   LIG    1       22.534 -32.755  10.341  0.00  0.00    +0.126 C 
ATOM     13  C   LIG    1       21.151 -33.039  10.914  0.00  0.00    +0.038 C 
ATOM     14  O   LIG    1       22.361 -32.029   9.128  0.00  0.00    -0.343 OA
ATOM     15  O   LIG    1       26.041 -31.382   8.540  0.00  0.00    -0.331 OA
ATOM     16  C   LIG    1       24.333 -29.202   5.917  0.00  0.00    +0.165 C 
ENDROOT
BRANCH   1  18
ATOM     17  C   LIG    1       24.023 -25.438   6.363  0.00  0.00    +0.101 C 
ATOM     18  N   LIG    1       24.055 -26.756   5.749  0.00  0.00    -0.312 NA
ATOM     19  H   LIG    1       24.827 -26.783   5.076  0.00  0.00    +0.122 HD
ENDBRANCH   1  18
BRANCH   3  20
ATOM     20  N   LIG    1       27.089 -28.768   9.230  0.00  0.00    -0.312 NA
ATOM     21  H   LIG    1       27.432 -29.724   9.393  0.00  0.00    +0.122 HD
ATOM     22  C   LIG    1       26.977 -28.113  10.529  0.00  0.00    +0.101 C 
ENDBRANCH   3  20
BRANCH   2  23
ATOM     23  O   LIG    1       26.681 -27.544   6.714  0.00  0.00    -0.389 OA
ATOM     24  H   LIG    1       27.344 -28.177   7.062  0.00  0.00    +0.210 HD
ENDBRANCH   2  23
BRANCH   8  25
ATOM     25  O   LIG    1       25.268 -33.302   9.393  0.00  0.00    -0.355 OA
ATOM     26  H   LIG    1       25.806 -33.508   8.606  0.00  0.00    +0.213 HD
ENDBRANCH   8  25
BRANCH  16  27
ATOM     27  O   LIG    1       23.119 -29.447   5.188  0.00  0.00    -0.388 OA
ATOM     28  H   LIG    1       22.773 -30.300   5.509  0.00  0.00    +0.210 HD
ENDBRANCH  16  27
TORSDOF 5
ENDMDL
MODEL 3
REMARK VINA RESULT:      -6.2      2.186      6.087
REMARK  Name = *****
REMARK                            x       y       z     vdW  Elec       q    Type
REMARK                         _______ _______ _______ _____ _____    ______ ____
ROOT
ATOM      1  C   LIG    1       28.541 -19.263   7.330  0.00  0.00    +0.115 C 
ATOM      2  C   LIG    1       27.999 -20.317   8.328  0.00  0.00    +0.153 C 
ATOM      3  C   LIG    1       26.657 -20.941   7.877  0.00  0.00    +0.115 C 
ATOM      4  C   LIG    1       26.798 -21.542   6.447  0.00  0.00    +0.173 C 
ATOM      5  C   LIG    1       27.351 -20.529   5.445  0.00  0.00    +0.182 C 
ATOM      6  O   LIG    1       26.371 -19.492   5.254  0.00  0.00    -0.338 OA
ATOM      7  C   LIG    1       25.219 -20.041   4.593  0.00  0.00    +0.319 C 
ATOM      8  C   LIG    1       24.615 -21.241   5.403  0.00  0.00    +0.281 C 
ATOM      9  C   LIG    1       23.541 -20.689   6.358  0.00  0.00    +0.200 C 
ATOM     10  O   LIG    1       23.411 -21.100   7.512  0.00  0.00    -0.291 OA
ATOM     11  C   LIG    1       22.578 -19.664   5.795  0.00  0.00    +0.111 C 
ATOM     12  C   LIG    1       22.953 -19.296   4.366  0.00  0.00    +0.126 C 
ATOM     13  C   LIG    1       22.156 -18.092   3.880  0.00  0.00    +0.038 C 
ATOM     14  O   LIG    1       24.332 -18.944   4.343  0.00  0.00    -0.343 OA
ATOM     15  O   LIG    1       25.570 -22.124   5.971  0.00  0.00    -0.331 OA
ATOM     16  C   LIG    1       28.667 -19.899   5.919  0.00  0.00    +0.165 C 
ENDROOT
BRANCH   1  18
ATOM     17  C   LIG    1       29.877 -18.065   9.024  0.00  0.00    +0.101 C 
ATOM     18  N   LIG    1       29.865 -18.716   7.723  0.00  0.00    -0.312 NA
ATOM     19  H   LIG    1       30.529 -19.496   7.743  0.00  0.00    +0.122 HD
ENDBRANCH   1  18
BRANCH   3  20
ATOM     20  N   LIG    1       26.234 -22.039   8.792  0.00  0.00    -0.312 NA
ATOM     21  H   LIG    1       26.984 -22.143   9.488  0.00  0.00    +0.122 HD
ATOM     22  C   LIG    1       26.073 -23.325   8.123  0.00  0.00    +0.101 C 
ENDBRANCH   3  20
BRANCH   2  23
ATOM     23  O   LIG    1       28.965 -21.369   8.497  0.00  0.00    -0.389 OA
ATOM     24  H   LIG    1       29.299 -21.550   7.593  0.00  0.00    +0.210 HD
ENDBRANCH   2  23
BRANCH   8  25
ATOM     25  O   LIG    1       23.873 -22.090   4.512  0.00  0.00    -0.355 OA
ATOM     26  H   LIG    1       23.182 -21.498   4.161  0.00  0.00    +0.213 HD
ENDBRANCH   8  25
BRANCH  16  27
ATOM     27  O   LIG    1       29.066 -18.926   4.940  0.00  0.00    -0.388 OA
ATOM     28  H   LIG    1       29.138 -19.403   4.093  0.00  0.00    +0.210 HD
ENDBRANCH  16  27
TORSDOF 5
ENDMDL
MODEL 4
REMARK VINA RESULT:      -6.1      2.228      5.773
REMARK  Name = *****
REMARK                            x       y       z     vdW  Elec       q    Type
REMARK                         _______ _______ _______ _____ _____    ______ ____
ROOT
ATOM      1  C   LIG    1       29.391 -20.541   6.471  0.00  0.00    +0.115 C 
ATOM      2  C   LIG    1       28.511 -19.668   5.541  0.00  0.00    +0.153 C 
ATOM      3  C   LIG    1       27.048 -20.165   5.454  0.00  0.00    +0.115 C 
ATOM      4  C   LIG    1       26.429 -20.267   6.879  0.00  0.00    +0.173 C 
ATOM      5  C   LIG    1       27.288 -21.106   7.825  0.00  0.00    +0.182 C 
ATOM      6  O   LIG    1       27.263 -22.473   7.374  0.00  0.00    -0.338 OA
ATOM      7  C   LIG    1       25.939 -23.006   7.542  0.00  0.00    +0.319 C 
ATOM      8  C   LIG    1       24.876 -22.143   6.776  0.00  0.00    +0.281 C 
ATOM      9  C   LIG    1       24.704 -22.729   5.363  0.00  0.00    +0.200 C 
ATOM     10  O   LIG    1       24.584 -22.017   4.365  0.00  0.00    -0.291 OA
ATOM     11  C   LIG    1       24.602 -24.236   5.248  0.00  0.00    +0.111 C 
ATOM     12  C   LIG    1       24.806 -24.897   6.604  0.00  0.00    +0.126 C 
ATOM     13  C   LIG    1       24.958 -26.407   6.464  0.00  0.00    +0.038 C 
ATOM     14  O   LIG    1       26.007 -24.389   7.173  0.00  0.00    -0.343 OA
ATOM     15  O   LIG    1       25.069 -20.739   6.857  0.00  0.00    -0.331 OA
ATOM     16  C   LIG    1       28.742 -20.619   7.880  0.00  0.00    +0.165 C 
ENDROOT
BRANCH   1  18
ATOM     17  C   LIG    1       30.939 -19.052   7.685  0.00  0.00    +0.101 C 
ATOM     18  N   LIG    1       30.776 -20.025   6.615  0.00  0.00    -0.312 NA
ATOM     19  H   LIG    1       31.387 -20.824   6.806  0.00  0.00    +0.122 HD
ENDBRANCH   1  18
BRANCH   3  20
ATOM     20  N   LIG    1       26.204 -19.229   4.658  0.00  0.00    -0.312 NA
ATOM     21  H   LIG    1       25.382 -19.012   5.238  0.00  0.00    +0.122 HD
ATOM     22  C   LIG    1       25.720 -19.802   3.406  0.00  0.00    +0.101 C 
ENDBRANCH   3  20
BRANCH   2  23
ATOM     23  O   LIG    1       28.511 -18.308   6.008  0.00  0.00    -0.389 OA
ATOM     24  H   LIG    1       29.447 -18.121   6.235  0.00  0.00    +0.210 HD
ENDBRANCH   2  23
BRANCH   8  25
ATOM     25  O   LIG    1       23.586 -22.332   7.382  0.00  0.00    -0.355 OA
ATOM     26  H   LIG    1       23.310 -21.425   7.609  0.00  0.00    +0.213 HD
ENDBRANCH   8  25
BRANCH  16  27
ATOM     27  O   LIG    1       29.470 -21.506   8.743  0.00  0.00    -0.388 OA
ATOM     28  H   LIG    1       29.370 -22.400   8.367  0.00  0.00    +0.210 HD
ENDBRANCH  16  27
TORSDOF 5
ENDMDL
MODEL 5
REMARK VINA RESULT:      -5.5      9.661     11.229
REMARK  Name = *****
REMARK                            x       y       z     vdW  Elec       q    Type
REMARK                         _______ _______ _______ _____ _____    ______ ____
ROOT
ATOM      1  C   LIG    1       25.203 -29.509   8.638  0.00  0.00    +0.115 C 
ATOM      2  C   LIG    1       26.455 -28.962   9.367  0.00  0.00    +0.153 C 
ATOM      3  C   LIG    1       26.178 -28.583  10.842  0.00  0.00    +0.115 C 
ATOM      4  C   LIG    1       25.571 -29.799  11.603  0.00  0.00    +0.173 C 
ATOM      5  C   LIG    1       24.345 -30.374  10.894  0.00  0.00    +0.182 C 
ATOM      6  O   LIG    1       23.283 -29.403  10.958  0.00  0.00    -0.338 OA
ATOM      7  C   LIG    1       22.857 -29.252  12.322  0.00  0.00    +0.319 C 
ATOM      8  C   LIG    1       24.052 -28.837  13.249  0.00  0.00    +0.281 C 
ATOM      9  C   LIG    1       24.103 -27.300  13.317  0.00  0.00    +0.200 C 
ATOM     10  O   LIG    1       25.163 -26.674  13.295  0.00  0.00    -0.291 OA
ATOM     11  C   LIG    1       22.786 -26.573  13.498  0.00  0.00    +0.111 C 
ATOM     12  C   LIG    1       21.619 -27.551  13.470  0.00  0.00    +0.126 C 
ATOM     13  C   LIG    1       20.287 -26.817  13.396  0.00  0.00    +0.038 C 
ATOM     14  O   LIG    1       21.739 -28.355  12.302  0.00  0.00    -0.343 OA
ATOM     15  O   LIG    1       25.280 -29.497  12.981  0.00  0.00    -0.331 OA
ATOM     16  C   LIG    1       24.627 -30.717   9.426  0.00  0.00    +0.165 C 
ENDROOT
BRANCH   1  18
ATOM     17  C   LIG    1       24.756 -29.191   6.232  0.00  0.00    +0.101 C 
ATOM     18  N   LIG    1       25.483 -29.942   7.245  0.00  0.00    -0.312 NA
ATOM     19  H   LIG    1       26.487 -29.824   7.080  0.00  0.00    +0.122 HD
ENDBRANCH   1  18
BRANCH   3  20
ATOM     20  N   LIG    1       27.431 -28.186  11.545  0.00  0.00    -0.312 NA
ATOM     21  H   LIG    1       28.048 -27.777  10.832  0.00  0.00    +0.122 HD
ATOM     22  C   LIG    1       28.141 -29.308  12.149  0.00  0.00    +0.101 C 
ENDBRANCH   3  20
BRANCH   2  23
ATOM     23  O   LIG    1       27.506 -29.942   9.331  0.00  0.00    -0.389 OA
ATOM     24  H   LIG    1       27.283 -30.521   8.571  0.00  0.00    +0.210 HD
ENDBRANCH   2  23
BRANCH   8  25
ATOM     25  O   LIG    1       23.760 -29.227  14.602  0.00  0.00    -0.355 OA
ATOM     26  H   LIG    1       23.793 -30.201  14.567  0.00  0.00    +0.213 HD
ENDBRANCH   8  25
BRANCH  16  27
ATOM     27  O   LIG    1       23.403 -31.189   8.842  0.00  0.00    -0.388 OA
ATOM     28  H   LIG    1       22.847 -30.401   8.695  0.00  0.00    +0.210 HD
ENDBRANCH  16  27
TORSDOF 5
ENDMDL
MODEL 6
REMARK VINA RESULT:      -5.5      8.399     10.834
REMARK  Name = *****
REMARK                            x       y       z     vdW  Elec       q    Type
REMARK                         _______ _______ _______ _____ _____    ______ ____
ROOT
ATOM      1  C   LIG    1       25.245 -27.775  12.955  0.00  0.00    +0.115 C 
ATOM      2  C   LIG    1       24.345 -29.036  12.968  0.00  0.00    +0.153 C 
ATOM      3  C   LIG    1       24.324 -29.776  11.608  0.00  0.00    +0.115 C 
ATOM      4  C   LIG    1       25.775 -30.126  11.165  0.00  0.00    +0.173 C 
ATOM      5  C   LIG    1       26.692 -28.903  11.164  0.00  0.00    +0.182 C 
ATOM      6  O   LIG    1       26.255 -28.005  10.126  0.00  0.00    -0.338 OA
ATOM      7  C   LIG    1       26.483 -28.612   8.844  0.00  0.00    +0.319 C 
ATOM      8  C   LIG    1       25.754 -29.997   8.731  0.00  0.00    +0.281 C 
ATOM      9  C   LIG    1       24.355 -29.761   8.133  0.00  0.00    +0.200 C 
ATOM     10  O   LIG    1       23.356 -30.357   8.540  0.00  0.00    -0.291 OA
ATOM     11  C   LIG    1       24.259 -28.817   6.953  0.00  0.00    +0.111 C 
ATOM     12  C   LIG    1       25.611 -28.185   6.653  0.00  0.00    +0.126 C 
ATOM     13  C   LIG    1       25.478 -27.053   5.642  0.00  0.00    +0.038 C 
ATOM     14  O   LIG    1       26.124 -27.634   7.860  0.00  0.00    -0.343 OA
ATOM     15  O   LIG    1       25.815 -30.805   9.896  0.00  0.00    -0.331 OA
ATOM     16  C   LIG    1       26.680 -28.164  12.507  0.00  0.00    +0.165 C 
ENDROOT
BRANCH   1  18
ATOM     17  C   LIG    1       24.738 -25.774  14.306  0.00  0.00    +0.101 C 
ATOM     18  N   LIG    1       25.326 -27.104  14.277  0.00  0.00    -0.312 NA
ATOM     19  H   LIG    1       24.833 -27.693  14.955  0.00  0.00    +0.122 HD
ENDBRANCH   1  18
BRANCH   3  20
ATOM     20  N   LIG    1       23.555 -31.051  11.697  0.00  0.00    -0.312 NA
ATOM     21  H   LIG    1       23.722 -31.553  10.815  0.00  0.00    +0.122 HD
ATOM     22  C   LIG    1       22.115 -30.854  11.826  0.00  0.00    +0.101 C 
ENDBRANCH   3  20
BRANCH   2  23
ATOM     23  O   LIG    1       24.799 -29.947  13.983  0.00  0.00    -0.389 OA
ATOM     24  H   LIG    1       23.997 -30.154  14.510  0.00  0.00    +0.210 HD
ENDBRANCH   2  23
BRANCH   8  25
ATOM     25  O   LIG    1       26.415 -30.802   7.740  0.00  0.00    -0.355 OA
ATOM     26  H   LIG    1       27.334 -30.475   7.761  0.00  0.00    +0.213 HD
ENDBRANCH   8  25
BRANCH  16  27
ATOM     27  O   LIG    1       27.521 -27.006  12.379  0.00  0.00    -0.388 OA
ATOM     28  H   LIG    1       27.755 -26.940  11.436  0.00  0.00    +0.210 HD
ENDBRANCH  16  27
TORSDOF 5
ENDMDL
MODEL 7
REMARK VINA RESULT:      -5.4      9.043     12.531
REMARK  Name = *****
REMARK                            x       y       z     vdW  Elec       q    Type
REMARK                         _______ _______ _______ _____ _____    ______ ____
ROOT
ATOM      1  C   LIG    1       25.232 -28.964   7.942  0.00  0.00    +0.115 C 
ATOM      2  C   LIG    1       25.998 -28.792   9.277  0.00  0.00    +0.153 C 
ATOM      3  C   LIG    1       25.340 -29.555  10.453  0.00  0.00    +0.115 C 
ATOM      4  C   LIG    1       25.174 -31.060  10.090  0.00  0.00    +0.173 C 
ATOM      5  C   LIG    1       24.439 -31.259   8.765  0.00  0.00    +0.182 C 
ATOM      6  O   LIG    1       23.076 -30.823   8.928  0.00  0.00    -0.338 OA
ATOM      7  C   LIG    1       22.399 -31.707   9.837  0.00  0.00    +0.319 C 
ATOM      8  C   LIG    1       23.135 -31.773  11.221  0.00  0.00    +0.281 C 
ATOM      9  C   LIG    1       22.529 -30.701  12.144  0.00  0.00    +0.200 C 
ATOM     10  O   LIG    1       23.220 -30.015  12.899  0.00  0.00    -0.291 OA
ATOM     11  C   LIG    1       21.020 -30.572  12.156  0.00  0.00    +0.111 C 
ATOM     12  C   LIG    1       20.390 -31.500  11.126  0.00  0.00    +0.126 C 
ATOM     13  C   LIG    1       18.907 -31.200  10.949  0.00  0.00    +0.038 C 
ATOM     14  O   LIG    1       21.031 -31.281   9.875  0.00  0.00    -0.343 OA
ATOM     15  O   LIG    1       24.552 -31.815  11.147  0.00  0.00    -0.331 OA
ATOM     16  C   LIG    1       25.085 -30.475   7.616  0.00  0.00    +0.165 C 
ENDROOT
BRANCH   1  18
ATOM     17  C   LIG    1       25.900 -26.842   6.875  0.00  0.00    +0.101 C 
ATOM     18  N   LIG    1       25.900 -28.295   6.797  0.00  0.00    -0.312 NA
ATOM     19  H   LIG    1       26.871 -28.619   6.772  0.00  0.00    +0.122 HD
ENDBRANCH   1  18
BRANCH   3  20
ATOM     20  N   LIG    1       26.174 -29.473  11.686  0.00  0.00    -0.312 NA
ATOM     21  H   LIG    1       25.762 -30.132  12.360  0.00  0.00    +0.122 HD
ATOM     22  C   LIG    1       26.170 -28.152  12.305  0.00  0.00    +0.101 C 
ENDBRANCH   3  20
BRANCH   2  23
ATOM     23  O   LIG    1       27.351 -29.255   9.125  0.00  0.00    -0.389 OA
ATOM     24  H   LIG    1       27.279 -30.058   8.567  0.00  0.00    +0.210 HD
ENDBRANCH   2  23
BRANCH   8  25
ATOM     25  O   LIG    1       22.805 -33.011  11.874  0.00  0.00    -0.355 OA
ATOM     26  H   LIG    1       21.908 -33.206  11.546  0.00  0.00    +0.213 HD
ENDBRANCH   8  25
BRANCH  16  27
ATOM     27  O   LIG    1       24.288 -30.682   6.439  0.00  0.00    -0.388 OA
ATOM     28  H   LIG    1       24.435 -31.607   6.167  0.00  0.00    +0.210 HD
ENDBRANCH  16  27
TORSDOF 5
ENDMDL
MODEL 8
REMARK VINA RESULT:      -5.4      2.407      6.067
REMARK  Name = *****
REMARK                            x       y       z     vdW  Elec       q    Type
REMARK                         _______ _______ _______ _____ _____    ______ ____
ROOT
ATOM      1  C   LIG    1       30.201 -18.425   7.861  0.00  0.00    +0.115 C 
ATOM      2  C   LIG    1       30.509 -19.608   8.812  0.00  0.00    +0.153 C 
ATOM      3  C   LIG    1       29.489 -20.765   8.685  0.00  0.00    +0.115 C 
ATOM      4  C   LIG    1       29.401 -21.243   7.206  0.00  0.00    +0.173 C 
ATOM      5  C   LIG    1       29.118 -20.091   6.241  0.00  0.00    +0.182 C 
ATOM      6  O   LIG    1       27.788 -19.600   6.492  0.00  0.00    -0.338 OA
ATOM      7  C   LIG    1       26.831 -20.606   6.122  0.00  0.00    +0.319 C 
ATOM      8  C   LIG    1       27.087 -21.948   6.893  0.00  0.00    +0.281 C 
ATOM      9  C   LIG    1       26.253 -21.931   8.187  0.00  0.00    +0.200 C 
ATOM     10  O   LIG    1       26.689 -22.354   9.258  0.00  0.00    -0.291 OA
ATOM     11  C   LIG    1       24.823 -21.443   8.080  0.00  0.00    +0.111 C 
ATOM     12  C   LIG    1       24.524 -20.949   6.671  0.00  0.00    +0.126 C 
ATOM     13  C   LIG    1       23.183 -20.228   6.613  0.00  0.00    +0.038 C 
ATOM     14  O   LIG    1       25.535 -20.020   6.299  0.00  0.00    -0.343 OA
ATOM     15  O   LIG    1       28.453 -22.313   7.028  0.00  0.00    -0.331 OA
ATOM     16  C   LIG    1       30.119 -18.940   6.398  0.00  0.00    +0.165 C 
ENDROOT
BRANCH   1  18
ATOM     17  C   LIG    1       31.459 -16.836   9.268  0.00  0.00    +0.101 C 
ATOM     18  N   LIG    1       31.218 -17.345   7.926  0.00  0.00    -0.312 NA
ATOM     19  H   LIG    1       32.096 -17.723   7.559  0.00  0.00    +0.122 HD
ENDBRANCH   1  18
BRANCH   3  20
ATOM     20  N   LIG    1       29.890 -21.935   9.518  0.00  0.00    -0.312 NA
ATOM     21  H   LIG    1       29.920 -21.604  10.491  0.00  0.00    +0.122 HD
ATOM     22  C   LIG    1       31.213 -22.456   9.190  0.00  0.00    +0.101 C 
ENDBRANCH   3  20
BRANCH   2  23
ATOM     23  O   LIG    1       31.825 -20.119   8.542  0.00  0.00    -0.389 OA
ATOM     24  H   LIG    1       32.318 -19.996   9.381  0.00  0.00    +0.210 HD
ENDBRANCH   2  23
BRANCH   8  25
ATOM     25  O   LIG    1       26.530 -23.041   6.144  0.00  0.00    -0.355 OA
ATOM     26  H   LIG    1       25.645 -23.155   6.538  0.00  0.00    +0.213 HD
ENDBRANCH   8  25
BRANCH  16  27
ATOM     27  O   LIG    1       29.730 -17.894   5.494  0.00  0.00    -0.388 OA
ATOM     28  H   LIG    1       29.403 -17.161   6.047  0.00  0.00    +0.210 HD
ENDBRANCH  16  27
TORSDOF 5
ENDMDL
MODEL 9
REMARK VINA RESULT:      -5.3      9.360     11.275
REMARK  Name = *****
REMARK                            x       y       z     vdW  Elec       q    Type
REMARK                         _______ _______ _______ _____ _____    ______ ____
ROOT
ATOM      1  C   LIG    1       23.086 -32.168   9.641  0.00  0.00    +0.115 C 
ATOM      2  C   LIG    1       23.794 -31.776   8.320  0.00  0.00    +0.153 C 
ATOM      3  C   LIG    1       25.085 -30.953   8.547  0.00  0.00    +0.115 C 
ATOM      4  C   LIG    1       26.052 -31.723   9.494  0.00  0.00    +0.173 C 
ATOM      5  C   LIG    1       25.374 -32.141  10.799  0.00  0.00    +0.182 C 
ATOM      6  O   LIG    1       25.069 -30.956  11.557  0.00  0.00    -0.338 OA
ATOM      7  C   LIG    1       26.294 -30.337  11.985  0.00  0.00    +0.319 C 
ATOM      8  C   LIG    1       27.218 -29.998  10.764  0.00  0.00    +0.281 C 
ATOM      9  C   LIG    1       26.903 -28.565  10.299  0.00  0.00    +0.200 C 
ATOM     10  O   LIG    1       26.846 -28.256   9.108  0.00  0.00    -0.291 OA
ATOM     11  C   LIG    1       26.744 -27.510  11.374  0.00  0.00    +0.111 C 
ATOM     12  C   LIG    1       26.828 -28.133  12.761  0.00  0.00    +0.126 C 
ATOM     13  C   LIG    1       26.420 -27.137  13.838  0.00  0.00    +0.038 C 
ATOM     14  O   LIG    1       25.921 -29.229  12.814  0.00  0.00    -0.343 OA
ATOM     15  O   LIG    1       27.266 -30.993   9.752  0.00  0.00    -0.331 OA
ATOM     16  C   LIG    1       24.081 -32.931  10.558  0.00  0.00    +0.165 C 
ENDROOT
BRANCH   1  18
ATOM     17  C   LIG    1       20.664 -32.475   9.995  0.00  0.00    +0.101 C 
ATOM     18  N   LIG    1       21.889 -33.020   9.429  0.00  0.00    -0.312 NA
ATOM     19  H   LIG    1       21.760 -33.130   8.419  0.00  0.00    +0.122 HD
ENDBRANCH   1  18
BRANCH   3  20
ATOM     20  N   LIG    1       25.804 -30.707   7.265  0.00  0.00    -0.312 NA
ATOM     21  H   LIG    1       26.706 -30.281   7.514  0.00  0.00    +0.122 HD
ATOM     22  C   LIG    1       25.110 -29.780   6.377  0.00  0.00    +0.101 C 
ENDBRANCH   3  20
BRANCH   2  23
ATOM     23  O   LIG    1       24.125 -32.960   7.575  0.00  0.00    -0.389 OA
ATOM     24  H   LIG    1       24.814 -33.408   8.111  0.00  0.00    +0.210 HD
ENDBRANCH   2  23
BRANCH   8  25
ATOM     25  O   LIG    1       28.583 -29.919  11.209  0.00  0.00    -0.355 OA
ATOM     26  H   LIG    1       28.642 -29.024  11.592  0.00  0.00    +0.213 HD
ENDBRANCH   8  25
BRANCH  16  27
ATOM     27  O   LIG    1       23.498 -33.221  11.838  0.00  0.00    -0.388 OA
ATOM     28  H   LIG    1       22.618 -32.800  11.840  0.00  0.00    +0.210 HD
ENDBRANCH  16  27
TORSDOF 5
ENDMDL
