MODEL 1
REMARK VINA RESULT:      -4.5      0.000      0.000
REMARK  Name = *****
REMARK                            x       y       z     vdW  Elec       q    Type
REMARK                         _______ _______ _______ _____ _____    ______ ____
ROOT
ATOM      1  C   LIG    1       25.879 -14.382   3.554  0.00  0.00    +0.039 A 
ATOM      2  C   LIG    1       24.464 -14.335   3.510  0.00  0.00    +0.043 A 
ATOM      3  C   LIG    1       23.859 -13.376   2.686  0.00  0.00    +0.013 A 
ATOM      4  C   LIG    1       24.614 -12.388   2.050  0.00  0.00    +0.001 A 
ATOM      5  C   LIG    1       25.990 -12.344   2.229  0.00  0.00    +0.006 A 
ATOM      6  C   LIG    1       26.632 -13.310   3.017  0.00  0.00    -0.015 A 
ENDROOT
BRANCH   1   7
ATOM      7  N   LIG    1       26.570 -15.340   4.349  0.00  0.00    -0.357 N 
ATOM      8  H   LIG    1       27.476 -14.936   4.651  0.00  0.00    +0.142 HD
ATOM      9  H   LIG    1       26.045 -15.566   5.198  0.00  0.00    +0.142 HD
ENDBRANCH   1   7
BRANCH   2  10
ATOM     10  C   LIG    1       23.654 -15.317   4.321  0.00  0.00    +0.195 C 
ATOM     11  O   LIG    1       22.878 -14.857   5.163  0.00  0.00    -0.287 OA
BRANCH  10  12
ATOM     12  C   LIG    1       23.701 -16.812   4.136  0.00  0.00    +0.022 A 
ATOM     13  C   LIG    1       24.800 -17.477   3.582  0.00  0.00    +0.013 A 
ATOM     14  C   LIG    1       24.851 -18.871   3.508  0.00  0.00    +0.016 A 
ATOM     15  C   LIG    1       23.764 -19.626   3.924  0.00  0.00    +0.018 A 
ATOM     16 BR   LIG    1       23.841 -21.509   3.789  0.00  0.00    -0.050 Br
ATOM     17  C   LIG    1       22.621 -18.993   4.404  0.00  0.00    +0.016 A 
ATOM     18  C   LIG    1       22.588 -17.592   4.507  0.00  0.00    +0.013 A 
ENDBRANCH  10  12
ENDBRANCH   2  10
BRANCH   6  19
ATOM     19  C   LIG    1       28.109 -13.126   3.329  0.00  0.00    +0.157 C 
BRANCH  19  20
ATOM     20  C   LIG    1       28.431 -12.617   4.721  0.00  0.00    +0.309 C 
ATOM     21  O   LIG    1       27.741 -12.923   5.701  0.00  0.00    -0.251 OA
BRANCH  20  22
ATOM     22  O   LIG    1       29.448 -11.746   4.854  0.00  0.00    -0.480 OA
ATOM     23  H   LIG    1       29.154 -10.835   5.103  0.00  0.00    +0.295 HD
ENDBRANCH  20  22
ENDBRANCH  19  20
ENDBRANCH   6  19
TORSDOF 6
ENDMDL
MODEL 2
REMARK VINA RESULT:      -4.3      3.454      6.266
REMARK  Name = *****
REMARK                            x       y       z     vdW  Elec       q    Type
REMARK                         _______ _______ _______ _____ _____    ______ ____
ROOT
ATOM      1  C   LIG    1       24.435 -17.300   3.849  0.00  0.00    +0.039 A 
ATOM      2  C   LIG    1       23.497 -16.260   4.070  0.00  0.00    +0.043 A 
ATOM      3  C   LIG    1       22.268 -16.591   4.657  0.00  0.00    +0.013 A 
ATOM      4  C   LIG    1       21.904 -17.922   4.872  0.00  0.00    +0.001 A 
ATOM      5  C   LIG    1       22.766 -18.946   4.502  0.00  0.00    +0.006 A 
ATOM      6  C   LIG    1       24.019 -18.650   3.946  0.00  0.00    -0.015 A 
ENDROOT
BRANCH   1   7
ATOM      7  N   LIG    1       25.714 -17.043   3.277  0.00  0.00    -0.357 N 
ATOM      8  H   LIG    1       26.316 -17.875   3.413  0.00  0.00    +0.142 HD
ATOM      9  H   LIG    1       25.644 -16.885   2.267  0.00  0.00    +0.142 HD
ENDBRANCH   1   7
BRANCH   2  10
ATOM     10  C   LIG    1       23.847 -14.841   3.693  0.00  0.00    +0.195 C 
ATOM     11  O   LIG    1       22.928 -14.105   3.324  0.00  0.00    -0.287 OA
BRANCH  10  12
ATOM     12  C   LIG    1       25.234 -14.257   3.784  0.00  0.00    +0.022 A 
ATOM     13  C   LIG    1       26.031 -14.008   2.661  0.00  0.00    +0.013 A 
ATOM     14  C   LIG    1       27.275 -13.381   2.771  0.00  0.00    +0.016 A 
ATOM     15  C   LIG    1       27.778 -13.056   4.022  0.00  0.00    +0.018 A 
ATOM     16 BR   LIG    1       29.474 -12.236   4.151  0.00  0.00    -0.050 Br
ATOM     17  C   LIG    1       27.048 -13.365   5.167  0.00  0.00    +0.016 A 
ATOM     18  C   LIG    1       25.783 -13.966   5.048  0.00  0.00    +0.013 A 
ENDBRANCH  10  12
ENDBRANCH   2  10
BRANCH   6  19
ATOM     19  C   LIG    1       24.856 -19.793   3.397  0.00  0.00    +0.157 C 
BRANCH  19  20
ATOM     20  C   LIG    1       25.587 -20.632   4.428  0.00  0.00    +0.309 C 
ATOM     21  O   LIG    1       25.032 -21.572   5.013  0.00  0.00    -0.251 OA
BRANCH  20  22
ATOM     22  O   LIG    1       26.840 -20.275   4.759  0.00  0.00    -0.480 OA
ATOM     23  H   LIG    1       27.067 -20.468   5.702  0.00  0.00    +0.295 HD
ENDBRANCH  20  22
ENDBRANCH  19  20
ENDBRANCH   6  19
TORSDOF 6
ENDMDL
MODEL 3
REMARK VINA RESULT:      -4.1      3.909      7.566
REMARK  Name = *****
REMARK                            x       y       z     vdW  Elec       q    Type
REMARK                         _______ _______ _______ _____ _____    ______ ____
ROOT
ATOM      1  C   LIG    1       26.046 -20.102   4.479  0.00  0.00    +0.039 A 
ATOM      2  C   LIG    1       27.061 -19.573   5.314  0.00  0.00    +0.043 A 
ATOM      3  C   LIG    1       27.258 -20.161   6.571  0.00  0.00    +0.013 A 
ATOM      4  C   LIG    1       26.381 -21.131   7.061  0.00  0.00    +0.001 A 
ATOM      5  C   LIG    1       25.290 -21.529   6.299  0.00  0.00    +0.006 A 
ATOM      6  C   LIG    1       25.084 -20.988   5.022  0.00  0.00    -0.015 A 
ENDROOT
BRANCH   1   7
ATOM      7  N   LIG    1       25.797 -19.574   3.179  0.00  0.00    -0.357 N 
ATOM      8  H   LIG    1       25.776 -18.539   3.235  0.00  0.00    +0.142 HD
ATOM      9  H   LIG    1       26.546 -19.824   2.527  0.00  0.00    +0.142 HD
ENDBRANCH   1   7
BRANCH   2  10
ATOM     10  C   LIG    1       27.908 -18.422   4.829  0.00  0.00    +0.195 C 
ATOM     11  O   LIG    1       29.134 -18.553   4.881  0.00  0.00    -0.287 OA
BRANCH  10  12
ATOM     12  C   LIG    1       27.353 -17.148   4.244  0.00  0.00    +0.022 A 
ATOM     13  C   LIG    1       26.173 -17.105   3.494  0.00  0.00    +0.013 A 
ATOM     14  C   LIG    1       25.636 -15.897   3.043  0.00  0.00    +0.016 A 
ATOM     15  C   LIG    1       26.313 -14.709   3.276  0.00  0.00    +0.018 A 
ATOM     16 BR   LIG    1       25.585 -13.089   2.633  0.00  0.00    -0.050 Br
ATOM     17  C   LIG    1       27.533 -14.724   3.948  0.00  0.00    +0.016 A 
ATOM     18  C   LIG    1       28.052 -15.939   4.427  0.00  0.00    +0.013 A 
ENDBRANCH  10  12
ENDBRANCH   2  10
BRANCH   6  19
ATOM     19  C   LIG    1       23.790 -21.317   4.295  0.00  0.00    +0.157 C 
BRANCH  19  20
ATOM     20  C   LIG    1       22.521 -20.779   4.929  0.00  0.00    +0.309 C 
ATOM     21  O   LIG    1       22.506 -19.701   5.538  0.00  0.00    -0.251 OA
BRANCH  20  22
ATOM     22  O   LIG    1       21.419 -21.548   4.885  0.00  0.00    -0.480 OA
ATOM     23  H   LIG    1       21.339 -22.163   5.657  0.00  0.00    +0.295 HD
ENDBRANCH  20  22
ENDBRANCH  19  20
ENDBRANCH   6  19
TORSDOF 6
ENDMDL
MODEL 4
REMARK VINA RESULT:      -4.1      2.956      4.686
REMARK  Name = *****
REMARK                            x       y       z     vdW  Elec       q    Type
REMARK                         _______ _______ _______ _____ _____    ______ ____
ROOT
ATOM      1  C   LIG    1       24.404 -16.910   3.669  0.00  0.00    +0.039 A 
ATOM      2  C   LIG    1       23.717 -18.069   4.107  0.00  0.00    +0.043 A 
ATOM      3  C   LIG    1       22.428 -17.914   4.635  0.00  0.00    +0.013 A 
ATOM      4  C   LIG    1       21.892 -16.647   4.876  0.00  0.00    +0.001 A 
ATOM      5  C   LIG    1       22.639 -15.512   4.592  0.00  0.00    +0.006 A 
ATOM      6  C   LIG    1       23.918 -15.629   4.029  0.00  0.00    -0.015 A 
ENDROOT
BRANCH   1   7
ATOM      7  N   LIG    1       25.709 -16.984   3.101  0.00  0.00    -0.357 N 
ATOM      8  H   LIG    1       26.368 -17.337   3.819  0.00  0.00    +0.142 HD
ATOM      9  H   LIG    1       25.736 -17.643   2.318  0.00  0.00    +0.142 HD
ENDBRANCH   1   7
BRANCH   2  10
ATOM     10  C   LIG    1       24.371 -19.423   3.978  0.00  0.00    +0.195 C 
ATOM     11  O   LIG    1       23.910 -20.201   3.138  0.00  0.00    -0.287 OA
BRANCH  10  12
ATOM     12  C   LIG    1       25.573 -19.863   4.773  0.00  0.00    +0.022 A 
ATOM     13  C   LIG    1       25.506 -20.826   5.786  0.00  0.00    +0.013 A 
ATOM     14  C   LIG    1       26.653 -21.280   6.442  0.00  0.00    +0.016 A 
ATOM     15  C   LIG    1       27.887 -20.722   6.143  0.00  0.00    +0.018 A 
ATOM     16 BR   LIG    1       29.422 -21.329   7.062  0.00  0.00    -0.050 Br
ATOM     17  C   LIG    1       27.980 -19.703   5.198  0.00  0.00    +0.016 A 
ATOM     18  C   LIG    1       26.827 -19.274   4.518  0.00  0.00    +0.013 A 
ENDBRANCH  10  12
ENDBRANCH   2  10
BRANCH   6  19
ATOM     19  C   LIG    1       24.769 -14.377   3.896  0.00  0.00    +0.157 C 
BRANCH  19  20
ATOM     20  C   LIG    1       24.036 -13.123   3.457  0.00  0.00    +0.309 C 
ATOM     21  O   LIG    1       23.802 -12.198   4.245  0.00  0.00    -0.251 OA
BRANCH  20  22
ATOM     22  O   LIG    1       23.566 -13.076   2.198  0.00  0.00    -0.480 OA
ATOM     23  H   LIG    1       22.585 -12.952   2.150  0.00  0.00    +0.295 HD
ENDBRANCH  20  22
ENDBRANCH  19  20
ENDBRANCH   6  19
TORSDOF 6
ENDMDL
MODEL 5
REMARK VINA RESULT:      -3.4      3.828      7.232
REMARK  Name = *****
REMARK                            x       y       z     vdW  Elec       q    Type
REMARK                         _______ _______ _______ _____ _____    ______ ____
ROOT
ATOM      1  C   LIG    1       25.166 -19.886   4.348  0.00  0.00    +0.039 A 
ATOM      2  C   LIG    1       26.213 -18.939   4.234  0.00  0.00    +0.043 A 
ATOM      3  C   LIG    1       27.341 -19.097   5.051  0.00  0.00    +0.013 A 
ATOM      4  C   LIG    1       27.373 -20.060   6.061  0.00  0.00    +0.001 A 
ATOM      5  C   LIG    1       26.274 -20.882   6.272  0.00  0.00    +0.006 A 
ATOM      6  C   LIG    1       25.143 -20.775   5.450  0.00  0.00    -0.015 A 
ENDROOT
BRANCH   1   7
ATOM      7  N   LIG    1       23.996 -19.808   3.539  0.00  0.00    -0.357 N 
ATOM      8  H   LIG    1       23.865 -18.826   3.232  0.00  0.00    +0.142 HD
ATOM      9  H   LIG    1       24.091 -20.376   2.693  0.00  0.00    +0.142 HD
ENDBRANCH   1   7
BRANCH   2  10
ATOM     10  C   LIG    1       26.100 -17.811   3.237  0.00  0.00    +0.195 C 
ATOM     11  O   LIG    1       26.339 -18.069   2.054  0.00  0.00    -0.287 OA
BRANCH  10  12
ATOM     12  C   LIG    1       25.671 -16.409   3.587  0.00  0.00    +0.022 A 
ATOM     13  C   LIG    1       24.336 -16.053   3.808  0.00  0.00    +0.013 A 
ATOM     14  C   LIG    1       23.980 -14.767   4.221  0.00  0.00    +0.016 A 
ATOM     15  C   LIG    1       24.954 -13.788   4.351  0.00  0.00    +0.018 A 
ATOM     16 BR   LIG    1       24.448 -12.047   4.882  0.00  0.00    -0.050 Br
ATOM     17  C   LIG    1       26.283 -14.085   4.060  0.00  0.00    +0.016 A 
ATOM     18  C   LIG    1       26.639 -15.389   3.677  0.00  0.00    +0.013 A 
ENDBRANCH  10  12
ENDBRANCH   2  10
BRANCH   6  19
ATOM     19  C   LIG    1       23.900 -21.567   5.820  0.00  0.00    +0.157 C 
BRANCH  19  20
ATOM     20  C   LIG    1       22.575 -20.864   5.590  0.00  0.00    +0.309 C 
ATOM     21  O   LIG    1       21.698 -21.353   4.866  0.00  0.00    -0.251 OA
BRANCH  20  22
ATOM     22  O   LIG    1       22.407 -19.644   6.129  0.00  0.00    -0.480 OA
ATOM     23  H   LIG    1       22.391 -19.651   7.118  0.00  0.00    +0.295 HD
ENDBRANCH  20  22
ENDBRANCH  19  20
ENDBRANCH   6  19
TORSDOF 6
ENDMDL
MODEL 6
REMARK VINA RESULT:      -3.2      2.478      3.432
REMARK  Name = *****
REMARK                            x       y       z     vdW  Elec       q    Type
REMARK                         _______ _______ _______ _____ _____    ______ ____
ROOT
ATOM      1  C   LIG    1       25.237 -15.295   4.046  0.00  0.00    +0.039 A 
ATOM      2  C   LIG    1       26.169 -16.299   3.684  0.00  0.00    +0.043 A 
ATOM      3  C   LIG    1       27.535 -16.000   3.782  0.00  0.00    +0.013 A 
ATOM      4  C   LIG    1       27.974 -14.706   4.069  0.00  0.00    +0.001 A 
ATOM      5  C   LIG    1       27.050 -13.687   4.264  0.00  0.00    +0.006 A 
ATOM      6  C   LIG    1       25.676 -13.958   4.210  0.00  0.00    -0.015 A 
ENDROOT
BRANCH   1   7
ATOM      7  N   LIG    1       23.832 -15.526   3.995  0.00  0.00    -0.357 N 
ATOM      8  H   LIG    1       23.339 -14.677   4.326  0.00  0.00    +0.142 HD
ATOM      9  H   LIG    1       23.519 -15.700   3.036  0.00  0.00    +0.142 HD
ENDBRANCH   1   7
BRANCH   2  10
ATOM     10  C   LIG    1       25.677 -17.652   3.231  0.00  0.00    +0.195 C 
ATOM     11  O   LIG    1       25.897 -17.976   2.060  0.00  0.00    -0.287 OA
BRANCH  10  12
ATOM     12  C   LIG    1       24.980 -18.644   4.125  0.00  0.00    +0.022 A 
ATOM     13  C   LIG    1       25.658 -19.651   4.821  0.00  0.00    +0.013 A 
ATOM     14  C   LIG    1       24.996 -20.498   5.714  0.00  0.00    +0.016 A 
ATOM     15  C   LIG    1       23.622 -20.397   5.872  0.00  0.00    +0.018 A 
ATOM     16 BR   LIG    1       22.741 -21.570   7.062  0.00  0.00    -0.050 Br
ATOM     17  C   LIG    1       22.903 -19.461   5.133  0.00  0.00    +0.016 A 
ATOM     18  C   LIG    1       23.579 -18.590   4.262  0.00  0.00    +0.013 A 
ENDBRANCH  10  12
ENDBRANCH   2  10
BRANCH   6  19
ATOM     19  C   LIG    1       24.704 -12.790   4.255  0.00  0.00    +0.157 C 
BRANCH  19  20
ATOM     20  C   LIG    1       24.389 -12.142   2.920  0.00  0.00    +0.309 C 
ATOM     21  O   LIG    1       23.377 -11.447   2.758  0.00  0.00    -0.251 OA
BRANCH  20  22
ATOM     22  O   LIG    1       25.200 -12.411   1.881  0.00  0.00    -0.480 OA
ATOM     23  H   LIG    1       25.770 -11.645   1.621  0.00  0.00    +0.295 HD
ENDBRANCH  20  22
ENDBRANCH  19  20
ENDBRANCH   6  19
TORSDOF 6
ENDMDL
MODEL 7
REMARK VINA RESULT:      -3.1      4.089      7.523
REMARK  Name = *****
REMARK                            x       y       z     vdW  Elec       q    Type
REMARK                         _______ _______ _______ _____ _____    ______ ____
ROOT
ATOM      1  C   LIG    1       25.160 -20.088   4.537  0.00  0.00    +0.039 A 
ATOM      2  C   LIG    1       26.302 -19.260   4.398  0.00  0.00    +0.043 A 
ATOM      3  C   LIG    1       27.404 -19.507   5.229  0.00  0.00    +0.013 A 
ATOM      4  C   LIG    1       27.329 -20.431   6.273  0.00  0.00    +0.001 A 
ATOM      5  C   LIG    1       26.149 -21.124   6.504  0.00  0.00    +0.006 A 
ATOM      6  C   LIG    1       25.039 -20.928   5.670  0.00  0.00    -0.015 A 
ENDROOT
BRANCH   1   7
ATOM      7  N   LIG    1       24.009 -19.916   3.717  0.00  0.00    -0.357 N 
ATOM      8  H   LIG    1       23.205 -20.397   4.161  0.00  0.00    +0.142 HD
ATOM      9  H   LIG    1       23.757 -18.927   3.632  0.00  0.00    +0.142 HD
ENDBRANCH   1   7
BRANCH   2  10
ATOM     10  C   LIG    1       26.313 -18.164   3.361  0.00  0.00    +0.195 C 
ATOM     11  O   LIG    1       25.917 -18.448   2.227  0.00  0.00    -0.287 OA
BRANCH  10  12
ATOM     12  C   LIG    1       26.731 -16.742   3.634  0.00  0.00    +0.022 A 
ATOM     13  C   LIG    1       27.939 -16.409   4.256  0.00  0.00    +0.013 A 
ATOM     14  C   LIG    1       28.340 -15.080   4.413  0.00  0.00    +0.016 A 
ATOM     15  C   LIG    1       27.499 -14.052   4.012  0.00  0.00    +0.018 A 
ATOM     16 BR   LIG    1       28.047 -12.261   4.259  0.00  0.00    -0.050 Br
ATOM     17  C   LIG    1       26.253 -14.346   3.464  0.00  0.00    +0.016 A 
ATOM     18  C   LIG    1       25.870 -15.685   3.279  0.00  0.00    +0.013 A 
ENDBRANCH  10  12
ENDBRANCH   2  10
BRANCH   6  19
ATOM     19  C   LIG    1       23.718 -21.571   6.059  0.00  0.00    +0.157 C 
BRANCH  19  20
ATOM     20  C   LIG    1       22.469 -20.855   5.581  0.00  0.00    +0.309 C 
ATOM     21  O   LIG    1       22.254 -19.668   5.858  0.00  0.00    -0.251 OA
BRANCH  20  22
ATOM     22  O   LIG    1       21.547 -21.572   4.913  0.00  0.00    -0.480 OA
ATOM     23  H   LIG    1       21.686 -21.572   3.933  0.00  0.00    +0.295 HD
ENDBRANCH  20  22
ENDBRANCH  19  20
ENDBRANCH   6  19
TORSDOF 6
ENDMDL
MODEL 8
REMARK VINA RESULT:      -2.2      3.231      6.674
REMARK  Name = *****
REMARK                            x       y       z     vdW  Elec       q    Type
REMARK                         _______ _______ _______ _____ _____    ______ ____
ROOT
ATOM      1  C   LIG    1       25.908 -17.944   3.670  0.00  0.00    +0.039 A 
ATOM      2  C   LIG    1       27.122 -17.577   4.301  0.00  0.00    +0.043 A 
ATOM      3  C   LIG    1       27.837 -18.568   4.989  0.00  0.00    +0.013 A 
ATOM      4  C   LIG    1       27.298 -19.840   5.189  0.00  0.00    +0.001 A 
ATOM      5  C   LIG    1       26.033 -20.143   4.704  0.00  0.00    +0.006 A 
ATOM      6  C   LIG    1       25.306 -19.188   3.980  0.00  0.00    -0.015 A 
ENDROOT
BRANCH   1   7
ATOM      7  N   LIG    1       25.134 -17.001   2.934  0.00  0.00    -0.357 N 
ATOM      8  H   LIG    1       24.197 -17.405   2.753  0.00  0.00    +0.142 HD
ATOM      9  H   LIG    1       24.992 -16.140   3.468  0.00  0.00    +0.142 HD
ENDBRANCH   1   7
BRANCH   2  10
ATOM     10  C   LIG    1       27.621 -16.156   4.202  0.00  0.00    +0.195 C 
ATOM     11  O   LIG    1       28.818 -15.954   4.424  0.00  0.00    -0.287 OA
BRANCH  10  12
ATOM     12  C   LIG    1       26.762 -14.982   3.806  0.00  0.00    +0.022 A 
ATOM     13  C   LIG    1       26.784 -14.420   2.524  0.00  0.00    +0.013 A 
ATOM     14  C   LIG    1       25.911 -13.392   2.160  0.00  0.00    +0.016 A 
ATOM     15  C   LIG    1       25.043 -12.856   3.102  0.00  0.00    +0.018 A 
ATOM     16 BR   LIG    1       23.891 -11.447   2.598  0.00  0.00    -0.050 Br
ATOM     17  C   LIG    1       25.052 -13.335   4.409  0.00  0.00    +0.016 A 
ATOM     18  C   LIG    1       25.910 -14.392   4.760  0.00  0.00    +0.013 A 
ENDBRANCH  10  12
ENDBRANCH   2  10
BRANCH   6  19
ATOM     19  C   LIG    1       23.862 -19.496   3.618  0.00  0.00    +0.157 C 
BRANCH  19  20
ATOM     20  C   LIG    1       22.834 -19.201   4.694  0.00  0.00    +0.309 C 
ATOM     21  O   LIG    1       22.697 -19.935   5.681  0.00  0.00    -0.251 OA
BRANCH  20  22
ATOM     22  O   LIG    1       22.007 -18.157   4.506  0.00  0.00    -0.480 OA
ATOM     23  H   LIG    1       22.045 -17.491   5.237  0.00  0.00    +0.295 HD
ENDBRANCH  20  22
ENDBRANCH  19  20
ENDBRANCH   6  19
TORSDOF 6
ENDMDL
