MODEL 1
REMARK VINA RESULT:      -8.7      0.000      0.000
REMARK  Name = *****
REMARK                            x       y       z     vdW  Elec       q    Type
REMARK                         _______ _______ _______ _____ _____    ______ ____
ROOT
ATOM      1  C   LIG    1       26.279 -20.366   5.972  0.00  0.00    +0.093 A 
ATOM      2  C   LIG    1       26.575 -21.354   6.908  0.00  0.00    +0.060 A 
ATOM      3  N   LIG    1       27.922 -21.164   7.203  0.00  0.00    -0.302 N 
ATOM      4  C   LIG    1       28.365 -20.113   6.408  0.00  0.00    +0.139 A 
ATOM      5  C   LIG    1       29.732 -19.732   6.520  0.00  0.00    +0.047 A 
ATOM      6  C   LIG    1       30.531 -20.350   7.409  0.00  0.00    +0.008 A 
ATOM      7  C   LIG    1       30.032 -21.414   8.276  0.00  0.00    -0.034 A 
ATOM      8  C   LIG    1       30.983 -21.995   9.274  0.00  0.00    +0.045 C 
ATOM      9  C   LIG    1       28.749 -21.801   8.138  0.00  0.00    +0.096 A 
ATOM     10  N   LIG    1       27.393 -19.607   5.688  0.00  0.00    -0.228 NA
ENDROOT
BRANCH   1  15
ATOM     11  C   LIG    1       21.137 -19.016   3.677  0.00  0.00    +0.044 C 
ATOM     12  C   LIG    1       22.468 -19.372   4.270  0.00  0.00    -0.050 A 
ATOM     13  C   LIG    1       23.637 -19.214   3.521  0.00  0.00    +0.004 A 
ATOM     14  C   LIG    1       24.886 -19.516   4.074  0.00  0.00    +0.010 A 
ATOM     15  C   LIG    1       24.992 -20.041   5.365  0.00  0.00    +0.002 A 
ATOM     16  C   LIG    1       23.812 -20.213   6.107  0.00  0.00    +0.010 A 
ATOM     17  C   LIG    1       22.562 -19.882   5.567  0.00  0.00    +0.004 A 
ENDBRANCH   1  15
BRANCH   2  18
ATOM     18  C   LIG    1       25.740 -22.378   7.622  0.00  0.00    +0.152 C 
BRANCH  18  19
ATOM     19  C   LIG    1       25.601 -23.690   6.838  0.00  0.00    +0.221 C 
ATOM     20  N   LIG    1       24.301 -24.106   6.536  0.00  0.00    -0.307 N 
ATOM     21  C   LIG    1       24.088 -25.485   6.121  0.00  0.00    +0.131 C 
ATOM     22  C   LIG    1       23.111 -23.357   6.906  0.00  0.00    +0.131 C 
ATOM     23  O   LIG    1       26.588 -24.357   6.501  0.00  0.00    -0.275 OA
ENDBRANCH  18  19
ENDBRANCH   2  18
TORSDOF 3
ENDMDL
MODEL 2
REMARK VINA RESULT:      -7.0      2.065      4.621
REMARK  Name = *****
REMARK                            x       y       z     vdW  Elec       q    Type
REMARK                         _______ _______ _______ _____ _____    ______ ____
ROOT
ATOM      1  C   LIG    1       24.449 -22.803   5.386  0.00  0.00    +0.093 A 
ATOM      2  C   LIG    1       24.798 -23.288   6.644  0.00  0.00    +0.060 A 
ATOM      3  N   LIG    1       25.181 -24.607   6.416  0.00  0.00    -0.302 N 
ATOM      4  C   LIG    1       25.004 -24.851   5.059  0.00  0.00    +0.139 A 
ATOM      5  C   LIG    1       25.320 -26.152   4.576  0.00  0.00    +0.047 A 
ATOM      6  C   LIG    1       25.819 -27.077   5.416  0.00  0.00    +0.008 A 
ATOM      7  C   LIG    1       26.051 -26.784   6.827  0.00  0.00    -0.034 A 
ATOM      8  C   LIG    1       26.668 -27.860   7.665  0.00  0.00    +0.045 C 
ATOM      9  C   LIG    1       25.712 -25.565   7.290  0.00  0.00    +0.096 A 
ATOM     10  N   LIG    1       24.594 -23.780   4.424  0.00  0.00    -0.228 NA
ENDROOT
BRANCH   1  15
ATOM     11  C   LIG    1       22.792 -17.426   4.018  0.00  0.00    +0.044 C 
ATOM     12  C   LIG    1       23.218 -18.821   4.368  0.00  0.00    -0.050 A 
ATOM     13  C   LIG    1       24.446 -19.315   3.919  0.00  0.00    +0.004 A 
ATOM     14  C   LIG    1       24.865 -20.605   4.263  0.00  0.00    +0.010 A 
ATOM     15  C   LIG    1       24.042 -21.453   5.009  0.00  0.00    +0.002 A 
ATOM     16  C   LIG    1       22.802 -20.956   5.443  0.00  0.00    +0.010 A 
ATOM     17  C   LIG    1       22.392 -19.654   5.127  0.00  0.00    +0.004 A 
ENDBRANCH   1  15
BRANCH   2  18
ATOM     18  C   LIG    1       24.908 -22.648   7.998  0.00  0.00    +0.152 C 
BRANCH  18  19
ATOM     19  C   LIG    1       25.524 -21.243   7.948  0.00  0.00    +0.221 C 
ATOM     20  N   LIG    1       26.878 -21.164   7.608  0.00  0.00    -0.307 N 
ATOM     21  C   LIG    1       27.595 -19.928   7.886  0.00  0.00    +0.131 C 
ATOM     22  C   LIG    1       27.696 -22.323   7.290  0.00  0.00    +0.131 C 
ATOM     23  O   LIG    1       24.863 -20.230   8.209  0.00  0.00    -0.275 OA
ENDBRANCH  18  19
ENDBRANCH   2  18
TORSDOF 3
ENDMDL
MODEL 3
REMARK VINA RESULT:      -7.0      1.079      5.870
REMARK  Name = *****
REMARK                            x       y       z     vdW  Elec       q    Type
REMARK                         _______ _______ _______ _____ _____    ______ ____
ROOT
ATOM      1  C   LIG    1       26.597 -20.381   6.238  0.00  0.00    +0.093 A 
ATOM      2  C   LIG    1       25.426 -21.056   6.573  0.00  0.00    +0.060 A 
ATOM      3  N   LIG    1       24.485 -20.600   5.655  0.00  0.00    -0.302 N 
ATOM      4  C   LIG    1       25.122 -19.658   4.856  0.00  0.00    +0.139 A 
ATOM      5  C   LIG    1       24.354 -19.030   3.836  0.00  0.00    +0.047 A 
ATOM      6  C   LIG    1       23.073 -19.392   3.641  0.00  0.00    +0.008 A 
ATOM      7  C   LIG    1       22.438 -20.425   4.453  0.00  0.00    -0.034 A 
ATOM      8  C   LIG    1       21.029 -20.800   4.117  0.00  0.00    +0.045 C 
ATOM      9  C   LIG    1       23.155 -20.988   5.445  0.00  0.00    +0.096 A 
ATOM     10  N   LIG    1       26.389 -19.533   5.172  0.00  0.00    -0.228 NA
ENDROOT
BRANCH   1  15
ATOM     11  C   LIG    1       31.890 -20.804   8.550  0.00  0.00    +0.044 C 
ATOM     12  C   LIG    1       30.521 -20.698   7.947  0.00  0.00    -0.050 A 
ATOM     13  C   LIG    1       29.510 -21.583   8.332  0.00  0.00    +0.004 A 
ATOM     14  C   LIG    1       28.223 -21.475   7.796  0.00  0.00    +0.010 A 
ATOM     15  C   LIG    1       27.930 -20.522   6.817  0.00  0.00    +0.002 A 
ATOM     16  C   LIG    1       28.954 -19.645   6.421  0.00  0.00    +0.010 A 
ATOM     17  C   LIG    1       30.237 -19.731   6.979  0.00  0.00    +0.004 A 
ENDBRANCH   1  15
BRANCH   2  18
ATOM     18  C   LIG    1       25.111 -22.133   7.571  0.00  0.00    +0.152 C 
BRANCH  18  19
ATOM     19  C   LIG    1       25.264 -23.548   6.994  0.00  0.00    +0.221 C 
ATOM     20  N   LIG    1       24.084 -24.220   6.661  0.00  0.00    -0.307 N 
ATOM     21  C   LIG    1       24.136 -25.659   6.452  0.00  0.00    +0.131 C 
ATOM     22  C   LIG    1       22.758 -23.642   6.816  0.00  0.00    +0.131 C 
ATOM     23  O   LIG    1       26.373 -24.075   6.844  0.00  0.00    -0.275 OA
ENDBRANCH  18  19
ENDBRANCH   2  18
TORSDOF 3
ENDMDL
MODEL 4
REMARK VINA RESULT:      -6.9      1.402      2.072
REMARK  Name = *****
REMARK                            x       y       z     vdW  Elec       q    Type
REMARK                         _______ _______ _______ _____ _____    ______ ____
ROOT
ATOM      1  C   LIG    1       24.712 -20.278   5.441  0.00  0.00    +0.093 A 
ATOM      2  C   LIG    1       25.073 -21.077   6.524  0.00  0.00    +0.060 A 
ATOM      3  N   LIG    1       26.454 -20.938   6.615  0.00  0.00    -0.302 N 
ATOM      4  C   LIG    1       26.848 -20.107   5.572  0.00  0.00    +0.139 A 
ATOM      5  C   LIG    1       28.236 -19.821   5.444  0.00  0.00    +0.047 A 
ATOM      6  C   LIG    1       29.108 -20.308   6.346  0.00  0.00    +0.008 A 
ATOM      7  C   LIG    1       28.669 -21.132   7.468  0.00  0.00    -0.034 A 
ATOM      8  C   LIG    1       29.707 -21.573   8.450  0.00  0.00    +0.045 C 
ATOM      9  C   LIG    1       27.359 -21.436   7.562  0.00  0.00    +0.096 A 
ATOM     10  N   LIG    1       25.820 -19.683   4.878  0.00  0.00    -0.228 NA
ENDROOT
BRANCH   1  15
ATOM     11  C   LIG    1       19.473 -19.029   3.315  0.00  0.00    +0.044 C 
ATOM     12  C   LIG    1       20.828 -19.351   3.871  0.00  0.00    -0.050 A 
ATOM     13  C   LIG    1       21.132 -20.653   4.276  0.00  0.00    +0.004 A 
ATOM     14  C   LIG    1       22.402 -20.969   4.770  0.00  0.00    +0.010 A 
ATOM     15  C   LIG    1       23.377 -19.982   4.930  0.00  0.00    +0.002 A 
ATOM     16  C   LIG    1       23.060 -18.671   4.537  0.00  0.00    +0.010 A 
ATOM     17  C   LIG    1       21.800 -18.356   4.012  0.00  0.00    +0.004 A 
ENDBRANCH   1  15
BRANCH   2  18
ATOM     18  C   LIG    1       24.282 -21.866   7.527  0.00  0.00    +0.152 C 
BRANCH  18  19
ATOM     19  C   LIG    1       23.651 -23.132   6.931  0.00  0.00    +0.221 C 
ATOM     20  N   LIG    1       24.502 -24.224   6.735  0.00  0.00    -0.307 N 
ATOM     21  C   LIG    1       24.062 -25.304   5.864  0.00  0.00    +0.131 C 
ATOM     22  C   LIG    1       25.914 -24.215   7.083  0.00  0.00    +0.131 C 
ATOM     23  O   LIG    1       22.454 -23.182   6.623  0.00  0.00    -0.275 OA
ENDBRANCH  18  19
ENDBRANCH   2  18
TORSDOF 3
ENDMDL
MODEL 5
REMARK VINA RESULT:      -6.6      5.003      8.453
REMARK  Name = *****
REMARK                            x       y       z     vdW  Elec       q    Type
REMARK                         _______ _______ _______ _____ _____    ______ ____
ROOT
ATOM      1  C   LIG    1       25.085 -27.907   6.293  0.00  0.00    +0.093 A 
ATOM      2  C   LIG    1       24.956 -28.881   7.279  0.00  0.00    +0.060 A 
ATOM      3  N   LIG    1       25.216 -30.080   6.622  0.00  0.00    -0.302 N 
ATOM      4  C   LIG    1       25.443 -29.769   5.286  0.00  0.00    +0.139 A 
ATOM      5  C   LIG    1       25.721 -30.843   4.396  0.00  0.00    +0.047 A 
ATOM      6  C   LIG    1       25.808 -32.101   4.867  0.00  0.00    +0.008 A 
ATOM      7  C   LIG    1       25.623 -32.401   6.284  0.00  0.00    -0.034 A 
ATOM      8  C   LIG    1       25.802 -33.822   6.718  0.00  0.00    +0.045 C 
ATOM      9  C   LIG    1       25.318 -31.387   7.117  0.00  0.00    +0.096 A 
ATOM     10  N   LIG    1       25.394 -28.475   5.076  0.00  0.00    -0.228 NA
ENDROOT
BRANCH   1  15
ATOM     11  C   LIG    1       24.615 -22.166   6.893  0.00  0.00    +0.044 C 
ATOM     12  C   LIG    1       24.737 -23.652   6.732  0.00  0.00    -0.050 A 
ATOM     13  C   LIG    1       25.972 -24.281   6.910  0.00  0.00    +0.004 A 
ATOM     14  C   LIG    1       26.092 -25.669   6.789  0.00  0.00    +0.010 A 
ATOM     15  C   LIG    1       24.995 -26.456   6.426  0.00  0.00    +0.002 A 
ATOM     16  C   LIG    1       23.759 -25.817   6.232  0.00  0.00    +0.010 A 
ATOM     17  C   LIG    1       23.629 -24.429   6.383  0.00  0.00    +0.004 A 
ENDBRANCH   1  15
BRANCH   2  18
ATOM     18  C   LIG    1       24.719 -28.819   8.761  0.00  0.00    +0.152 C 
BRANCH  18  19
ATOM     19  C   LIG    1       26.017 -28.887   9.578  0.00  0.00    +0.221 C 
ATOM     20  N   LIG    1       25.913 -29.389  10.879  0.00  0.00    -0.307 N 
ATOM     21  C   LIG    1       27.009 -29.152  11.807  0.00  0.00    +0.131 C 
ATOM     22  C   LIG    1       24.666 -29.855  11.464  0.00  0.00    +0.131 C 
ATOM     23  O   LIG    1       27.099 -28.503   9.118  0.00  0.00    -0.275 OA
ENDBRANCH  18  19
ENDBRANCH   2  18
TORSDOF 3
ENDMDL
MODEL 6
REMARK VINA RESULT:      -6.6      1.984      6.542
REMARK  Name = *****
REMARK                            x       y       z     vdW  Elec       q    Type
REMARK                         _______ _______ _______ _____ _____    ______ ____
ROOT
ATOM      1  C   LIG    1       24.272 -22.021   5.189  0.00  0.00    +0.093 A 
ATOM      2  C   LIG    1       24.970 -20.834   4.978  0.00  0.00    +0.060 A 
ATOM      3  N   LIG    1       23.982 -19.890   4.715  0.00  0.00    -0.302 N 
ATOM      4  C   LIG    1       22.765 -20.560   4.741  0.00  0.00    +0.139 A 
ATOM      5  C   LIG    1       21.588 -19.802   4.485  0.00  0.00    +0.047 A 
ATOM      6  C   LIG    1       21.676 -18.475   4.279  0.00  0.00    +0.008 A 
ATOM      7  C   LIG    1       22.959 -17.779   4.311  0.00  0.00    -0.034 A 
ATOM      8  C   LIG    1       22.944 -16.293   4.133  0.00  0.00    +0.045 C 
ATOM      9  C   LIG    1       24.075 -18.506   4.513  0.00  0.00    +0.096 A 
ATOM     10  N   LIG    1       22.916 -21.826   5.049  0.00  0.00    -0.228 NA
ENDROOT
BRANCH   1  15
ATOM     11  C   LIG    1       26.262 -27.200   6.850  0.00  0.00    +0.044 C 
ATOM     12  C   LIG    1       25.752 -25.856   6.418  0.00  0.00    -0.050 A 
ATOM     13  C   LIG    1       25.328 -25.653   5.102  0.00  0.00    +0.004 A 
ATOM     14  C   LIG    1       24.825 -24.412   4.698  0.00  0.00    +0.010 A 
ATOM     15  C   LIG    1       24.792 -23.328   5.579  0.00  0.00    +0.002 A 
ATOM     16  C   LIG    1       25.235 -23.534   6.896  0.00  0.00    +0.010 A 
ATOM     17  C   LIG    1       25.711 -24.784   7.314  0.00  0.00    +0.004 A 
ENDBRANCH   1  15
BRANCH   2  18
ATOM     18  C   LIG    1       26.421 -20.462   5.087  0.00  0.00    +0.152 C 
BRANCH  18  19
ATOM     19  C   LIG    1       26.865 -20.198   6.532  0.00  0.00    +0.221 C 
ATOM     20  N   LIG    1       28.206 -19.854   6.723  0.00  0.00    -0.307 N 
ATOM     21  C   LIG    1       28.764 -19.940   8.065  0.00  0.00    +0.131 C 
ATOM     22  C   LIG    1       29.164 -19.719   5.637  0.00  0.00    +0.131 C 
ATOM     23  O   LIG    1       26.082 -20.300   7.485  0.00  0.00    -0.275 OA
ENDBRANCH  18  19
ENDBRANCH   2  18
TORSDOF 3
ENDMDL
MODEL 7
REMARK VINA RESULT:      -6.6      6.974     10.533
REMARK  Name = *****
REMARK                            x       y       z     vdW  Elec       q    Type
REMARK                         _______ _______ _______ _____ _____    ______ ____
ROOT
ATOM      1  C   LIG    1       26.208 -30.205   9.742  0.00  0.00    +0.093 A 
ATOM      2  C   LIG    1       25.670 -30.180   8.457  0.00  0.00    +0.060 A 
ATOM      3  N   LIG    1       26.111 -31.362   7.871  0.00  0.00    -0.302 N 
ATOM      4  C   LIG    1       26.913 -32.004   8.808  0.00  0.00    +0.139 A 
ATOM      5  C   LIG    1       27.500 -33.245   8.434  0.00  0.00    +0.047 A 
ATOM      6  C   LIG    1       27.230 -33.781   7.230  0.00  0.00    +0.008 A 
ATOM      7  C   LIG    1       26.340 -33.119   6.280  0.00  0.00    -0.034 A 
ATOM      8  C   LIG    1       26.054 -33.825   4.993  0.00  0.00    +0.045 C 
ATOM      9  C   LIG    1       25.819 -31.924   6.621  0.00  0.00    +0.096 A 
ATOM     10  N   LIG    1       26.960 -31.342   9.939  0.00  0.00    -0.228 NA
ENDROOT
BRANCH   1  15
ATOM     11  C   LIG    1       25.471 -26.329  13.982  0.00  0.00    +0.044 C 
ATOM     12  C   LIG    1       25.665 -27.337  12.887  0.00  0.00    -0.050 A 
ATOM     13  C   LIG    1       24.717 -28.343  12.679  0.00  0.00    +0.004 A 
ATOM     14  C   LIG    1       24.875 -29.270  11.644  0.00  0.00    +0.010 A 
ATOM     15  C   LIG    1       26.012 -29.253  10.832  0.00  0.00    +0.002 A 
ATOM     16  C   LIG    1       26.970 -28.250  11.056  0.00  0.00    +0.010 A 
ATOM     17  C   LIG    1       26.800 -27.300  12.072  0.00  0.00    +0.004 A 
ENDBRANCH   1  15
BRANCH   2  18
ATOM     18  C   LIG    1       24.728 -29.245   7.756  0.00  0.00    +0.152 C 
BRANCH  18  19
ATOM     19  C   LIG    1       25.442 -28.055   7.100  0.00  0.00    +0.221 C 
ATOM     20  N   LIG    1       25.251 -27.889   5.725  0.00  0.00    -0.307 N 
ATOM     21  C   LIG    1       26.161 -27.019   4.994  0.00  0.00    +0.131 C 
ATOM     22  C   LIG    1       24.411 -28.760   4.919  0.00  0.00    +0.131 C 
ATOM     23  O   LIG    1       26.164 -27.288   7.750  0.00  0.00    -0.275 OA
ENDBRANCH  18  19
ENDBRANCH   2  18
TORSDOF 3
ENDMDL
MODEL 8
REMARK VINA RESULT:      -6.3      6.300     10.603
REMARK  Name = *****
REMARK                            x       y       z     vdW  Elec       q    Type
REMARK                         _______ _______ _______ _____ _____    ______ ____
ROOT
ATOM      1  C   LIG    1       24.981 -30.741   8.771  0.00  0.00    +0.093 A 
ATOM      2  C   LIG    1       25.000 -30.218   7.480  0.00  0.00    +0.060 A 
ATOM      3  N   LIG    1       25.547 -31.233   6.701  0.00  0.00    -0.302 N 
ATOM      4  C   LIG    1       25.861 -32.279   7.560  0.00  0.00    +0.139 A 
ATOM      5  C   LIG    1       26.452 -33.443   6.994  0.00  0.00    +0.047 A 
ATOM      6  C   LIG    1       26.642 -33.521   5.664  0.00  0.00    +0.008 A 
ATOM      7  C   LIG    1       26.253 -32.434   4.771  0.00  0.00    -0.034 A 
ATOM      8  C   LIG    1       26.448 -32.643   3.302  0.00  0.00    +0.045 C 
ATOM      9  C   LIG    1       25.732 -31.317   5.314  0.00  0.00    +0.096 A 
ATOM     10  N   LIG    1       25.506 -32.014   8.794  0.00  0.00    -0.228 NA
ENDROOT
BRANCH   1  15
ATOM     11  C   LIG    1       22.773 -28.487  13.627  0.00  0.00    +0.044 C 
ATOM     12  C   LIG    1       23.343 -29.066  12.366  0.00  0.00    -0.050 A 
ATOM     13  C   LIG    1       24.703 -28.921  12.077  0.00  0.00    +0.004 A 
ATOM     14  C   LIG    1       25.250 -29.481  10.918  0.00  0.00    +0.010 A 
ATOM     15  C   LIG    1       24.443 -30.144   9.990  0.00  0.00    +0.002 A 
ATOM     16  C   LIG    1       23.074 -30.272  10.278  0.00  0.00    +0.010 A 
ATOM     17  C   LIG    1       22.528 -29.739  11.453  0.00  0.00    +0.004 A 
ENDBRANCH   1  15
BRANCH   2  18
ATOM     18  C   LIG    1       24.486 -28.940   6.881  0.00  0.00    +0.152 C 
BRANCH  18  19
ATOM     19  C   LIG    1       25.389 -27.735   7.176  0.00  0.00    +0.221 C 
ATOM     20  N   LIG    1       25.165 -26.582   6.416  0.00  0.00    -0.307 N 
ATOM     21  C   LIG    1       26.192 -25.551   6.393  0.00  0.00    +0.131 C 
ATOM     22  C   LIG    1       24.127 -26.477   5.402  0.00  0.00    +0.131 C 
ATOM     23  O   LIG    1       26.282 -27.781   8.031  0.00  0.00    -0.275 OA
ENDBRANCH  18  19
ENDBRANCH   2  18
TORSDOF 3
ENDMDL
MODEL 9
REMARK VINA RESULT:      -6.0      6.981     11.711
REMARK  Name = *****
REMARK                            x       y       z     vdW  Elec       q    Type
REMARK                         _______ _______ _______ _____ _____    ______ ____
ROOT
ATOM      1  C   LIG    1       24.462 -32.164   7.260  0.00  0.00    +0.093 A 
ATOM      2  C   LIG    1       24.392 -30.913   7.869  0.00  0.00    +0.060 A 
ATOM      3  N   LIG    1       23.490 -31.085   8.914  0.00  0.00    -0.302 N 
ATOM      4  C   LIG    1       23.042 -32.399   8.853  0.00  0.00    +0.139 A 
ATOM      5  C   LIG    1       22.090 -32.818   9.823  0.00  0.00    +0.047 A 
ATOM      6  C   LIG    1       21.693 -31.967  10.787  0.00  0.00    +0.008 A 
ATOM      7  C   LIG    1       22.217 -30.607  10.869  0.00  0.00    -0.034 A 
ATOM      8  C   LIG    1       21.761 -29.758  12.014  0.00  0.00    +0.045 C 
ATOM      9  C   LIG    1       23.087 -30.200   9.924  0.00  0.00    +0.096 A 
ATOM     10  N   LIG    1       23.631 -33.065   7.889  0.00  0.00    -0.228 NA
ENDROOT
BRANCH   1  15
ATOM     11  C   LIG    1       27.773 -33.773   2.789  0.00  0.00    +0.044 C 
ATOM     12  C   LIG    1       26.914 -33.362   3.948  0.00  0.00    -0.050 A 
ATOM     13  C   LIG    1       27.467 -33.235   5.225  0.00  0.00    +0.004 A 
ATOM     14  C   LIG    1       26.680 -32.826   6.307  0.00  0.00    +0.010 A 
ATOM     15  C   LIG    1       25.311 -32.594   6.153  0.00  0.00    +0.002 A 
ATOM     16  C   LIG    1       24.757 -32.739   4.870  0.00  0.00    +0.010 A 
ATOM     17  C   LIG    1       25.548 -33.119   3.778  0.00  0.00    +0.004 A 
ENDBRANCH   1  15
BRANCH   2  18
ATOM     18  C   LIG    1       25.129 -29.623   7.654  0.00  0.00    +0.152 C 
BRANCH  18  19
ATOM     19  C   LIG    1       24.530 -28.772   6.524  0.00  0.00    +0.221 C 
ATOM     20  N   LIG    1       25.043 -27.481   6.373  0.00  0.00    -0.307 N 
ATOM     21  C   LIG    1       24.293 -26.521   5.577  0.00  0.00    +0.131 C 
ATOM     22  C   LIG    1       26.104 -26.934   7.204  0.00  0.00    +0.131 C 
ATOM     23  O   LIG    1       23.628 -29.200   5.793  0.00  0.00    -0.275 OA
ENDBRANCH  18  19
ENDBRANCH   2  18
TORSDOF 3
ENDMDL
