MODEL 1
REMARK VINA RESULT:      -8.9      0.000      0.000
REMARK  Name = *****
REMARK                            x       y       z     vdW  Elec       q    Type
REMARK                         _______ _______ _______ _____ _____    ______ ____
ROOT
ATOM      1  C   LIG    1       24.584 -21.623   7.050  0.00  0.00    +0.205 C 
ENDROOT
BRANCH   1   2
ATOM      2  C   LIG    1       24.182 -20.682   5.921  0.00  0.00    -0.007 A 
ATOM      3  C   LIG    1       25.009 -20.408   4.821  0.00  0.00    +0.007 A 
ATOM      4  C   LIG    1       24.583 -19.557   3.793  0.00  0.00    +0.000 A 
ATOM      5  C   LIG    1       23.315 -18.981   3.835  0.00  0.00    +0.000 A 
ATOM      6  C   LIG    1       22.469 -19.260   4.901  0.00  0.00    +0.000 A 
ATOM      7  C   LIG    1       22.899 -20.100   5.931  0.00  0.00    +0.007 A 
ENDBRANCH   1   2
BRANCH   1   8
ATOM      8  C   LIG    1       25.293 -20.994   8.273  0.00  0.00    +0.064 C 
BRANCH   8   9
ATOM      9  C   LIG    1       26.682 -20.406   7.998  0.00  0.00    +0.084 C 
BRANCH   9  11
ATOM     10  C   LIG    1       28.872 -21.289   7.432  0.00  0.00    +0.101 C 
ATOM     11  N   LIG    1       27.708 -21.414   8.301  0.00  0.00    -0.319 NA
ATOM     12  H   LIG    1       28.008 -21.320   9.272  0.00  0.00    +0.122 HD
ENDBRANCH   9  11
ENDBRANCH   8   9
ENDBRANCH   1   8
BRANCH   1  13
ATOM     13  O   LIG    1       25.533 -22.561   6.498  0.00  0.00    -0.484 OA
BRANCH  13  14
ATOM     14  C   LIG    1       25.224 -23.889   6.453  0.00  0.00    +0.121 A 
ATOM     15  C   LIG    1       23.950 -24.416   6.241  0.00  0.00    +0.046 A 
ATOM     16  C   LIG    1       23.772 -25.798   6.113  0.00  0.00    +0.016 A 
ATOM     17  C   LIG    1       24.862 -26.675   6.174  0.00  0.00    +0.055 A 
ATOM     18  C   LIG    1       26.139 -26.141   6.404  0.00  0.00    +0.016 A 
ATOM     19  C   LIG    1       26.310 -24.758   6.537  0.00  0.00    +0.046 A 
BRANCH  17  20
ATOM     20  C   LIG    1       24.654 -28.155   5.960  0.00  0.00    +0.417 C 
ATOM     21  F   LIG    1       25.798 -28.786   5.570  0.00  0.00    -0.166 F 
ATOM     22  F   LIG    1       23.736 -28.418   4.989  0.00  0.00    -0.166 F 
ATOM     23  F   LIG    1       24.224 -28.816   7.070  0.00  0.00    -0.166 F 
ENDBRANCH  17  20
ENDBRANCH  13  14
ENDBRANCH   1  13
TORSDOF 7
ENDMDL
MODEL 2
REMARK VINA RESULT:      -8.9      0.132      1.033
REMARK  Name = *****
REMARK                            x       y       z     vdW  Elec       q    Type
REMARK                         _______ _______ _______ _____ _____    ______ ____
ROOT
ATOM      1  C   LIG    1       24.579 -21.498   7.075  0.00  0.00    +0.205 C 
ENDROOT
BRANCH   1   2
ATOM      2  C   LIG    1       24.104 -20.624   5.921  0.00  0.00    -0.007 A 
ATOM      3  C   LIG    1       22.842 -20.012   5.892  0.00  0.00    +0.007 A 
ATOM      4  C   LIG    1       22.463 -19.193   4.820  0.00  0.00    +0.000 A 
ATOM      5  C   LIG    1       23.345 -18.953   3.770  0.00  0.00    +0.000 A 
ATOM      6  C   LIG    1       24.612 -19.526   3.791  0.00  0.00    +0.000 A 
ATOM      7  C   LIG    1       24.984 -20.352   4.855  0.00  0.00    +0.007 A 
ENDBRANCH   1   2
BRANCH   1   8
ATOM      8  C   LIG    1       25.329 -20.793   8.231  0.00  0.00    +0.064 C 
BRANCH   8   9
ATOM      9  C   LIG    1       26.763 -20.355   7.914  0.00  0.00    +0.084 C 
BRANCH   9  11
ATOM     10  C   LIG    1       28.982 -21.301   7.626  0.00  0.00    +0.101 C 
ATOM     11  N   LIG    1       27.698 -21.420   8.308  0.00  0.00    -0.319 NA
ATOM     12  H   LIG    1       27.853 -21.387   9.315  0.00  0.00    +0.122 HD
ENDBRANCH   9  11
ENDBRANCH   8   9
ENDBRANCH   1   8
BRANCH   1  13
ATOM     13  O   LIG    1       25.523 -22.443   6.528  0.00  0.00    -0.484 OA
BRANCH  13  14
ATOM     14  C   LIG    1       25.208 -23.770   6.491  0.00  0.00    +0.121 A 
ATOM     15  C   LIG    1       23.938 -24.293   6.247  0.00  0.00    +0.046 A 
ATOM     16  C   LIG    1       23.757 -25.676   6.133  0.00  0.00    +0.016 A 
ATOM     17  C   LIG    1       24.839 -26.558   6.238  0.00  0.00    +0.055 A 
ATOM     18  C   LIG    1       26.112 -26.027   6.500  0.00  0.00    +0.016 A 
ATOM     19  C   LIG    1       26.286 -24.644   6.619  0.00  0.00    +0.046 A 
BRANCH  17  20
ATOM     20  C   LIG    1       24.630 -28.039   6.038  0.00  0.00    +0.417 C 
ATOM     21  F   LIG    1       25.763 -28.669   5.616  0.00  0.00    -0.166 F 
ATOM     22  F   LIG    1       23.683 -28.310   5.097  0.00  0.00    -0.166 F 
ATOM     23  F   LIG    1       24.238 -28.697   7.164  0.00  0.00    -0.166 F 
ENDBRANCH  17  20
ENDBRANCH  13  14
ENDBRANCH   1  13
TORSDOF 7
ENDMDL
MODEL 3
REMARK VINA RESULT:      -8.7      4.582      7.070
REMARK  Name = *****
REMARK                            x       y       z     vdW  Elec       q    Type
REMARK                         _______ _______ _______ _____ _____    ______ ____
ROOT
ATOM      1  C   LIG    1       24.563 -21.812   7.201  0.00  0.00    +0.205 C 
ENDROOT
BRANCH   1   2
ATOM      2  C   LIG    1       24.675 -23.305   6.917  0.00  0.00    -0.007 A 
ATOM      3  C   LIG    1       23.576 -24.101   6.560  0.00  0.00    +0.007 A 
ATOM      4  C   LIG    1       23.735 -25.465   6.281  0.00  0.00    +0.000 A 
ATOM      5  C   LIG    1       24.996 -26.053   6.332  0.00  0.00    +0.000 A 
ATOM      6  C   LIG    1       26.103 -25.278   6.656  0.00  0.00    +0.000 A 
ATOM      7  C   LIG    1       25.942 -23.920   6.945  0.00  0.00    +0.007 A 
ENDBRANCH   1   2
BRANCH   1   8
ATOM      8  C   LIG    1       23.172 -21.161   7.010  0.00  0.00    +0.064 C 
BRANCH   8   9
ATOM      9  C   LIG    1       23.023 -20.280   5.765  0.00  0.00    +0.084 C 
BRANCH   9  11
ATOM     10  C   LIG    1       23.928 -20.529   3.524  0.00  0.00    +0.101 C 
ATOM     11  N   LIG    1       23.089 -21.121   4.560  0.00  0.00    -0.319 NA
ATOM     12  H   LIG    1       23.460 -22.040   4.802  0.00  0.00    +0.122 HD
ENDBRANCH   9  11
ENDBRANCH   8   9
ENDBRANCH   1   8
BRANCH   1  13
ATOM     13  O   LIG    1       25.431 -21.140   6.264  0.00  0.00    -0.484 OA
BRANCH  13  14
ATOM     14  C   LIG    1       26.601 -20.591   6.700  0.00  0.00    +0.121 A 
ATOM     15  C   LIG    1       27.040 -20.567   8.024  0.00  0.00    +0.046 A 
ATOM     16  C   LIG    1       28.308 -20.064   8.337  0.00  0.00    +0.016 A 
ATOM     17  C   LIG    1       29.167 -19.597   7.335  0.00  0.00    +0.055 A 
ATOM     18  C   LIG    1       28.715 -19.608   6.007  0.00  0.00    +0.016 A 
ATOM     19  C   LIG    1       27.443 -20.106   5.700  0.00  0.00    +0.046 A 
BRANCH  17  20
ATOM     20  C   LIG    1       30.558 -19.129   7.689  0.00  0.00    +0.417 C 
ATOM     21  F   LIG    1       31.040 -19.740   8.808  0.00  0.00    -0.166 F 
ATOM     22  F   LIG    1       30.609 -17.792   7.945  0.00  0.00    -0.166 F 
ATOM     23  F   LIG    1       31.480 -19.359   6.714  0.00  0.00    -0.166 F 
ENDBRANCH  17  20
ENDBRANCH  13  14
ENDBRANCH   1  13
TORSDOF 7
ENDMDL
MODEL 4
REMARK VINA RESULT:      -8.6      4.572      7.013
REMARK  Name = *****
REMARK                            x       y       z     vdW  Elec       q    Type
REMARK                         _______ _______ _______ _____ _____    ______ ____
ROOT
ATOM      1  C   LIG    1       24.592 -21.887   7.197  0.00  0.00    +0.205 C 
ENDROOT
BRANCH   1   2
ATOM      2  C   LIG    1       24.744 -23.366   6.862  0.00  0.00    -0.007 A 
ATOM      3  C   LIG    1       25.973 -24.041   6.917  0.00  0.00    +0.007 A 
ATOM      4  C   LIG    1       26.056 -25.409   6.628  0.00  0.00    +0.000 A 
ATOM      5  C   LIG    1       24.912 -26.132   6.300  0.00  0.00    +0.000 A 
ATOM      6  C   LIG    1       23.680 -25.489   6.266  0.00  0.00    +0.000 A 
ATOM      7  C   LIG    1       23.599 -24.122   6.544  0.00  0.00    +0.007 A 
ENDBRANCH   1   2
BRANCH   1   8
ATOM      8  C   LIG    1       23.178 -21.274   7.054  0.00  0.00    +0.064 C 
BRANCH   8   9
ATOM      9  C   LIG    1       22.992 -20.319   5.869  0.00  0.00    +0.084 C 
BRANCH   9  11
ATOM     10  C   LIG    1       23.874 -20.381   3.607  0.00  0.00    +0.101 C 
ATOM     11  N   LIG    1       23.079 -21.077   4.612  0.00  0.00    -0.319 NA
ATOM     12  H   LIG    1       23.495 -21.991   4.789  0.00  0.00    +0.122 HD
ENDBRANCH   9  11
ENDBRANCH   8   9
ENDBRANCH   1   8
BRANCH   1  13
ATOM     13  O   LIG    1       25.421 -21.158   6.268  0.00  0.00    -0.484 OA
BRANCH  13  14
ATOM     14  C   LIG    1       26.596 -20.611   6.694  0.00  0.00    +0.121 A 
ATOM     15  C   LIG    1       27.069 -20.632   8.006  0.00  0.00    +0.046 A 
ATOM     16  C   LIG    1       28.339 -20.126   8.305  0.00  0.00    +0.016 A 
ATOM     17  C   LIG    1       29.166 -19.610   7.300  0.00  0.00    +0.055 A 
ATOM     18  C   LIG    1       28.678 -19.576   5.984  0.00  0.00    +0.016 A 
ATOM     19  C   LIG    1       27.405 -20.078   5.692  0.00  0.00    +0.046 A 
BRANCH  17  20
ATOM     20  C   LIG    1       30.560 -19.139   7.636  0.00  0.00    +0.417 C 
ATOM     21  F   LIG    1       31.072 -19.774   8.727  0.00  0.00    -0.166 F 
ATOM     22  F   LIG    1       30.606 -17.809   7.925  0.00  0.00    -0.166 F 
ATOM     23  F   LIG    1       31.463 -19.336   6.634  0.00  0.00    -0.166 F 
ENDBRANCH  17  20
ENDBRANCH  13  14
ENDBRANCH   1  13
TORSDOF 7
ENDMDL
MODEL 5
REMARK VINA RESULT:      -8.5      4.343      6.157
REMARK  Name = *****
REMARK                            x       y       z     vdW  Elec       q    Type
REMARK                         _______ _______ _______ _____ _____    ______ ____
ROOT
ATOM      1  C   LIG    1       24.603 -22.380   5.974  0.00  0.00    +0.205 C 
ENDROOT
BRANCH   1   2
ATOM      2  C   LIG    1       23.950 -21.167   5.322  0.00  0.00    -0.007 A 
ATOM      3  C   LIG    1       22.990 -20.374   5.968  0.00  0.00    +0.007 A 
ATOM      4  C   LIG    1       22.440 -19.251   5.337  0.00  0.00    +0.000 A 
ATOM      5  C   LIG    1       22.855 -18.887   4.059  0.00  0.00    +0.000 A 
ATOM      6  C   LIG    1       23.826 -19.641   3.410  0.00  0.00    +0.000 A 
ATOM      7  C   LIG    1       24.365 -20.768   4.036  0.00  0.00    +0.007 A 
ENDBRANCH   1   2
BRANCH   1   8
ATOM      8  C   LIG    1       23.660 -23.491   6.496  0.00  0.00    +0.064 C 
BRANCH   8   9
ATOM      9  C   LIG    1       24.204 -24.920   6.387  0.00  0.00    +0.084 C 
BRANCH   9  11
ATOM     10  C   LIG    1       26.268 -26.160   6.066  0.00  0.00    +0.101 C 
ATOM     11  N   LIG    1       25.591 -24.880   5.898  0.00  0.00    -0.319 NA
ATOM     12  H   LIG    1       25.600 -24.626   4.910  0.00  0.00    +0.122 HD
ENDBRANCH   9  11
ENDBRANCH   8   9
ENDBRANCH   1   8
BRANCH   1  13
ATOM     13  O   LIG    1       25.311 -21.903   7.137  0.00  0.00    -0.484 OA
BRANCH  13  14
ATOM     14  C   LIG    1       26.543 -21.336   6.993  0.00  0.00    +0.121 A 
ATOM     15  C   LIG    1       26.875 -20.343   6.070  0.00  0.00    +0.046 A 
ATOM     16  C   LIG    1       28.149 -19.765   6.085  0.00  0.00    +0.016 A 
ATOM     17  C   LIG    1       29.106 -20.150   7.031  0.00  0.00    +0.055 A 
ATOM     18  C   LIG    1       28.774 -21.161   7.946  0.00  0.00    +0.016 A 
ATOM     19  C   LIG    1       27.500 -21.740   7.924  0.00  0.00    +0.046 A 
BRANCH  17  20
ATOM     20  C   LIG    1       30.448 -19.460   7.073  0.00  0.00    +0.417 C 
ATOM     21  F   LIG    1       31.419 -20.249   7.613  0.00  0.00    -0.166 F 
ATOM     22  F   LIG    1       30.427 -18.326   7.828  0.00  0.00    -0.166 F 
ATOM     23  F   LIG    1       30.912 -19.085   5.849  0.00  0.00    -0.166 F 
ENDBRANCH  17  20
ENDBRANCH  13  14
ENDBRANCH   1  13
TORSDOF 7
ENDMDL
MODEL 6
REMARK VINA RESULT:      -8.4      1.848      3.562
REMARK  Name = *****
REMARK                            x       y       z     vdW  Elec       q    Type
REMARK                         _______ _______ _______ _____ _____    ______ ____
ROOT
ATOM      1  C   LIG    1       24.775 -21.324   6.293  0.00  0.00    +0.205 C 
ENDROOT
BRANCH   1   2
ATOM      2  C   LIG    1       26.146 -20.705   6.537  0.00  0.00    -0.007 A 
ATOM      3  C   LIG    1       26.759 -20.676   7.798  0.00  0.00    +0.007 A 
ATOM      4  C   LIG    1       28.035 -20.121   7.966  0.00  0.00    +0.000 A 
ATOM      5  C   LIG    1       28.728 -19.605   6.874  0.00  0.00    +0.000 A 
ATOM      6  C   LIG    1       28.151 -19.648   5.611  0.00  0.00    +0.000 A 
ATOM      7  C   LIG    1       26.874 -20.192   5.447  0.00  0.00    +0.007 A 
ENDBRANCH   1   2
BRANCH   1   8
ATOM      8  C   LIG    1       23.547 -20.389   6.416  0.00  0.00    +0.064 C 
BRANCH   8   9
ATOM      9  C   LIG    1       22.515 -20.506   5.288  0.00  0.00    +0.084 C 
BRANCH   9  11
ATOM     10  C   LIG    1       23.528 -18.911   3.762  0.00  0.00    +0.101 C 
ATOM     11  N   LIG    1       22.380 -19.207   4.612  0.00  0.00    -0.319 NA
ATOM     12  H   LIG    1       21.535 -19.202   4.041  0.00  0.00    +0.122 HD
ENDBRANCH   9  11
ENDBRANCH   8   9
ENDBRANCH   1   8
BRANCH   1  13
ATOM     13  O   LIG    1       24.584 -22.337   7.304  0.00  0.00    -0.484 OA
BRANCH  13  14
ATOM     14  C   LIG    1       24.651 -23.656   6.961  0.00  0.00    +0.121 A 
ATOM     15  C   LIG    1       23.587 -24.423   6.485  0.00  0.00    +0.046 A 
ATOM     16  C   LIG    1       23.801 -25.742   6.069  0.00  0.00    +0.016 A 
ATOM     17  C   LIG    1       25.080 -26.311   6.100  0.00  0.00    +0.055 A 
ATOM     18  C   LIG    1       26.143 -25.541   6.595  0.00  0.00    +0.016 A 
ATOM     19  C   LIG    1       25.923 -24.224   7.016  0.00  0.00    +0.046 A 
BRANCH  17  20
ATOM     20  C   LIG    1       25.298 -27.710   5.577  0.00  0.00    +0.417 C 
ATOM     21  F   LIG    1       25.494 -28.613   6.579  0.00  0.00    -0.166 F 
ATOM     22  F   LIG    1       26.394 -27.802   4.774  0.00  0.00    -0.166 F 
ATOM     23  F   LIG    1       24.255 -28.191   4.843  0.00  0.00    -0.166 F 
ENDBRANCH  17  20
ENDBRANCH  13  14
ENDBRANCH   1  13
TORSDOF 7
ENDMDL
MODEL 7
REMARK VINA RESULT:      -8.3      4.510      7.009
REMARK  Name = *****
REMARK                            x       y       z     vdW  Elec       q    Type
REMARK                         _______ _______ _______ _____ _____    ______ ____
ROOT
ATOM      1  C   LIG    1       24.926 -22.480   7.272  0.00  0.00    +0.205 C 
ENDROOT
BRANCH   1   2
ATOM      2  C   LIG    1       24.927 -23.929   6.803  0.00  0.00    -0.007 A 
ATOM      3  C   LIG    1       23.768 -24.600   6.384  0.00  0.00    +0.007 A 
ATOM      4  C   LIG    1       23.825 -25.925   5.934  0.00  0.00    +0.000 A 
ATOM      5  C   LIG    1       25.044 -26.597   5.874  0.00  0.00    +0.000 A 
ATOM      6  C   LIG    1       26.209 -25.944   6.259  0.00  0.00    +0.000 A 
ATOM      7  C   LIG    1       26.149 -24.626   6.718  0.00  0.00    +0.007 A 
ENDBRANCH   1   2
BRANCH   1   8
ATOM      8  C   LIG    1       23.547 -21.819   7.516  0.00  0.00    +0.064 C 
BRANCH   8   9
ATOM      9  C   LIG    1       23.266 -20.559   6.690  0.00  0.00    +0.084 C 
BRANCH   9  11
ATOM     10  C   LIG    1       23.294 -19.900   4.352  0.00  0.00    +0.101 C 
ATOM     11  N   LIG    1       22.940 -20.943   5.308  0.00  0.00    -0.319 NA
ATOM     12  H   LIG    1       23.437 -21.800   5.063  0.00  0.00    +0.122 HD
ENDBRANCH   9  11
ENDBRANCH   8   9
ENDBRANCH   1   8
BRANCH   1  13
ATOM     13  O   LIG    1       25.544 -21.699   6.227  0.00  0.00    -0.484 OA
BRANCH  13  14
ATOM     14  C   LIG    1       26.765 -21.131   6.439  0.00  0.00    +0.121 A 
ATOM     15  C   LIG    1       27.329 -20.112   5.669  0.00  0.00    +0.046 A 
ATOM     16  C   LIG    1       28.548 -19.538   6.046  0.00  0.00    +0.016 A 
ATOM     17  C   LIG    1       29.215 -19.953   7.204  0.00  0.00    +0.055 A 
ATOM     18  C   LIG    1       28.653 -20.989   7.965  0.00  0.00    +0.016 A 
ATOM     19  C   LIG    1       27.437 -21.564   7.581  0.00  0.00    +0.046 A 
BRANCH  17  20
ATOM     20  C   LIG    1       30.491 -19.267   7.628  0.00  0.00    +0.417 C 
ATOM     21  F   LIG    1       30.312 -17.935   7.853  0.00  0.00    -0.166 F 
ATOM     22  F   LIG    1       31.470 -19.356   6.686  0.00  0.00    -0.166 F 
ATOM     23  F   LIG    1       31.030 -19.768   8.775  0.00  0.00    -0.166 F 
ENDBRANCH  17  20
ENDBRANCH  13  14
ENDBRANCH   1  13
TORSDOF 7
ENDMDL
MODEL 8
REMARK VINA RESULT:      -8.0      1.160      1.819
REMARK  Name = *****
REMARK                            x       y       z     vdW  Elec       q    Type
REMARK                         _______ _______ _______ _____ _____    ______ ____
ROOT
ATOM      1  C   LIG    1       25.267 -20.901   7.384  0.00  0.00    +0.205 C 
ENDROOT
BRANCH   1   2
ATOM      2  C   LIG    1       24.577 -20.426   6.112  0.00  0.00    -0.007 A 
ATOM      3  C   LIG    1       25.245 -20.280   4.887  0.00  0.00    +0.007 A 
ATOM      4  C   LIG    1       24.559 -19.867   3.737  0.00  0.00    +0.000 A 
ATOM      5  C   LIG    1       23.190 -19.615   3.785  0.00  0.00    +0.000 A 
ATOM      6  C   LIG    1       22.502 -19.780   4.982  0.00  0.00    +0.000 A 
ATOM      7  C   LIG    1       23.190 -20.181   6.130  0.00  0.00    +0.007 A 
ENDBRANCH   1   2
BRANCH   1   8
ATOM      8  C   LIG    1       26.745 -21.346   7.260  0.00  0.00    +0.064 C 
BRANCH   8   9
ATOM      9  C   LIG    1       27.785 -20.275   7.607  0.00  0.00    +0.084 C 
BRANCH   9  11
ATOM     10  C   LIG    1       29.506 -19.106   6.352  0.00  0.00    +0.101 C 
ATOM     11  N   LIG    1       28.938 -20.403   6.703  0.00  0.00    -0.319 NA
ATOM     12  H   LIG    1       29.661 -20.973   7.144  0.00  0.00    +0.122 HD
ENDBRANCH   9  11
ENDBRANCH   8   9
ENDBRANCH   1   8
BRANCH   1  13
ATOM     13  O   LIG    1       24.554 -22.071   7.839  0.00  0.00    -0.484 OA
BRANCH  13  14
ATOM     14  C   LIG    1       24.768 -23.273   7.231  0.00  0.00    +0.121 A 
ATOM     15  C   LIG    1       25.989 -23.946   7.175  0.00  0.00    +0.046 A 
ATOM     16  C   LIG    1       26.063 -25.224   6.610  0.00  0.00    +0.016 A 
ATOM     17  C   LIG    1       24.921 -25.860   6.109  0.00  0.00    +0.055 A 
ATOM     18  C   LIG    1       23.699 -25.172   6.152  0.00  0.00    +0.016 A 
ATOM     19  C   LIG    1       23.631 -23.892   6.713  0.00  0.00    +0.046 A 
BRANCH  17  20
ATOM     20  C   LIG    1       25.014 -27.268   5.572  0.00  0.00    +0.417 C 
ATOM     21  F   LIG    1       23.793 -27.863   5.467  0.00  0.00    -0.166 F 
ATOM     22  F   LIG    1       25.758 -28.083   6.370  0.00  0.00    -0.166 F 
ATOM     23  F   LIG    1       25.573 -27.347   4.332  0.00  0.00    -0.166 F 
ENDBRANCH  17  20
ENDBRANCH  13  14
ENDBRANCH   1  13
TORSDOF 7
ENDMDL
MODEL 9
REMARK VINA RESULT:      -7.7      4.358      6.586
REMARK  Name = *****
REMARK                            x       y       z     vdW  Elec       q    Type
REMARK                         _______ _______ _______ _____ _____    ______ ____
ROOT
ATOM      1  C   LIG    1       25.214 -23.948   7.149  0.00  0.00    +0.205 C 
ENDROOT
BRANCH   1   2
ATOM      2  C   LIG    1       25.921 -22.642   7.490  0.00  0.00    -0.007 A 
ATOM      3  C   LIG    1       25.465 -21.761   8.482  0.00  0.00    +0.007 A 
ATOM      4  C   LIG    1       26.166 -20.585   8.779  0.00  0.00    +0.000 A 
ATOM      5  C   LIG    1       27.347 -20.280   8.107  0.00  0.00    +0.000 A 
ATOM      6  C   LIG    1       27.833 -21.151   7.139  0.00  0.00    +0.000 A 
ATOM      7  C   LIG    1       27.126 -22.318   6.836  0.00  0.00    +0.007 A 
ENDBRANCH   1   2
BRANCH   1   8
ATOM      8  C   LIG    1       25.938 -24.907   6.172  0.00  0.00    +0.064 C 
BRANCH   8   9
ATOM      9  C   LIG    1       25.036 -25.617   5.157  0.00  0.00    +0.084 C 
BRANCH   9  11
ATOM     10  C   LIG    1       24.427 -27.766   6.111  0.00  0.00    +0.101 C 
ATOM     11  N   LIG    1       24.009 -26.389   5.872  0.00  0.00    -0.319 NA
ATOM     12  H   LIG    1       23.805 -25.945   6.767  0.00  0.00    +0.122 HD
ENDBRANCH   9  11
ENDBRANCH   8   9
ENDBRANCH   1   8
BRANCH   1  13
ATOM     13  O   LIG    1       23.977 -23.598   6.493  0.00  0.00    -0.484 OA
BRANCH  13  14
ATOM     14  C   LIG    1       23.843 -22.372   5.912  0.00  0.00    +0.121 A 
ATOM     15  C   LIG    1       24.401 -21.990   4.692  0.00  0.00    +0.046 A 
ATOM     16  C   LIG    1       24.109 -20.735   4.146  0.00  0.00    +0.016 A 
ATOM     17  C   LIG    1       23.241 -19.849   4.796  0.00  0.00    +0.055 A 
ATOM     18  C   LIG    1       22.695 -20.232   6.030  0.00  0.00    +0.016 A 
ATOM     19  C   LIG    1       22.995 -21.485   6.574  0.00  0.00    +0.046 A 
BRANCH  17  20
ATOM     20  C   LIG    1       22.884 -18.532   4.151  0.00  0.00    +0.417 C 
ATOM     21  F   LIG    1       23.977 -17.885   3.656  0.00  0.00    -0.166 F 
ATOM     22  F   LIG    1       22.302 -17.664   5.025  0.00  0.00    -0.166 F 
ATOM     23  F   LIG    1       22.017 -18.648   3.107  0.00  0.00    -0.166 F 
ENDBRANCH  17  20
ENDBRANCH  13  14
ENDBRANCH   1  13
TORSDOF 7
ENDMDL
