MODEL 1
REMARK VINA RESULT:     -10.0      0.000      0.000
REMARK  Name = *****
REMARK                            x       y       z     vdW  Elec       q    Type
REMARK                         _______ _______ _______ _____ _____    ______ ____
ROOT
ATOM      1  C   LIG    1       26.296 -23.115   7.298  0.00  0.00    +0.185 C 
ATOM      2  O   LIG    1       26.156 -22.433   6.056  0.00  0.00    -0.334 OA
ATOM      3  C   LIG    1       26.118 -21.031   6.367  0.00  0.00    +0.217 C 
ATOM      4  O   LIG    1       26.031 -20.915   7.810  0.00  0.00    -0.341 OA
ATOM      5  C   LIG    1       25.672 -22.199   8.297  0.00  0.00    +0.198 C 
ENDROOT
BRANCH   3   6
ATOM      6  C   LIG    1       24.893 -20.388   5.712  0.00  0.00    +0.031 A 
ATOM      7  C   LIG    1       23.562 -20.563   6.153  0.00  0.00    +0.051 A 
ATOM      8 CL   LIG    1       23.116 -21.497   7.540  0.00  0.00    -0.083 Cl
ATOM      9  C   LIG    1       22.491 -19.957   5.480  0.00  0.00    +0.040 A 
ATOM     10  C   LIG    1       22.725 -19.144   4.379  0.00  0.00    +0.042 A 
ATOM     11 CL   LIG    1       21.405 -18.380   3.586  0.00  0.00    -0.084 Cl
ATOM     12  C   LIG    1       24.021 -18.939   3.928  0.00  0.00    +0.020 A 
ATOM     13  C   LIG    1       25.089 -19.566   4.578  0.00  0.00    +0.012 A 
ENDBRANCH   3   6
BRANCH   1  14
ATOM     14  C   LIG    1       25.618 -24.456   7.237  0.00  0.00    +0.263 C 
BRANCH  14  15
ATOM     15  O   LIG    1       26.206 -25.279   6.224  0.00  0.00    -0.489 OA
BRANCH  15  19
ATOM     16  C   LIG    1       24.835 -29.262   6.268  0.00  0.00    +0.030 A 
ATOM     17  C   LIG    1       25.333 -28.662   7.422  0.00  0.00    +0.027 A 
ATOM     18  C   LIG    1       25.829 -27.368   7.410  0.00  0.00    +0.047 A 
ATOM     19  C   LIG    1       25.782 -26.581   6.263  0.00  0.00    +0.121 A 
ATOM     20  C   LIG    1       25.250 -27.129   5.104  0.00  0.00    +0.047 A 
ATOM     21  C   LIG    1       24.784 -28.453   5.116  0.00  0.00    +0.027 A 
BRANCH  16  27
ATOM     22  C   LIG    1       28.371 -33.799   6.977  0.00  0.00    +0.109 C 
ATOM     23  C   LIG    1       27.401 -33.115   7.922  0.00  0.00    +0.213 C 
ATOM     24  N   LIG    1       26.306 -32.491   7.315  0.00  0.00    -0.299 N 
ATOM     25  C   LIG    1       26.438 -31.931   5.964  0.00  0.00    +0.126 C 
ATOM     26  C   LIG    1       25.111 -31.489   5.337  0.00  0.00    +0.124 C 
ATOM     27  N   LIG    1       24.387 -30.586   6.250  0.00  0.00    -0.327 N 
ATOM     28  C   LIG    1       24.082 -31.276   7.528  0.00  0.00    +0.124 C 
ATOM     29  C   LIG    1       25.356 -31.817   8.219  0.00  0.00    +0.126 C 
ATOM     30  O   LIG    1       27.557 -33.164   9.124  0.00  0.00    -0.276 OA
ENDBRANCH  16  27
ENDBRANCH  15  19
ENDBRANCH  14  15
ENDBRANCH   1  14
BRANCH   3  31
ATOM     31  C   LIG    1       27.461 -20.408   5.918  0.00  0.00    +0.193 C 
BRANCH  31  32
ATOM     32  N   LIG    1       28.491 -20.357   6.936  0.00  0.00    -0.331 N 
ATOM     33  C   LIG    1       28.910 -19.241   7.602  0.00  0.00    +0.199 A 
ATOM     34  N   LIG    1       29.918 -19.508   8.402  0.00  0.00    -0.244 NA
ATOM     35  C   LIG    1       30.165 -20.846   8.244  0.00  0.00    +0.130 A 
ATOM     36  C   LIG    1       29.292 -21.393   7.337  0.00  0.00    +0.107 A 
ENDBRANCH  31  32
ENDBRANCH   3  31
TORSDOF 7
ENDMDL
MODEL 2
REMARK VINA RESULT:      -9.8      3.479     10.217
REMARK  Name = *****
REMARK                            x       y       z     vdW  Elec       q    Type
REMARK                         _______ _______ _______ _____ _____    ______ ____
ROOT
ATOM      1  C   LIG    1       25.338 -29.075   5.475  0.00  0.00    +0.185 C 
ATOM      2  O   LIG    1       25.945 -29.740   6.578  0.00  0.00    -0.334 OA
ATOM      3  C   LIG    1       24.873 -30.292   7.358  0.00  0.00    +0.217 C 
ATOM      4  O   LIG    1       23.635 -29.769   6.813  0.00  0.00    -0.341 OA
ATOM      5  C   LIG    1       23.990 -28.678   5.977  0.00  0.00    +0.198 C 
ENDROOT
BRANCH   3   6
ATOM      6  C   LIG    1       25.025 -29.867   8.821  0.00  0.00    +0.031 A 
ATOM      7  C   LIG    1       24.115 -30.197   9.851  0.00  0.00    +0.051 A 
ATOM      8 CL   LIG    1       22.708 -31.178   9.624  0.00  0.00    -0.083 Cl
ATOM      9  C   LIG    1       24.314 -29.746  11.164  0.00  0.00    +0.040 A 
ATOM     10  C   LIG    1       25.434 -28.988  11.482  0.00  0.00    +0.042 A 
ATOM     11 CL   LIG    1       25.683 -28.473  13.104  0.00  0.00    -0.084 Cl
ATOM     12  C   LIG    1       26.354 -28.659  10.498  0.00  0.00    +0.020 A 
ATOM     13  C   LIG    1       26.143 -29.081   9.182  0.00  0.00    +0.012 A 
ENDBRANCH   3   6
BRANCH   1  14
ATOM     14  C   LIG    1       26.170 -27.896   5.052  0.00  0.00    +0.263 C 
BRANCH  14  15
ATOM     15  O   LIG    1       25.351 -26.874   4.477  0.00  0.00    -0.489 OA
BRANCH  15  19
ATOM     16  C   LIG    1       25.272 -23.263   6.645  0.00  0.00    +0.030 A 
ATOM     17  C   LIG    1       25.855 -24.407   7.181  0.00  0.00    +0.027 A 
ATOM     18  C   LIG    1       25.846 -25.613   6.497  0.00  0.00    +0.047 A 
ATOM     19  C   LIG    1       25.324 -25.717   5.211  0.00  0.00    +0.121 A 
ATOM     20  C   LIG    1       24.776 -24.584   4.624  0.00  0.00    +0.047 A 
ATOM     21  C   LIG    1       24.755 -23.376   5.339  0.00  0.00    +0.027 A 
BRANCH  16  27
ATOM     22  C   LIG    1       29.897 -19.857   7.424  0.00  0.00    +0.109 C 
ATOM     23  C   LIG    1       28.719 -19.761   6.473  0.00  0.00    +0.213 C 
ATOM     24  N   LIG    1       27.530 -20.345   6.925  0.00  0.00    -0.299 N 
ATOM     25  C   LIG    1       27.580 -21.507   7.821  0.00  0.00    +0.126 C 
ATOM     26  C   LIG    1       26.222 -21.896   8.416  0.00  0.00    +0.124 C 
ATOM     27  N   LIG    1       25.219 -22.055   7.347  0.00  0.00    -0.327 N 
ATOM     28  C   LIG    1       25.045 -20.781   6.607  0.00  0.00    +0.124 C 
ATOM     29  C   LIG    1       26.375 -20.266   6.011  0.00  0.00    +0.126 C 
ATOM     30  O   LIG    1       28.809 -19.167   5.419  0.00  0.00    -0.276 OA
ENDBRANCH  16  27
ENDBRANCH  15  19
ENDBRANCH  14  15
ENDBRANCH   1  14
BRANCH   3  31
ATOM     31  C   LIG    1       24.876 -31.825   7.153  0.00  0.00    +0.193 C 
BRANCH  31  32
ATOM     32  N   LIG    1       26.087 -32.370   6.573  0.00  0.00    -0.331 N 
ATOM     33  C   LIG    1       26.256 -32.749   5.272  0.00  0.00    +0.199 A 
ATOM     34  N   LIG    1       27.442 -33.284   5.077  0.00  0.00    -0.244 NA
ATOM     35  C   LIG    1       28.060 -33.255   6.299  0.00  0.00    +0.130 A 
ATOM     36  C   LIG    1       27.237 -32.694   7.243  0.00  0.00    +0.107 A 
ENDBRANCH  31  32
ENDBRANCH   3  31
TORSDOF 7
ENDMDL
MODEL 3
REMARK VINA RESULT:      -9.8      3.718     10.647
REMARK  Name = *****
REMARK                            x       y       z     vdW  Elec       q    Type
REMARK                         _______ _______ _______ _____ _____    ______ ____
ROOT
ATOM      1  C   LIG    1       25.205 -29.731   5.978  0.00  0.00    +0.185 C 
ATOM      2  O   LIG    1       25.728 -30.015   7.272  0.00  0.00    -0.334 OA
ATOM      3  C   LIG    1       24.803 -30.922   7.892  0.00  0.00    +0.217 C 
ATOM      4  O   LIG    1       23.639 -30.999   7.031  0.00  0.00    -0.341 OA
ATOM      5  C   LIG    1       23.731 -29.909   6.127  0.00  0.00    +0.198 C 
ENDROOT
BRANCH   3   6
ATOM      6  C   LIG    1       24.403 -30.391   9.271  0.00  0.00    +0.031 A 
ATOM      7  C   LIG    1       25.294 -29.794  10.191  0.00  0.00    +0.051 A 
ATOM      8 CL   LIG    1       26.975 -29.526   9.877  0.00  0.00    -0.083 Cl
ATOM      9  C   LIG    1       24.852 -29.356  11.448  0.00  0.00    +0.040 A 
ATOM     10  C   LIG    1       23.514 -29.475  11.799  0.00  0.00    +0.042 A 
ATOM     11 CL   LIG    1       22.979 -28.900  13.329  0.00  0.00    -0.084 Cl
ATOM     12  C   LIG    1       22.609 -30.043  10.914  0.00  0.00    +0.020 A 
ATOM     13  C   LIG    1       23.052 -30.508   9.673  0.00  0.00    +0.012 A 
ENDBRANCH   3   6
BRANCH   1  14
ATOM     14  C   LIG    1       25.581 -28.337   5.557  0.00  0.00    +0.263 C 
BRANCH  14  15
ATOM     15  O   LIG    1       24.416 -27.522   5.393  0.00  0.00    -0.489 OA
BRANCH  15  19
ATOM     16  C   LIG    1       24.992 -23.613   6.852  0.00  0.00    +0.030 A 
ATOM     17  C   LIG    1       23.712 -24.124   6.659  0.00  0.00    +0.027 A 
ATOM     18  C   LIG    1       23.509 -25.392   6.136  0.00  0.00    +0.047 A 
ATOM     19  C   LIG    1       24.574 -26.242   5.853  0.00  0.00    +0.121 A 
ATOM     20  C   LIG    1       25.866 -25.784   6.077  0.00  0.00    +0.047 A 
ATOM     21  C   LIG    1       26.063 -24.485   6.572  0.00  0.00    +0.027 A 
BRANCH  16  27
ATOM     22  C   LIG    1       24.181 -18.895   3.584  0.00  0.00    +0.109 C 
ATOM     23  C   LIG    1       23.340 -19.524   4.679  0.00  0.00    +0.213 C 
ATOM     24  N   LIG    1       24.050 -20.245   5.647  0.00  0.00    -0.299 N 
ATOM     25  C   LIG    1       25.299 -20.924   5.282  0.00  0.00    +0.126 C 
ATOM     26  C   LIG    1       26.084 -21.474   6.479  0.00  0.00    +0.124 C 
ATOM     27  N   LIG    1       25.213 -22.314   7.322  0.00  0.00    -0.327 N 
ATOM     28  C   LIG    1       24.076 -21.519   7.847  0.00  0.00    +0.124 C 
ATOM     29  C   LIG    1       23.247 -20.867   6.716  0.00  0.00    +0.126 C 
ATOM     30  O   LIG    1       22.139 -19.357   4.723  0.00  0.00    -0.276 OA
ENDBRANCH  16  27
ENDBRANCH  15  19
ENDBRANCH  14  15
ENDBRANCH   1  14
BRANCH   3  31
ATOM     31  C   LIG    1       25.462 -32.320   7.932  0.00  0.00    +0.193 C 
BRANCH  31  32
ATOM     32  N   LIG    1       25.978 -32.799   6.665  0.00  0.00    -0.331 N 
ATOM     33  C   LIG    1       25.261 -33.443   5.697  0.00  0.00    +0.199 A 
ATOM     34  N   LIG    1       26.031 -33.825   4.702  0.00  0.00    -0.244 NA
ATOM     35  C   LIG    1       27.295 -33.419   5.042  0.00  0.00    +0.130 A 
ATOM     36  C   LIG    1       27.285 -32.781   6.258  0.00  0.00    +0.107 A 
ENDBRANCH  31  32
ENDBRANCH   3  31
TORSDOF 7
ENDMDL
MODEL 4
REMARK VINA RESULT:      -9.6      4.452     10.530
REMARK  Name = *****
REMARK                            x       y       z     vdW  Elec       q    Type
REMARK                         _______ _______ _______ _____ _____    ______ ____
ROOT
ATOM      1  C   LIG    1       25.293 -29.215   6.987  0.00  0.00    +0.185 C 
ATOM      2  O   LIG    1       25.040 -29.267   8.388  0.00  0.00    -0.334 OA
ATOM      3  C   LIG    1       25.387 -30.594   8.813  0.00  0.00    +0.217 C 
ATOM      4  O   LIG    1       25.648 -31.371   7.616  0.00  0.00    -0.341 OA
ATOM      5  C   LIG    1       25.126 -30.625   6.528  0.00  0.00    +0.198 C 
ENDROOT
BRANCH   3   6
ATOM      6  C   LIG    1       24.224 -31.209   9.597  0.00  0.00    +0.031 A 
ATOM      7  C   LIG    1       24.199 -32.532  10.090  0.00  0.00    +0.051 A 
ATOM      8 CL   LIG    1       25.509 -33.652   9.926  0.00  0.00    -0.083 Cl
ATOM      9  C   LIG    1       23.082 -33.027  10.778  0.00  0.00    +0.040 A 
ATOM     10  C   LIG    1       21.986 -32.209  11.014  0.00  0.00    +0.042 A 
ATOM     11 CL   LIG    1       20.637 -32.818  11.890  0.00  0.00    -0.084 Cl
ATOM     12  C   LIG    1       21.983 -30.899  10.556  0.00  0.00    +0.020 A 
ATOM     13  C   LIG    1       23.082 -30.411   9.843  0.00  0.00    +0.012 A 
ENDBRANCH   3   6
BRANCH   1  14
ATOM     14  C   LIG    1       24.334 -28.269   6.318  0.00  0.00    +0.263 C 
BRANCH  14  15
ATOM     15  O   LIG    1       25.037 -27.309   5.523  0.00  0.00    -0.489 OA
BRANCH  15  19
ATOM     16  C   LIG    1       24.715 -23.366   6.970  0.00  0.00    +0.030 A 
ATOM     17  C   LIG    1       23.584 -24.088   6.600  0.00  0.00    +0.027 A 
ATOM     18  C   LIG    1       23.681 -25.369   6.079  0.00  0.00    +0.047 A 
ATOM     19  C   LIG    1       24.905 -26.022   5.975  0.00  0.00    +0.121 A 
ATOM     20  C   LIG    1       26.051 -25.351   6.379  0.00  0.00    +0.047 A 
ATOM     21  C   LIG    1       25.948 -24.040   6.870  0.00  0.00    +0.027 A 
BRANCH  16  27
ATOM     22  C   LIG    1       25.318 -18.744   3.525  0.00  0.00    +0.109 C 
ATOM     23  C   LIG    1       24.092 -19.403   4.129  0.00  0.00    +0.213 C 
ATOM     24  N   LIG    1       24.301 -20.070   5.341  0.00  0.00    -0.299 N 
ATOM     25  C   LIG    1       25.604 -20.686   5.622  0.00  0.00    +0.126 C 
ATOM     26  C   LIG    1       25.765 -21.177   7.066  0.00  0.00    +0.124 C 
ATOM     27  N   LIG    1       24.639 -22.051   7.440  0.00  0.00    -0.327 N 
ATOM     28  C   LIG    1       23.356 -21.312   7.350  0.00  0.00    +0.124 C 
ATOM     29  C   LIG    1       23.121 -20.721   5.940  0.00  0.00    +0.126 C 
ATOM     30  O   LIG    1       23.002 -19.299   3.606  0.00  0.00    -0.276 OA
ENDBRANCH  16  27
ENDBRANCH  15  19
ENDBRANCH  14  15
ENDBRANCH   1  14
BRANCH   3  31
ATOM     31  C   LIG    1       26.703 -30.505   9.622  0.00  0.00    +0.193 C 
BRANCH  31  32
ATOM     32  N   LIG    1       26.682 -29.581  10.738  0.00  0.00    -0.331 N 
ATOM     33  C   LIG    1       26.986 -28.251  10.686  0.00  0.00    +0.199 A 
ATOM     34  N   LIG    1       26.956 -27.704  11.881  0.00  0.00    -0.244 NA
ATOM     35  C   LIG    1       26.627 -28.720  12.739  0.00  0.00    +0.130 A 
ATOM     36  C   LIG    1       26.454 -29.894  12.051  0.00  0.00    +0.107 A 
ENDBRANCH  31  32
ENDBRANCH   3  31
TORSDOF 7
ENDMDL
MODEL 5
REMARK VINA RESULT:      -9.6      3.393     10.449
REMARK  Name = *****
REMARK                            x       y       z     vdW  Elec       q    Type
REMARK                         _______ _______ _______ _____ _____    ______ ____
ROOT
ATOM      1  C   LIG    1       25.280 -29.315   5.975  0.00  0.00    +0.185 C 
ATOM      2  O   LIG    1       25.752 -29.790   7.232  0.00  0.00    -0.334 OA
ATOM      3  C   LIG    1       24.746 -30.686   7.729  0.00  0.00    +0.217 C 
ATOM      4  O   LIG    1       23.598 -30.570   6.851  0.00  0.00    -0.341 OA
ATOM      5  C   LIG    1       23.794 -29.392   6.083  0.00  0.00    +0.198 C 
ENDROOT
BRANCH   3   6
ATOM      6  C   LIG    1       24.358 -30.291   9.157  0.00  0.00    +0.031 A 
ATOM      7  C   LIG    1       25.239 -29.708  10.096  0.00  0.00    +0.051 A 
ATOM      8 CL   LIG    1       26.888 -29.305   9.756  0.00  0.00    -0.083 Cl
ATOM      9  C   LIG    1       24.811 -29.399  11.395  0.00  0.00    +0.040 A 
ATOM     10  C   LIG    1       23.496 -29.633  11.773  0.00  0.00    +0.042 A 
ATOM     11 CL   LIG    1       22.976 -29.215  13.358  0.00  0.00    -0.084 Cl
ATOM     12  C   LIG    1       22.601 -30.190  10.871  0.00  0.00    +0.020 A 
ATOM     13  C   LIG    1       23.032 -30.529   9.585  0.00  0.00    +0.012 A 
ENDBRANCH   3   6
BRANCH   1  14
ATOM     14  C   LIG    1       25.771 -27.916   5.727  0.00  0.00    +0.263 C 
BRANCH  14  15
ATOM     15  O   LIG    1       24.705 -27.073   5.279  0.00  0.00    -0.489 OA
BRANCH  15  19
ATOM     16  C   LIG    1       24.771 -23.300   7.151  0.00  0.00    +0.030 A 
ATOM     17  C   LIG    1       23.573 -23.870   6.730  0.00  0.00    +0.027 A 
ATOM     18  C   LIG    1       23.543 -25.090   6.072  0.00  0.00    +0.047 A 
ATOM     19  C   LIG    1       24.699 -25.837   5.870  0.00  0.00    +0.121 A 
ATOM     20  C   LIG    1       25.909 -25.322   6.317  0.00  0.00    +0.047 A 
ATOM     21  C   LIG    1       25.934 -24.069   6.950  0.00  0.00    +0.027 A 
BRANCH  16  27
ATOM     22  C   LIG    1       29.564 -20.043   7.255  0.00  0.00    +0.109 C 
ATOM     23  C   LIG    1       28.308 -19.967   6.408  0.00  0.00    +0.213 C 
ATOM     24  N   LIG    1       27.145 -20.466   7.006  0.00  0.00    -0.299 N 
ATOM     25  C   LIG    1       27.237 -21.561   7.980  0.00  0.00    +0.126 C 
ATOM     26  C   LIG    1       25.926 -21.849   8.722  0.00  0.00    +0.124 C 
ATOM     27  N   LIG    1       24.824 -22.043   7.761  0.00  0.00    -0.327 N 
ATOM     28  C   LIG    1       24.628 -20.820   6.944  0.00  0.00    +0.124 C 
ATOM     29  C   LIG    1       25.916 -20.405   6.195  0.00  0.00    +0.126 C 
ATOM     30  O   LIG    1       28.322 -19.455   5.308  0.00  0.00    -0.276 OA
ENDBRANCH  16  27
ENDBRANCH  15  19
ENDBRANCH  14  15
ENDBRANCH   1  14
BRANCH   3  31
ATOM     31  C   LIG    1       25.294 -32.128   7.611  0.00  0.00    +0.193 C 
BRANCH  31  32
ATOM     32  N   LIG    1       25.447 -32.624   6.258  0.00  0.00    -0.331 N 
ATOM     33  C   LIG    1       26.586 -32.573   5.507  0.00  0.00    +0.199 A 
ATOM     34  N   LIG    1       26.380 -33.028   4.290  0.00  0.00    -0.244 NA
ATOM     35  C   LIG    1       25.057 -33.380   4.251  0.00  0.00    +0.130 A 
ATOM     36  C   LIG    1       24.458 -33.136   5.462  0.00  0.00    +0.107 A 
ENDBRANCH  31  32
ENDBRANCH   3  31
TORSDOF 7
ENDMDL
MODEL 6
REMARK VINA RESULT:      -9.1      3.140      5.131
REMARK  Name = *****
REMARK                            x       y       z     vdW  Elec       q    Type
REMARK                         _______ _______ _______ _____ _____    ______ ____
ROOT
ATOM      1  C   LIG    1       24.885 -24.370   6.573  0.00  0.00    +0.185 C 
ATOM      2  O   LIG    1       25.362 -23.313   7.399  0.00  0.00    -0.334 OA
ATOM      3  C   LIG    1       25.261 -22.112   6.618  0.00  0.00    +0.217 C 
ATOM      4  O   LIG    1       24.917 -22.509   5.266  0.00  0.00    -0.341 OA
ATOM      5  C   LIG    1       25.158 -23.906   5.182  0.00  0.00    +0.198 C 
ENDROOT
BRANCH   3   6
ATOM      6  C   LIG    1       26.604 -21.375   6.624  0.00  0.00    +0.031 A 
ATOM      7  C   LIG    1       26.971 -20.367   5.705  0.00  0.00    +0.051 A 
ATOM      8 CL   LIG    1       25.932 -19.773   4.454  0.00  0.00    -0.083 Cl
ATOM      9  C   LIG    1       28.233 -19.758   5.763  0.00  0.00    +0.040 A 
ATOM     10  C   LIG    1       29.138 -20.118   6.753  0.00  0.00    +0.042 A 
ATOM     11 CL   LIG    1       30.668 -19.337   6.835  0.00  0.00    -0.084 Cl
ATOM     12  C   LIG    1       28.805 -21.094   7.681  0.00  0.00    +0.020 A 
ATOM     13  C   LIG    1       27.559 -21.725   7.607  0.00  0.00    +0.012 A 
ENDBRANCH   3   6
BRANCH   1  14
ATOM     14  C   LIG    1       25.594 -25.654   6.906  0.00  0.00    +0.263 C 
BRANCH  14  15
ATOM     15  O   LIG    1       25.107 -26.730   6.098  0.00  0.00    -0.489 OA
BRANCH  15  19
ATOM     16  C   LIG    1       25.089 -30.409   8.149  0.00  0.00    +0.030 A 
ATOM     17  C   LIG    1       24.404 -30.255   6.948  0.00  0.00    +0.027 A 
ATOM     18  C   LIG    1       24.364 -29.037   6.286  0.00  0.00    +0.047 A 
ATOM     19  C   LIG    1       25.071 -27.933   6.753  0.00  0.00    +0.121 A 
ATOM     20  C   LIG    1       25.804 -28.060   7.925  0.00  0.00    +0.047 A 
ATOM     21  C   LIG    1       25.808 -29.287   8.607  0.00  0.00    +0.027 A 
BRANCH  16  27
ATOM     22  C   LIG    1       21.036 -31.763  12.065  0.00  0.00    +0.109 C 
ATOM     23  C   LIG    1       21.241 -32.205  10.628  0.00  0.00    +0.213 C 
ATOM     24  N   LIG    1       22.567 -32.200  10.179  0.00  0.00    -0.299 N 
ATOM     25  C   LIG    1       23.523 -31.231  10.730  0.00  0.00    +0.126 C 
ATOM     26  C   LIG    1       24.979 -31.488  10.324  0.00  0.00    +0.124 C 
ATOM     27  N   LIG    1       25.089 -31.613   8.859  0.00  0.00    -0.327 N 
ATOM     28  C   LIG    1       24.271 -32.752   8.374  0.00  0.00    +0.124 C 
ATOM     29  C   LIG    1       22.785 -32.621   8.783  0.00  0.00    +0.126 C 
ATOM     30  O   LIG    1       20.311 -32.582   9.947  0.00  0.00    -0.276 OA
ENDBRANCH  16  27
ENDBRANCH  15  19
ENDBRANCH  14  15
ENDBRANCH   1  14
BRANCH   3  31
ATOM     31  C   LIG    1       24.091 -21.274   7.183  0.00  0.00    +0.193 C 
BRANCH  31  32
ATOM     32  N   LIG    1       23.102 -20.856   6.209  0.00  0.00    -0.331 N 
ATOM     33  C   LIG    1       22.223 -21.671   5.555  0.00  0.00    +0.199 A 
ATOM     34  N   LIG    1       21.513 -21.003   4.672  0.00  0.00    -0.244 NA
ATOM     35  C   LIG    1       21.954 -19.708   4.754  0.00  0.00    +0.130 A 
ATOM     36  C   LIG    1       22.942 -19.595   5.700  0.00  0.00    +0.107 A 
ENDBRANCH  31  32
ENDBRANCH   3  31
TORSDOF 7
ENDMDL
MODEL 7
REMARK VINA RESULT:      -9.1      1.796      2.341
REMARK  Name = *****
REMARK                            x       y       z     vdW  Elec       q    Type
REMARK                         _______ _______ _______ _____ _____    ______ ____
ROOT
ATOM      1  C   LIG    1       26.481 -22.534   7.200  0.00  0.00    +0.185 C 
ATOM      2  O   LIG    1       26.113 -22.108   5.891  0.00  0.00    -0.334 OA
ATOM      3  C   LIG    1       26.154 -20.673   5.907  0.00  0.00    +0.217 C 
ATOM      4  O   LIG    1       26.348 -20.265   7.285  0.00  0.00    -0.341 OA
ATOM      5  C   LIG    1       26.073 -21.405   8.086  0.00  0.00    +0.198 C 
ENDROOT
BRANCH   3   6
ATOM      6  C   LIG    1       24.834 -20.111   5.372  0.00  0.00    +0.031 A 
ATOM      7  C   LIG    1       23.563 -20.379   5.929  0.00  0.00    +0.051 A 
ATOM      8 CL   LIG    1       23.309 -21.351   7.339  0.00  0.00    -0.083 Cl
ATOM      9  C   LIG    1       22.397 -19.844   5.363  0.00  0.00    +0.040 A 
ATOM     10  C   LIG    1       22.476 -19.010   4.255  0.00  0.00    +0.042 A 
ATOM     11 CL   LIG    1       21.041 -18.332   3.593  0.00  0.00    -0.084 Cl
ATOM     12  C   LIG    1       23.709 -18.714   3.692  0.00  0.00    +0.020 A 
ATOM     13  C   LIG    1       24.871 -19.270   4.236  0.00  0.00    +0.012 A 
ENDBRANCH   3   6
BRANCH   1  14
ATOM     14  C   LIG    1       25.786 -23.822   7.545  0.00  0.00    +0.263 C 
BRANCH  14  15
ATOM     15  O   LIG    1       25.488 -24.573   6.363  0.00  0.00    -0.489 OA
BRANCH  15  19
ATOM     16  C   LIG    1       25.121 -28.707   7.085  0.00  0.00    +0.030 A 
ATOM     17  C   LIG    1       24.267 -28.055   6.200  0.00  0.00    +0.027 A 
ATOM     18  C   LIG    1       24.348 -26.688   5.989  0.00  0.00    +0.047 A 
ATOM     19  C   LIG    1       25.336 -25.915   6.592  0.00  0.00    +0.121 A 
ATOM     20  C   LIG    1       26.236 -26.538   7.446  0.00  0.00    +0.047 A 
ATOM     21  C   LIG    1       26.123 -27.917   7.683  0.00  0.00    +0.027 A 
BRANCH  16  27
ATOM     22  C   LIG    1       25.740 -30.934  12.400  0.00  0.00    +0.109 C 
ATOM     23  C   LIG    1       24.509 -30.645  11.562  0.00  0.00    +0.213 C 
ATOM     24  N   LIG    1       24.698 -30.696  10.176  0.00  0.00    -0.299 N 
ATOM     25  C   LIG    1       26.002 -30.344   9.602  0.00  0.00    +0.126 C 
ATOM     26  C   LIG    1       26.135 -30.664   8.108  0.00  0.00    +0.124 C 
ATOM     27  N   LIG    1       25.014 -30.075   7.355  0.00  0.00    -0.327 N 
ATOM     28  C   LIG    1       23.722 -30.631   7.828  0.00  0.00    +0.124 C 
ATOM     29  C   LIG    1       23.513 -30.412   9.345  0.00  0.00    +0.126 C 
ATOM     30  O   LIG    1       23.431 -30.438  12.078  0.00  0.00    -0.276 OA
ENDBRANCH  16  27
ENDBRANCH  15  19
ENDBRANCH  14  15
ENDBRANCH   1  14
BRANCH   3  31
ATOM     31  C   LIG    1       27.393 -20.224   5.097  0.00  0.00    +0.193 C 
BRANCH  31  32
ATOM     32  N   LIG    1       28.530 -19.798   5.889  0.00  0.00    -0.331 N 
ATOM     33  C   LIG    1       29.104 -18.559   5.869  0.00  0.00    +0.199 A 
ATOM     34  N   LIG    1       30.170 -18.511   6.637  0.00  0.00    -0.244 NA
ATOM     35  C   LIG    1       30.294 -19.768   7.169  0.00  0.00    +0.130 A 
ATOM     36  C   LIG    1       29.287 -20.583   6.716  0.00  0.00    +0.107 A 
ENDBRANCH  31  32
ENDBRANCH   3  31
TORSDOF 7
ENDMDL
MODEL 8
REMARK VINA RESULT:      -8.8      4.091     10.294
REMARK  Name = *****
REMARK                            x       y       z     vdW  Elec       q    Type
REMARK                         _______ _______ _______ _____ _____    ______ ____
ROOT
ATOM      1  C   LIG    1       25.409 -28.961   7.008  0.00  0.00    +0.185 C 
ATOM      2  O   LIG    1       24.926 -29.137   8.336  0.00  0.00    -0.334 OA
ATOM      3  C   LIG    1       25.094 -30.530   8.645  0.00  0.00    +0.217 C 
ATOM      4  O   LIG    1       25.485 -31.196   7.417  0.00  0.00    -0.341 OA
ATOM      5  C   LIG    1       25.210 -30.290   6.360  0.00  0.00    +0.198 C 
ENDROOT
BRANCH   3   6
ATOM      6  C   LIG    1       23.773 -31.109   9.160  0.00  0.00    +0.031 A 
ATOM      7  C   LIG    1       23.342 -32.438   8.948  0.00  0.00    +0.051 A 
ATOM      8 CL   LIG    1       24.271 -33.636   8.112  0.00  0.00    -0.083 Cl
ATOM      9  C   LIG    1       22.104 -32.884   9.433  0.00  0.00    +0.040 A 
ATOM     10  C   LIG    1       21.288 -32.028  10.161  0.00  0.00    +0.042 A 
ATOM     11 CL   LIG    1       19.789 -32.599  10.780  0.00  0.00    -0.084 Cl
ATOM     12  C   LIG    1       21.687 -30.721  10.399  0.00  0.00    +0.020 A 
ATOM     13  C   LIG    1       22.907 -30.264   9.892  0.00  0.00    +0.012 A 
ENDBRANCH   3   6
BRANCH   1  14
ATOM     14  C   LIG    1       24.651 -27.860   6.318  0.00  0.00    +0.263 C 
BRANCH  14  15
ATOM     15  O   LIG    1       25.538 -27.017   5.576  0.00  0.00    -0.489 OA
BRANCH  15  19
ATOM     16  C   LIG    1       25.135 -22.904   6.390  0.00  0.00    +0.030 A 
ATOM     17  C   LIG    1       25.715 -23.764   7.317  0.00  0.00    +0.027 A 
ATOM     18  C   LIG    1       25.812 -25.127   7.081  0.00  0.00    +0.047 A 
ATOM     19  C   LIG    1       25.404 -25.686   5.874  0.00  0.00    +0.121 A 
ATOM     20  C   LIG    1       24.863 -24.852   4.905  0.00  0.00    +0.047 A 
ATOM     21  C   LIG    1       24.735 -23.479   5.168  0.00  0.00    +0.027 A 
BRANCH  16  27
ATOM     22  C   LIG    1       29.506 -19.458   8.008  0.00  0.00    +0.109 C 
ATOM     23  C   LIG    1       28.814 -19.654   6.672  0.00  0.00    +0.213 C 
ATOM     24  N   LIG    1       27.476 -20.060   6.740  0.00  0.00    -0.299 N 
ATOM     25  C   LIG    1       27.018 -20.886   7.864  0.00  0.00    +0.126 C 
ATOM     26  C   LIG    1       25.497 -21.061   7.933  0.00  0.00    +0.124 C 
ATOM     27  N   LIG    1       24.975 -21.537   6.638  0.00  0.00    -0.327 N 
ATOM     28  C   LIG    1       25.275 -20.555   5.567  0.00  0.00    +0.124 C 
ATOM     29  C   LIG    1       26.788 -20.260   5.451  0.00  0.00    +0.126 C 
ATOM     30  O   LIG    1       29.384 -19.417   5.629  0.00  0.00    -0.276 OA
ENDBRANCH  16  27
ENDBRANCH  15  19
ENDBRANCH  14  15
ENDBRANCH   1  14
BRANCH   3  31
ATOM     31  C   LIG    1       26.261 -30.656   9.651  0.00  0.00    +0.193 C 
BRANCH  31  32
ATOM     32  N   LIG    1       26.358 -29.587  10.625  0.00  0.00    -0.331 N 
ATOM     33  C   LIG    1       27.134 -28.469  10.518  0.00  0.00    +0.199 A 
ATOM     34  N   LIG    1       27.067 -27.731  11.604  0.00  0.00    -0.244 NA
ATOM     35  C   LIG    1       26.221 -28.400  12.448  0.00  0.00    +0.130 A 
ATOM     36  C   LIG    1       25.770 -29.556  11.862  0.00  0.00    +0.107 A 
ENDBRANCH  31  32
ENDBRANCH   3  31
TORSDOF 7
ENDMDL
MODEL 9
REMARK VINA RESULT:      -8.7      2.241      2.940
REMARK  Name = *****
REMARK                            x       y       z     vdW  Elec       q    Type
REMARK                         _______ _______ _______ _____ _____    ______ ____
ROOT
ATOM      1  C   LIG    1       25.172 -24.835   5.924  0.00  0.00    +0.185 C 
ATOM      2  O   LIG    1       25.587 -23.502   5.641  0.00  0.00    -0.334 OA
ATOM      3  C   LIG    1       24.909 -22.659   6.586  0.00  0.00    +0.217 C 
ATOM      4  O   LIG    1       23.943 -23.487   7.282  0.00  0.00    -0.341 OA
ATOM      5  C   LIG    1       23.815 -24.681   6.526  0.00  0.00    +0.198 C 
ENDROOT
BRANCH   3   6
ATOM      6  C   LIG    1       24.193 -21.524   5.846  0.00  0.00    +0.031 A 
ATOM      7  C   LIG    1       23.368 -20.558   6.465  0.00  0.00    +0.051 A 
ATOM      8 CL   LIG    1       23.077 -20.480   8.170  0.00  0.00    -0.083 Cl
ATOM      9  C   LIG    1       22.727 -19.564   5.711  0.00  0.00    +0.040 A 
ATOM     10  C   LIG    1       22.919 -19.495   4.338  0.00  0.00    +0.042 A 
ATOM     11 CL   LIG    1       22.155 -18.248   3.431  0.00  0.00    -0.084 Cl
ATOM     12  C   LIG    1       23.735 -20.418   3.700  0.00  0.00    +0.020 A 
ATOM     13  C   LIG    1       24.351 -21.429   4.444  0.00  0.00    +0.012 A 
ENDBRANCH   3   6
BRANCH   1  14
ATOM     14  C   LIG    1       25.158 -25.656   4.665  0.00  0.00    +0.263 C 
BRANCH  14  15
ATOM     15  O   LIG    1       26.073 -26.753   4.761  0.00  0.00    -0.489 OA
BRANCH  15  19
ATOM     16  C   LIG    1       24.787 -29.727   7.453  0.00  0.00    +0.030 A 
ATOM     17  C   LIG    1       25.525 -28.632   7.894  0.00  0.00    +0.027 A 
ATOM     18  C   LIG    1       25.993 -27.671   7.011  0.00  0.00    +0.047 A 
ATOM     19  C   LIG    1       25.682 -27.714   5.656  0.00  0.00    +0.121 A 
ATOM     20  C   LIG    1       24.908 -28.767   5.186  0.00  0.00    +0.047 A 
ATOM     21  C   LIG    1       24.469 -29.755   6.081  0.00  0.00    +0.027 A 
BRANCH  16  27
ATOM     22  C   LIG    1       26.662 -30.192  12.918  0.00  0.00    +0.109 C 
ATOM     23  C   LIG    1       25.366 -29.661  12.335  0.00  0.00    +0.213 C 
ATOM     24  N   LIG    1       24.978 -30.225  11.114  0.00  0.00    -0.299 N 
ATOM     25  C   LIG    1       25.997 -30.699  10.170  0.00  0.00    +0.126 C 
ATOM     26  C   LIG    1       25.432 -31.497   8.989  0.00  0.00    +0.124 C 
ATOM     27  N   LIG    1       24.360 -30.736   8.321  0.00  0.00    -0.327 N 
ATOM     28  C   LIG    1       23.248 -30.470   9.267  0.00  0.00    +0.124 C 
ATOM     29  C   LIG    1       23.723 -29.716  10.530  0.00  0.00    +0.126 C 
ATOM     30  O   LIG    1       24.700 -28.840  12.930  0.00  0.00    -0.276 OA
ENDBRANCH  16  27
ENDBRANCH  15  19
ENDBRANCH  14  15
ENDBRANCH   1  14
BRANCH   3  31
ATOM     31  C   LIG    1       25.950 -22.167   7.618  0.00  0.00    +0.193 C 
BRANCH  31  32
ATOM     32  N   LIG    1       27.079 -21.446   7.064  0.00  0.00    -0.331 N 
ATOM     33  C   LIG    1       28.397 -21.711   7.301  0.00  0.00    +0.199 A 
ATOM     34  N   LIG    1       29.177 -20.826   6.720  0.00  0.00    -0.244 NA
ATOM     35  C   LIG    1       28.332 -19.953   6.088  0.00  0.00    +0.130 A 
ATOM     36  C   LIG    1       27.024 -20.318   6.290  0.00  0.00    +0.107 A 
ENDBRANCH  31  32
ENDBRANCH   3  31
TORSDOF 7
ENDMDL
