MODEL 1
REMARK VINA RESULT:      -8.9      0.000      0.000
REMARK  Name = *****
REMARK                            x       y       z     vdW  Elec       q    Type
REMARK                         _______ _______ _______ _____ _____    ______ ____
ROOT
ATOM      1  N   LIG    1       25.670 -21.222   5.174  0.00  0.00    -0.299 N 
ATOM      2  H   LIG    1       25.872 -21.888   4.429  0.00  0.00    +0.154 HD
ENDROOT
BRANCH   1   4
ATOM      3  C   LIG    1       23.372 -20.471   5.606  0.00  0.00    +0.099 A 
ATOM      4  C   LIG    1       24.567 -20.392   4.871  0.00  0.00    +0.137 A 
ATOM      5  N   LIG    1       24.701 -19.467   3.884  0.00  0.00    -0.239 NA
ATOM      6  C   LIG    1       23.678 -18.628   3.615  0.00  0.00    +0.113 A 
ATOM      7  C   LIG    1       22.483 -18.641   4.300  0.00  0.00    +0.021 A 
ATOM      8  C   LIG    1       22.328 -19.581   5.309  0.00  0.00    +0.020 A 
BRANCH   3  10
ATOM      9  O   LIG    1       23.205 -21.330   7.851  0.00  0.00    -0.245 OA
ATOM     10  C   LIG    1       23.187 -21.509   6.649  0.00  0.00    +0.340 C 
BRANCH  10  11
ATOM     11  O   LIG    1       23.022 -22.742   6.128  0.00  0.00    -0.477 OA
ATOM     12  H   LIG    1       22.314 -22.643   5.458  0.00  0.00    +0.295 HD
ENDBRANCH  10  11
ENDBRANCH   3  10
ENDBRANCH   1   4
BRANCH   1  13
ATOM     13  C   LIG    1       26.739 -21.006   6.065  0.00  0.00    +0.033 A 
ATOM     14  C   LIG    1       27.720 -20.031   5.847  0.00  0.00    +0.035 A 
ATOM     15  C   LIG    1       28.776 -19.824   6.753  0.00  0.00    +0.057 A 
ATOM     16  C   LIG    1       28.857 -20.630   7.894  0.00  0.00    +0.012 A 
ATOM     17  C   LIG    1       27.893 -21.609   8.127  0.00  0.00    +0.002 A 
ATOM     18  C   LIG    1       26.840 -21.787   7.225  0.00  0.00    +0.023 A 
BRANCH  15  19
ATOM     19  C   LIG    1       29.775 -18.728   6.488  0.00  0.00    +0.417 C 
ATOM     20  F   LIG    1       29.973 -17.928   7.574  0.00  0.00    -0.166 F 
ATOM     21  F   LIG    1       29.398 -17.897   5.476  0.00  0.00    -0.166 F 
ATOM     22  F   LIG    1       31.012 -19.190   6.144  0.00  0.00    -0.166 F 
ENDBRANCH  15  19
ENDBRANCH   1  13
TORSDOF 5
ENDMDL
MODEL 2
REMARK VINA RESULT:      -8.9      4.932      6.872
REMARK  Name = *****
REMARK                            x       y       z     vdW  Elec       q    Type
REMARK                         _______ _______ _______ _____ _____    ______ ____
ROOT
ATOM      1  N   LIG    1       28.442 -21.763   7.967  0.00  0.00    -0.299 N 
ATOM      2  H   LIG    1       28.826 -22.462   8.601  0.00  0.00    +0.154 HD
ENDROOT
BRANCH   1   4
ATOM      3  C   LIG    1       30.624 -20.682   8.295  0.00  0.00    +0.099 A 
ATOM      4  C   LIG    1       29.316 -20.667   7.781  0.00  0.00    +0.137 A 
ATOM      5  N   LIG    1       28.886 -19.610   7.042  0.00  0.00    -0.239 NA
ATOM      6  C   LIG    1       29.723 -18.577   6.808  0.00  0.00    +0.113 A 
ATOM      7  C   LIG    1       31.019 -18.529   7.270  0.00  0.00    +0.021 A 
ATOM      8  C   LIG    1       31.475 -19.598   8.028  0.00  0.00    +0.020 A 
BRANCH   3  10
ATOM      9  O   LIG    1       30.664 -22.096  10.245  0.00  0.00    -0.245 OA
ATOM     10  C   LIG    1       31.094 -21.800   9.148  0.00  0.00    +0.340 C 
BRANCH  10  11
ATOM     11  O   LIG    1       32.117 -22.481   8.592  0.00  0.00    -0.477 OA
ATOM     12  H   LIG    1       32.539 -22.960   9.335  0.00  0.00    +0.295 HD
ENDBRANCH  10  11
ENDBRANCH   3  10
ENDBRANCH   1   4
BRANCH   1  13
ATOM     13  C   LIG    1       27.047 -21.838   7.792  0.00  0.00    +0.033 A 
ATOM     14  C   LIG    1       26.417 -22.943   7.206  0.00  0.00    +0.035 A 
ATOM     15  C   LIG    1       25.021 -23.005   7.047  0.00  0.00    +0.057 A 
ATOM     16  C   LIG    1       24.243 -21.922   7.471  0.00  0.00    +0.012 A 
ATOM     17  C   LIG    1       24.851 -20.811   8.054  0.00  0.00    +0.002 A 
ATOM     18  C   LIG    1       26.239 -20.776   8.220  0.00  0.00    +0.023 A 
BRANCH  15  19
ATOM     19  C   LIG    1       24.398 -24.240   6.451  0.00  0.00    +0.417 C 
ATOM     20  F   LIG    1       24.935 -25.389   6.952  0.00  0.00    -0.166 F 
ATOM     21  F   LIG    1       24.551 -24.316   5.099  0.00  0.00    -0.166 F 
ATOM     22  F   LIG    1       23.056 -24.335   6.676  0.00  0.00    -0.166 F 
ENDBRANCH  15  19
ENDBRANCH   1  13
TORSDOF 5
ENDMDL
MODEL 3
REMARK VINA RESULT:      -8.8      4.409      6.231
REMARK  Name = *****
REMARK                            x       y       z     vdW  Elec       q    Type
REMARK                         _______ _______ _______ _____ _____    ______ ____
ROOT
ATOM      1  N   LIG    1       25.839 -21.831   7.739  0.00  0.00    -0.299 N 
ATOM      2  H   LIG    1       25.210 -21.155   8.170  0.00  0.00    +0.154 HD
ENDROOT
BRANCH   1   4
ATOM      3  C   LIG    1       27.144 -20.425   6.204  0.00  0.00    +0.099 A 
ATOM      4  C   LIG    1       27.064 -21.249   7.340  0.00  0.00    +0.137 A 
ATOM      5  N   LIG    1       28.165 -21.456   8.111  0.00  0.00    -0.239 NA
ATOM      6  C   LIG    1       29.332 -20.866   7.777  0.00  0.00    +0.113 A 
ATOM      7  C   LIG    1       29.481 -20.039   6.686  0.00  0.00    +0.021 A 
ATOM      8  C   LIG    1       28.369 -19.818   5.886  0.00  0.00    +0.020 A 
BRANCH   3  10
ATOM      9  O   LIG    1       24.815 -20.100   5.678  0.00  0.00    -0.245 OA
ATOM     10  C   LIG    1       25.969 -20.230   5.320  0.00  0.00    +0.340 C 
BRANCH  10  11
ATOM     11  O   LIG    1       26.298 -20.245   4.012  0.00  0.00    -0.477 OA
ATOM     12  H   LIG    1       25.730 -20.937   3.614  0.00  0.00    +0.295 HD
ENDBRANCH  10  11
ENDBRANCH   3  10
ENDBRANCH   1   4
BRANCH   1  13
ATOM     13  C   LIG    1       25.206 -22.999   7.274  0.00  0.00    +0.033 A 
ATOM     14  C   LIG    1       25.900 -24.193   7.038  0.00  0.00    +0.035 A 
ATOM     15  C   LIG    1       25.250 -25.353   6.581  0.00  0.00    +0.057 A 
ATOM     16  C   LIG    1       23.873 -25.306   6.338  0.00  0.00    +0.012 A 
ATOM     17  C   LIG    1       23.164 -24.127   6.563  0.00  0.00    +0.002 A 
ATOM     18  C   LIG    1       23.825 -22.989   7.035  0.00  0.00    +0.023 A 
BRANCH  15  19
ATOM     19  C   LIG    1       26.043 -26.620   6.390  0.00  0.00    +0.417 C 
ATOM     20  F   LIG    1       26.296 -27.259   7.567  0.00  0.00    -0.166 F 
ATOM     21  F   LIG    1       27.259 -26.406   5.814  0.00  0.00    -0.166 F 
ATOM     22  F   LIG    1       25.418 -27.540   5.601  0.00  0.00    -0.166 F 
ENDBRANCH  15  19
ENDBRANCH   1  13
TORSDOF 5
ENDMDL
MODEL 4
REMARK VINA RESULT:      -8.6      2.091      2.882
REMARK  Name = *****
REMARK                            x       y       z     vdW  Elec       q    Type
REMARK                         _______ _______ _______ _____ _____    ______ ____
ROOT
ATOM      1  N   LIG    1       27.120 -21.205   6.173  0.00  0.00    -0.299 N 
ATOM      2  H   LIG    1       27.391 -22.051   5.673  0.00  0.00    +0.154 HD
ENDROOT
BRANCH   1   4
ATOM      3  C   LIG    1       24.984 -20.926   7.354  0.00  0.00    +0.099 A 
ATOM      4  C   LIG    1       25.723 -20.995   6.160  0.00  0.00    +0.137 A 
ATOM      5  N   LIG    1       25.105 -20.803   4.964  0.00  0.00    -0.239 NA
ATOM      6  C   LIG    1       23.780 -20.547   4.933  0.00  0.00    +0.113 A 
ATOM      7  C   LIG    1       22.996 -20.454   6.062  0.00  0.00    +0.021 A 
ATOM      8  C   LIG    1       23.609 -20.650   7.291  0.00  0.00    +0.020 A 
BRANCH   3  10
ATOM      9  O   LIG    1       25.865 -20.362   9.524  0.00  0.00    -0.245 OA
ATOM     10  C   LIG    1       25.629 -21.186   8.664  0.00  0.00    +0.340 C 
BRANCH  10  11
ATOM     11  O   LIG    1       25.983 -22.478   8.818  0.00  0.00    -0.477 OA
ATOM     12  H   LIG    1       25.160 -22.939   9.083  0.00  0.00    +0.295 HD
ENDBRANCH  10  11
ENDBRANCH   3  10
ENDBRANCH   1   4
BRANCH   1  13
ATOM     13  C   LIG    1       28.165 -20.280   6.359  0.00  0.00    +0.033 A 
ATOM     14  C   LIG    1       29.009 -20.308   7.477  0.00  0.00    +0.035 A 
ATOM     15  C   LIG    1       30.054 -19.381   7.642  0.00  0.00    +0.057 A 
ATOM     16  C   LIG    1       30.242 -18.392   6.670  0.00  0.00    +0.012 A 
ATOM     17  C   LIG    1       29.411 -18.345   5.553  0.00  0.00    +0.002 A 
ATOM     18  C   LIG    1       28.389 -19.286   5.397  0.00  0.00    +0.023 A 
BRANCH  15  19
ATOM     19  C   LIG    1       30.958 -19.490   8.843  0.00  0.00    +0.417 C 
ATOM     20  F   LIG    1       30.451 -18.855   9.937  0.00  0.00    -0.166 F 
ATOM     21  F   LIG    1       32.190 -18.947   8.633  0.00  0.00    -0.166 F 
ATOM     22  F   LIG    1       31.185 -20.776   9.238  0.00  0.00    -0.166 F 
ENDBRANCH  15  19
ENDBRANCH   1  13
TORSDOF 5
ENDMDL
MODEL 5
REMARK VINA RESULT:      -8.5      4.010      6.488
REMARK  Name = *****
REMARK                            x       y       z     vdW  Elec       q    Type
REMARK                         _______ _______ _______ _____ _____    ______ ____
ROOT
ATOM      1  N   LIG    1       28.895 -21.244   7.427  0.00  0.00    -0.299 N 
ATOM      2  H   LIG    1       29.300 -22.176   7.515  0.00  0.00    +0.154 HD
ENDROOT
BRANCH   1   4
ATOM      3  C   LIG    1       30.895 -20.532   8.663  0.00  0.00    +0.099 A 
ATOM      4  C   LIG    1       29.774 -20.230   7.871  0.00  0.00    +0.137 A 
ATOM      5  N   LIG    1       29.548 -18.951   7.469  0.00  0.00    -0.239 NA
ATOM      6  C   LIG    1       30.406 -17.977   7.837  0.00  0.00    +0.113 A 
ATOM      7  C   LIG    1       31.529 -18.200   8.603  0.00  0.00    +0.021 A 
ATOM      8  C   LIG    1       31.774 -19.500   9.024  0.00  0.00    +0.020 A 
BRANCH   3  10
ATOM      9  O   LIG    1       30.505 -22.476  10.032  0.00  0.00    -0.245 OA
ATOM     10  C   LIG    1       31.129 -21.911   9.157  0.00  0.00    +0.340 C 
BRANCH  10  11
ATOM     11  O   LIG    1       32.172 -22.510   8.544  0.00  0.00    -0.477 OA
ATOM     12  H   LIG    1       32.644 -21.787   8.081  0.00  0.00    +0.295 HD
ENDBRANCH  10  11
ENDBRANCH   3  10
ENDBRANCH   1   4
BRANCH   1  13
ATOM     13  C   LIG    1       27.492 -21.229   7.312  0.00  0.00    +0.033 A 
ATOM     14  C   LIG    1       26.832 -20.740   6.177  0.00  0.00    +0.035 A 
ATOM     15  C   LIG    1       25.429 -20.740   6.076  0.00  0.00    +0.057 A 
ATOM     16  C   LIG    1       24.672 -21.226   7.149  0.00  0.00    +0.012 A 
ATOM     17  C   LIG    1       25.310 -21.713   8.288  0.00  0.00    +0.002 A 
ATOM     18  C   LIG    1       26.707 -21.722   8.363  0.00  0.00    +0.023 A 
BRANCH  15  19
ATOM     19  C   LIG    1       24.778 -20.244   4.811  0.00  0.00    +0.417 C 
ATOM     20  F   LIG    1       24.566 -21.242   3.908  0.00  0.00    -0.166 F 
ATOM     21  F   LIG    1       25.521 -19.305   4.162  0.00  0.00    -0.166 F 
ATOM     22  F   LIG    1       23.557 -19.671   5.016  0.00  0.00    -0.166 F 
ENDBRANCH  15  19
ENDBRANCH   1  13
TORSDOF 5
ENDMDL
MODEL 6
REMARK VINA RESULT:      -8.4      2.364      3.711
REMARK  Name = *****
REMARK                            x       y       z     vdW  Elec       q    Type
REMARK                         _______ _______ _______ _____ _____    ______ ____
ROOT
ATOM      1  N   LIG    1       25.970 -22.293   7.800  0.00  0.00    -0.299 N 
ATOM      2  H   LIG    1       25.976 -22.320   8.818  0.00  0.00    +0.154 HD
ENDROOT
BRANCH   1   4
ATOM      3  C   LIG    1       24.047 -23.404   6.747  0.00  0.00    +0.099 A 
ATOM      4  C   LIG    1       25.366 -23.439   7.234  0.00  0.00    +0.137 A 
ATOM      5  N   LIG    1       26.106 -24.573   7.114  0.00  0.00    -0.239 NA
ATOM      6  C   LIG    1       25.566 -25.662   6.528  0.00  0.00    +0.113 A 
ATOM      7  C   LIG    1       24.286 -25.697   6.020  0.00  0.00    +0.021 A 
ATOM      8  C   LIG    1       23.515 -24.549   6.135  0.00  0.00    +0.020 A 
BRANCH   3  10
ATOM      9  O   LIG    1       23.117 -21.517   7.921  0.00  0.00    -0.245 OA
ATOM     10  C   LIG    1       23.206 -22.194   6.917  0.00  0.00    +0.340 C 
BRANCH  10  11
ATOM     11  O   LIG    1       22.481 -21.910   5.815  0.00  0.00    -0.477 OA
ATOM     12  H   LIG    1       21.956 -22.719   5.639  0.00  0.00    +0.295 HD
ENDBRANCH  10  11
ENDBRANCH   3  10
ENDBRANCH   1   4
BRANCH   1  13
ATOM     13  C   LIG    1       26.898 -21.397   7.237  0.00  0.00    +0.033 A 
ATOM     14  C   LIG    1       28.165 -21.174   7.789  0.00  0.00    +0.035 A 
ATOM     15  C   LIG    1       29.083 -20.279   7.209  0.00  0.00    +0.057 A 
ATOM     16  C   LIG    1       28.709 -19.580   6.056  0.00  0.00    +0.012 A 
ATOM     17  C   LIG    1       27.451 -19.785   5.492  0.00  0.00    +0.002 A 
ATOM     18  C   LIG    1       26.559 -20.691   6.074  0.00  0.00    +0.023 A 
BRANCH  15  19
ATOM     19  C   LIG    1       30.448 -20.117   7.823  0.00  0.00    +0.417 C 
ATOM     20  F   LIG    1       30.923 -21.279   8.355  0.00  0.00    -0.166 F 
ATOM     21  F   LIG    1       30.472 -19.207   8.837  0.00  0.00    -0.166 F 
ATOM     22  F   LIG    1       31.399 -19.705   6.936  0.00  0.00    -0.166 F 
ENDBRANCH  15  19
ENDBRANCH   1  13
TORSDOF 5
ENDMDL
MODEL 7
REMARK VINA RESULT:      -8.2      4.667      6.783
REMARK  Name = *****
REMARK                            x       y       z     vdW  Elec       q    Type
REMARK                         _______ _______ _______ _____ _____    ______ ____
ROOT
ATOM      1  N   LIG    1       28.786 -21.494   7.056  0.00  0.00    -0.299 N 
ATOM      2  H   LIG    1       29.235 -22.308   6.638  0.00  0.00    +0.154 HD
ENDROOT
BRANCH   1   4
ATOM      3  C   LIG    1       29.917 -19.313   7.092  0.00  0.00    +0.099 A 
ATOM      4  C   LIG    1       29.718 -20.597   7.627  0.00  0.00    +0.137 A 
ATOM      5  N   LIG    1       30.387 -20.980   8.747  0.00  0.00    -0.239 NA
ATOM      6  C   LIG    1       31.242 -20.119   9.339  0.00  0.00    +0.113 A 
ATOM      7  C   LIG    1       31.478 -18.843   8.877  0.00  0.00    +0.021 A 
ATOM      8  C   LIG    1       30.805 -18.436   7.733  0.00  0.00    +0.020 A 
BRANCH   3  10
ATOM      9  O   LIG    1       28.165 -19.298   5.438  0.00  0.00    -0.245 OA
ATOM     10  C   LIG    1       29.238 -18.897   5.841  0.00  0.00    +0.340 C 
BRANCH  10  11
ATOM     11  O   LIG    1       29.965 -18.012   5.127  0.00  0.00    -0.477 OA
ATOM     12  H   LIG    1       29.364 -17.253   4.973  0.00  0.00    +0.295 HD
ENDBRANCH  10  11
ENDBRANCH   3  10
ENDBRANCH   1   4
BRANCH   1  13
ATOM     13  C   LIG    1       27.418 -21.666   7.338  0.00  0.00    +0.033 A 
ATOM     14  C   LIG    1       26.677 -22.753   6.857  0.00  0.00    +0.035 A 
ATOM     15  C   LIG    1       25.312 -22.914   7.156  0.00  0.00    +0.057 A 
ATOM     16  C   LIG    1       24.673 -21.948   7.941  0.00  0.00    +0.012 A 
ATOM     17  C   LIG    1       25.391 -20.856   8.426  0.00  0.00    +0.002 A 
ATOM     18  C   LIG    1       26.752 -20.724   8.134  0.00  0.00    +0.023 A 
BRANCH  15  19
ATOM     19  C   LIG    1       24.581 -24.129   6.648  0.00  0.00    +0.417 C 
ATOM     20  F   LIG    1       25.133 -25.293   7.091  0.00  0.00    -0.166 F 
ATOM     21  F   LIG    1       24.571 -24.216   5.288  0.00  0.00    -0.166 F 
ATOM     22  F   LIG    1       23.272 -24.175   7.029  0.00  0.00    -0.166 F 
ENDBRANCH  15  19
ENDBRANCH   1  13
TORSDOF 5
ENDMDL
MODEL 8
REMARK VINA RESULT:      -8.2      4.015      5.815
REMARK  Name = *****
REMARK                            x       y       z     vdW  Elec       q    Type
REMARK                         _______ _______ _______ _____ _____    ______ ____
ROOT
ATOM      1  N   LIG    1       25.168 -20.685   6.130  0.00  0.00    -0.299 N 
ATOM      2  H   LIG    1       24.655 -20.037   5.534  0.00  0.00    +0.154 HD
ENDROOT
BRANCH   1   4
ATOM      3  C   LIG    1       27.167 -20.481   7.544  0.00  0.00    +0.099 A 
ATOM      4  C   LIG    1       26.515 -20.299   6.312  0.00  0.00    +0.137 A 
ATOM      5  N   LIG    1       27.197 -19.793   5.249  0.00  0.00    -0.239 NA
ATOM      6  C   LIG    1       28.499 -19.468   5.387  0.00  0.00    +0.113 A 
ATOM      7  C   LIG    1       29.203 -19.628   6.560  0.00  0.00    +0.021 A 
ATOM      8  C   LIG    1       28.524 -20.141   7.656  0.00  0.00    +0.020 A 
BRANCH   3  10
ATOM      9  O   LIG    1       25.693 -20.327   9.443  0.00  0.00    -0.245 OA
ATOM     10  C   LIG    1       26.427 -20.979   8.729  0.00  0.00    +0.340 C 
BRANCH  10  11
ATOM     11  O   LIG    1       26.677 -22.280   8.985  0.00  0.00    -0.477 OA
ATOM     12  H   LIG    1       27.595 -22.429   8.676  0.00  0.00    +0.295 HD
ENDBRANCH  10  11
ENDBRANCH   3  10
ENDBRANCH   1   4
BRANCH   1  13
ATOM     13  C   LIG    1       24.574 -21.956   6.254  0.00  0.00    +0.033 A 
ATOM     14  C   LIG    1       25.228 -23.136   5.879  0.00  0.00    +0.035 A 
ATOM     15  C   LIG    1       24.622 -24.398   6.017  0.00  0.00    +0.057 A 
ATOM     16  C   LIG    1       23.321 -24.472   6.527  0.00  0.00    +0.012 A 
ATOM     17  C   LIG    1       22.652 -23.309   6.903  0.00  0.00    +0.002 A 
ATOM     18  C   LIG    1       23.278 -22.065   6.774  0.00  0.00    +0.023 A 
BRANCH  15  19
ATOM     19  C   LIG    1       25.394 -25.636   5.640  0.00  0.00    +0.417 C 
ATOM     20  F   LIG    1       25.471 -25.812   4.290  0.00  0.00    -0.166 F 
ATOM     21  F   LIG    1       24.842 -26.779   6.134  0.00  0.00    -0.166 F 
ATOM     22  F   LIG    1       26.684 -25.629   6.082  0.00  0.00    -0.166 F 
ENDBRANCH  15  19
ENDBRANCH   1  13
TORSDOF 5
ENDMDL
MODEL 9
REMARK VINA RESULT:      -8.1      3.965      6.109
REMARK  Name = *****
REMARK                            x       y       z     vdW  Elec       q    Type
REMARK                         _______ _______ _______ _____ _____    ______ ____
ROOT
ATOM      1  N   LIG    1       27.751 -21.686   7.291  0.00  0.00    -0.299 N 
ATOM      2  H   LIG    1       28.089 -22.016   8.193  0.00  0.00    +0.154 HD
ENDROOT
BRANCH   1   4
ATOM      3  C   LIG    1       29.805 -20.340   7.246  0.00  0.00    +0.099 A 
ATOM      4  C   LIG    1       28.493 -20.585   6.806  0.00  0.00    +0.137 A 
ATOM      5  N   LIG    1       27.932 -19.789   5.857  0.00  0.00    -0.239 NA
ATOM      6  C   LIG    1       28.644 -18.764   5.343  0.00  0.00    +0.113 A 
ATOM      7  C   LIG    1       29.937 -18.472   5.717  0.00  0.00    +0.021 A 
ATOM      8  C   LIG    1       30.524 -19.272   6.687  0.00  0.00    +0.020 A 
BRANCH   3  10
ATOM      9  O   LIG    1       29.817 -21.772   9.183  0.00  0.00    -0.245 OA
ATOM     10  C   LIG    1       30.414 -21.163   8.319  0.00  0.00    +0.340 C 
BRANCH  10  11
ATOM     11  O   LIG    1       31.763 -21.152   8.277  0.00  0.00    -0.477 OA
ATOM     12  H   LIG    1       31.991 -20.505   7.577  0.00  0.00    +0.295 HD
ENDBRANCH  10  11
ENDBRANCH   3  10
ENDBRANCH   1   4
BRANCH   1  13
ATOM     13  C   LIG    1       26.440 -22.092   6.977  0.00  0.00    +0.033 A 
ATOM     14  C   LIG    1       25.464 -21.203   6.508  0.00  0.00    +0.035 A 
ATOM     15  C   LIG    1       24.161 -21.629   6.193  0.00  0.00    +0.057 A 
ATOM     16  C   LIG    1       23.827 -22.976   6.371  0.00  0.00    +0.012 A 
ATOM     17  C   LIG    1       24.782 -23.876   6.840  0.00  0.00    +0.002 A 
ATOM     18  C   LIG    1       26.078 -23.437   7.131  0.00  0.00    +0.023 A 
BRANCH  15  19
ATOM     19  C   LIG    1       23.169 -20.635   5.648  0.00  0.00    +0.417 C 
ATOM     20  F   LIG    1       22.037 -21.231   5.178  0.00  0.00    -0.166 F 
ATOM     21  F   LIG    1       23.662 -19.903   4.610  0.00  0.00    -0.166 F 
ATOM     22  F   LIG    1       22.746 -19.725   6.572  0.00  0.00    -0.166 F 
ENDBRANCH  15  19
ENDBRANCH   1  13
TORSDOF 5
ENDMDL
