MODEL 1
REMARK VINA RESULT:      -6.0      0.000      0.000
REMARK  Name = *****
REMARK                            x       y       z     vdW  Elec       q    Type
REMARK                         _______ _______ _______ _____ _____    ______ ____
ROOT
ATOM      1  C   LIG    1       25.659 -21.349   6.229  0.00  0.00    +0.035 C 
ENDROOT
BRANCH   1   2
ATOM      2  C   LIG    1       24.645 -20.509   5.488  0.00  0.00    -0.047 A 
ATOM      3  C   LIG    1       25.019 -19.813   4.330  0.00  0.00    +0.003 A 
ATOM      4  C   LIG    1       24.087 -19.051   3.626  0.00  0.00    +0.000 A 
ATOM      5  C   LIG    1       22.767 -18.983   4.067  0.00  0.00    +0.000 A 
ATOM      6  C   LIG    1       22.383 -19.670   5.217  0.00  0.00    +0.000 A 
ATOM      7  C   LIG    1       23.316 -20.429   5.927  0.00  0.00    +0.003 A 
ENDBRANCH   1   2
BRANCH   1   8
ATOM      8  C   LIG    1       26.725 -20.524   6.966  0.00  0.00    +0.016 C 
BRANCH   8   9
ATOM      9  C   LIG    1       28.129 -20.629   6.359  0.00  0.00    +0.121 C 
BRANCH   9  11
ATOM     10  O   LIG    1       29.475 -18.670   6.799  0.00  0.00    -0.251 OA
ATOM     11  C   LIG    1       28.729 -19.283   6.045  0.00  0.00    +0.305 C 
BRANCH  11  12
ATOM     12  O   LIG    1       28.408 -18.808   4.824  0.00  0.00    -0.481 OA
ATOM     13  H   LIG    1       29.164 -18.473   4.305  0.00  0.00    +0.295 HD
ENDBRANCH  11  12
ENDBRANCH   9  11
ENDBRANCH   8   9
ENDBRANCH   1   8
TORSDOF 5
ENDMDL
MODEL 2
REMARK VINA RESULT:      -5.8      3.357      4.412
REMARK  Name = *****
REMARK                            x       y       z     vdW  Elec       q    Type
REMARK                         _______ _______ _______ _____ _____    ______ ____
ROOT
ATOM      1  C   LIG    1       25.843 -17.931   3.241  0.00  0.00    +0.035 C 
ENDROOT
BRANCH   1   2
ATOM      2  C   LIG    1       24.696 -18.723   3.825  0.00  0.00    -0.047 A 
ATOM      3  C   LIG    1       24.903 -20.035   4.274  0.00  0.00    +0.003 A 
ATOM      4  C   LIG    1       23.857 -20.768   4.834  0.00  0.00    +0.000 A 
ATOM      5  C   LIG    1       22.594 -20.195   4.959  0.00  0.00    +0.000 A 
ATOM      6  C   LIG    1       22.375 -18.892   4.516  0.00  0.00    +0.000 A 
ATOM      7  C   LIG    1       23.420 -18.158   3.950  0.00  0.00    +0.003 A 
ENDBRANCH   1   2
BRANCH   1   8
ATOM      8  C   LIG    1       25.645 -16.409   3.319  0.00  0.00    +0.016 C 
BRANCH   8   9
ATOM      9  C   LIG    1       26.934 -15.622   3.587  0.00  0.00    +0.121 C 
BRANCH   9  11
ATOM     10  O   LIG    1       26.259 -14.082   1.850  0.00  0.00    -0.251 OA
ATOM     11  C   LIG    1       27.037 -14.373   2.751  0.00  0.00    +0.305 C 
BRANCH  11  12
ATOM     12  O   LIG    1       28.050 -13.556   3.104  0.00  0.00    -0.481 OA
ATOM     13  H   LIG    1       28.818 -14.007   3.504  0.00  0.00    +0.295 HD
ENDBRANCH  11  12
ENDBRANCH   9  11
ENDBRANCH   8   9
ENDBRANCH   1   8
TORSDOF 5
ENDMDL
MODEL 3
REMARK VINA RESULT:      -5.7      3.372      4.463
REMARK  Name = *****
REMARK                            x       y       z     vdW  Elec       q    Type
REMARK                         _______ _______ _______ _____ _____    ______ ____
ROOT
ATOM      1  C   LIG    1       25.858 -17.924   3.257  0.00  0.00    +0.035 C 
ENDROOT
BRANCH   1   2
ATOM      2  C   LIG    1       24.719 -18.718   3.852  0.00  0.00    -0.047 A 
ATOM      3  C   LIG    1       23.448 -18.141   3.979  0.00  0.00    +0.003 A 
ATOM      4  C   LIG    1       22.385 -18.871   4.507  0.00  0.00    +0.000 A 
ATOM      5  C   LIG    1       22.577 -20.191   4.907  0.00  0.00    +0.000 A 
ATOM      6  C   LIG    1       23.835 -20.777   4.787  0.00  0.00    +0.000 A 
ATOM      7  C   LIG    1       24.903 -20.045   4.263  0.00  0.00    +0.003 A 
ENDBRANCH   1   2
BRANCH   1   8
ATOM      8  C   LIG    1       25.631 -16.405   3.282  0.00  0.00    +0.016 C 
BRANCH   8   9
ATOM      9  C   LIG    1       26.894 -15.587   3.581  0.00  0.00    +0.121 C 
BRANCH   9  11
ATOM     10  O   LIG    1       26.212 -14.057   1.839  0.00  0.00    -0.251 OA
ATOM     11  C   LIG    1       26.999 -14.348   2.731  0.00  0.00    +0.305 C 
BRANCH  11  12
ATOM     12  O   LIG    1       28.028 -13.539   3.061  0.00  0.00    -0.481 OA
ATOM     13  H   LIG    1       27.961 -12.630   2.711  0.00  0.00    +0.295 HD
ENDBRANCH  11  12
ENDBRANCH   9  11
ENDBRANCH   8   9
ENDBRANCH   1   8
TORSDOF 5
ENDMDL
MODEL 4
REMARK VINA RESULT:      -5.3      2.545      4.948
REMARK  Name = *****
REMARK                            x       y       z     vdW  Elec       q    Type
REMARK                         _______ _______ _______ _____ _____    ______ ____
ROOT
ATOM      1  C   LIG    1       24.651 -21.527   6.138  0.00  0.00    +0.035 C 
ENDROOT
BRANCH   1   2
ATOM      2  C   LIG    1       26.056 -20.971   6.144  0.00  0.00    -0.047 A 
ATOM      3  C   LIG    1       27.000 -21.451   7.062  0.00  0.00    +0.003 A 
ATOM      4  C   LIG    1       28.305 -20.961   7.062  0.00  0.00    +0.000 A 
ATOM      5  C   LIG    1       28.685 -19.990   6.137  0.00  0.00    +0.000 A 
ATOM      6  C   LIG    1       27.756 -19.505   5.219  0.00  0.00    +0.000 A 
ATOM      7  C   LIG    1       26.446 -19.990   5.221  0.00  0.00    +0.003 A 
ENDBRANCH   1   2
BRANCH   1   8
ATOM      8  C   LIG    1       23.563 -20.458   6.323  0.00  0.00    +0.016 C 
BRANCH   8   9
ATOM      9  C   LIG    1       22.617 -20.313   5.125  0.00  0.00    +0.121 C 
BRANCH   9  11
ATOM     10  O   LIG    1       22.138 -17.986   4.678  0.00  0.00    -0.251 OA
ATOM     11  C   LIG    1       22.780 -18.995   4.412  0.00  0.00    +0.305 C 
BRANCH  11  12
ATOM     12  O   LIG    1       23.737 -18.997   3.462  0.00  0.00    -0.481 OA
ATOM     13  H   LIG    1       24.482 -18.389   3.631  0.00  0.00    +0.295 HD
ENDBRANCH  11  12
ENDBRANCH   9  11
ENDBRANCH   8   9
ENDBRANCH   1   8
TORSDOF 5
ENDMDL
MODEL 5
REMARK VINA RESULT:      -5.3      6.105      6.902
REMARK  Name = *****
REMARK                            x       y       z     vdW  Elec       q    Type
REMARK                         _______ _______ _______ _____ _____    ______ ____
ROOT
ATOM      1  C   LIG    1       25.784 -15.294   3.358  0.00  0.00    +0.035 C 
ENDROOT
BRANCH   1   2
ATOM      2  C   LIG    1       25.120 -13.941   3.255  0.00  0.00    -0.047 A 
ATOM      3  C   LIG    1       25.199 -13.206   2.064  0.00  0.00    +0.003 A 
ATOM      4  C   LIG    1       24.571 -11.967   1.951  0.00  0.00    +0.000 A 
ATOM      5  C   LIG    1       23.850 -11.450   3.024  0.00  0.00    +0.000 A 
ATOM      6  C   LIG    1       23.763 -12.170   4.213  0.00  0.00    +0.000 A 
ATOM      7  C   LIG    1       24.396 -13.410   4.331  0.00  0.00    +0.003 A 
ENDBRANCH   1   2
BRANCH   1   8
ATOM      8  C   LIG    1       27.265 -15.226   3.763  0.00  0.00    +0.016 C 
BRANCH   8   9
ATOM      9  C   LIG    1       27.569 -14.191   4.854  0.00  0.00    +0.121 C 
BRANCH   9  11
ATOM     10  O   LIG    1       28.852 -12.154   5.070  0.00  0.00    -0.251 OA
ATOM     11  C   LIG    1       28.440 -13.065   4.362  0.00  0.00    +0.305 C 
BRANCH  11  12
ATOM     12  O   LIG    1       28.775 -13.157   3.059  0.00  0.00    -0.481 OA
ATOM     13  H   LIG    1       28.071 -12.891   2.436  0.00  0.00    +0.295 HD
ENDBRANCH  11  12
ENDBRANCH   9  11
ENDBRANCH   8   9
ENDBRANCH   1   8
TORSDOF 5
ENDMDL
MODEL 6
REMARK VINA RESULT:      -5.1      3.980      5.145
REMARK  Name = *****
REMARK                            x       y       z     vdW  Elec       q    Type
REMARK                         _______ _______ _______ _____ _____    ______ ____
ROOT
ATOM      1  C   LIG    1       26.107 -17.085   3.363  0.00  0.00    +0.035 C 
ENDROOT
BRANCH   1   2
ATOM      2  C   LIG    1       25.739 -15.620   3.360  0.00  0.00    -0.047 A 
ATOM      3  C   LIG    1       26.593 -14.681   2.764  0.00  0.00    +0.003 A 
ATOM      4  C   LIG    1       26.254 -13.329   2.737  0.00  0.00    +0.000 A 
ATOM      5  C   LIG    1       25.053 -12.900   3.297  0.00  0.00    +0.000 A 
ATOM      6  C   LIG    1       24.196 -13.823   3.892  0.00  0.00    +0.000 A 
ATOM      7  C   LIG    1       24.536 -15.177   3.926  0.00  0.00    +0.003 A 
ENDBRANCH   1   2
BRANCH   1   8
ATOM      8  C   LIG    1       24.909 -18.022   3.588  0.00  0.00    +0.016 C 
BRANCH   8   9
ATOM      9  C   LIG    1       25.254 -19.513   3.493  0.00  0.00    +0.121 C 
BRANCH   9  11
ATOM     10  O   LIG    1       25.072 -20.449   5.715  0.00  0.00    -0.251 OA
ATOM     11  C   LIG    1       25.781 -20.071   4.790  0.00  0.00    +0.305 C 
BRANCH  11  12
ATOM     12  O   LIG    1       27.125 -20.165   4.843  0.00  0.00    -0.481 OA
ATOM     13  H   LIG    1       27.482 -21.051   4.636  0.00  0.00    +0.295 HD
ENDBRANCH  11  12
ENDBRANCH   9  11
ENDBRANCH   8   9
ENDBRANCH   1   8
TORSDOF 5
ENDMDL
MODEL 7
REMARK VINA RESULT:      -4.9      2.859      5.340
REMARK  Name = *****
REMARK                            x       y       z     vdW  Elec       q    Type
REMARK                         _______ _______ _______ _____ _____    ______ ____
ROOT
ATOM      1  C   LIG    1       25.676 -19.256   3.970  0.00  0.00    +0.035 C 
ENDROOT
BRANCH   1   2
ATOM      2  C   LIG    1       26.517 -19.876   5.061  0.00  0.00    -0.047 A 
ATOM      3  C   LIG    1       25.973 -20.862   5.896  0.00  0.00    +0.003 A 
ATOM      4  C   LIG    1       26.746 -21.456   6.893  0.00  0.00    +0.000 A 
ATOM      5  C   LIG    1       28.076 -21.078   7.061  0.00  0.00    +0.000 A 
ATOM      6  C   LIG    1       28.629 -20.100   6.238  0.00  0.00    +0.000 A 
ATOM      7  C   LIG    1       27.854 -19.499   5.242  0.00  0.00    +0.003 A 
ENDBRANCH   1   2
BRANCH   1   8
ATOM      8  C   LIG    1       24.367 -20.013   3.693  0.00  0.00    +0.016 C 
BRANCH   8   9
ATOM      9  C   LIG    1       23.136 -19.405   4.376  0.00  0.00    +0.121 C 
BRANCH   9  11
ATOM     10  O   LIG    1       21.588 -21.187   4.900  0.00  0.00    -0.251 OA
ATOM     11  C   LIG    1       22.431 -20.382   5.280  0.00  0.00    +0.305 C 
BRANCH  11  12
ATOM     12  O   LIG    1       22.834 -20.332   6.566  0.00  0.00    -0.481 OA
ATOM     13  H   LIG    1       23.752 -20.627   6.718  0.00  0.00    +0.295 HD
ENDBRANCH  11  12
ENDBRANCH   9  11
ENDBRANCH   8   9
ENDBRANCH   1   8
TORSDOF 5
ENDMDL
MODEL 8
REMARK VINA RESULT:      -4.9      2.973      5.208
REMARK  Name = *****
REMARK                            x       y       z     vdW  Elec       q    Type
REMARK                         _______ _______ _______ _____ _____    ______ ____
ROOT
ATOM      1  C   LIG    1       24.908 -19.815   3.919  0.00  0.00    +0.035 C 
ENDROOT
BRANCH   1   2
ATOM      2  C   LIG    1       25.919 -20.159   4.988  0.00  0.00    -0.047 A 
ATOM      3  C   LIG    1       27.202 -19.594   4.953  0.00  0.00    +0.003 A 
ATOM      4  C   LIG    1       28.135 -19.888   5.945  0.00  0.00    +0.000 A 
ATOM      5  C   LIG    1       27.795 -20.744   6.990  0.00  0.00    +0.000 A 
ATOM      6  C   LIG    1       26.524 -21.312   7.037  0.00  0.00    +0.000 A 
ATOM      7  C   LIG    1       25.589 -21.023   6.040  0.00  0.00    +0.003 A 
ENDBRANCH   1   2
BRANCH   1   8
ATOM      8  C   LIG    1       23.507 -20.385   4.187  0.00  0.00    +0.016 C 
BRANCH   8   9
ATOM      9  C   LIG    1       22.634 -19.505   5.090  0.00  0.00    +0.121 C 
BRANCH   9  11
ATOM     10  O   LIG    1       21.020 -18.583   3.546  0.00  0.00    -0.251 OA
ATOM     11  C   LIG    1       21.941 -18.402   4.333  0.00  0.00    +0.305 C 
BRANCH  11  12
ATOM     12  O   LIG    1       22.392 -17.165   4.625  0.00  0.00    -0.481 OA
ATOM     13  H   LIG    1       23.299 -16.978   4.314  0.00  0.00    +0.295 HD
ENDBRANCH  11  12
ENDBRANCH   9  11
ENDBRANCH   8   9
ENDBRANCH   1   8
TORSDOF 5
ENDMDL
MODEL 9
REMARK VINA RESULT:      -4.8      3.698      5.168
REMARK  Name = *****
REMARK                            x       y       z     vdW  Elec       q    Type
REMARK                         _______ _______ _______ _____ _____    ______ ____
ROOT
ATOM      1  C   LIG    1       22.529 -17.129   4.451  0.00  0.00    +0.035 C 
ENDROOT
BRANCH   1   2
ATOM      2  C   LIG    1       22.986 -18.569   4.410  0.00  0.00    -0.047 A 
ATOM      3  C   LIG    1       24.094 -18.934   3.634  0.00  0.00    +0.003 A 
ATOM      4  C   LIG    1       24.537 -20.256   3.605  0.00  0.00    +0.000 A 
ATOM      5  C   LIG    1       23.882 -21.227   4.358  0.00  0.00    +0.000 A 
ATOM      6  C   LIG    1       22.779 -20.877   5.134  0.00  0.00    +0.000 A 
ATOM      7  C   LIG    1       22.330 -19.554   5.160  0.00  0.00    +0.003 A 
ENDBRANCH   1   2
BRANCH   1   8
ATOM      8  C   LIG    1       23.652 -16.117   4.172  0.00  0.00    +0.016 C 
BRANCH   8   9
ATOM      9  C   LIG    1       23.267 -14.660   4.458  0.00  0.00    +0.121 C 
BRANCH   9  11
ATOM     10  O   LIG    1       25.304 -13.386   4.190  0.00  0.00    -0.251 OA
ATOM     11  C   LIG    1       24.184 -13.673   3.784  0.00  0.00    +0.305 C 
BRANCH  11  12
ATOM     12  O   LIG    1       23.685 -13.145   2.647  0.00  0.00    -0.481 OA
ATOM     13  H   LIG    1       24.111 -13.464   1.828  0.00  0.00    +0.295 HD
ENDBRANCH  11  12
ENDBRANCH   9  11
ENDBRANCH   8   9
ENDBRANCH   1   8
TORSDOF 5
ENDMDL
