MODEL 1
REMARK VINA RESULT:      -8.3      0.000      0.000
REMARK  Name = *****
REMARK                            x       y       z     vdW  Elec       q    Type
REMARK                         _______ _______ _______ _____ _____    ______ ____
ROOT
ATOM      1  N   LIG    1       26.154 -20.949   6.955  0.00  0.00    -0.298 N 
ATOM      2  C   LIG    1       27.412 -20.320   6.732  0.00  0.00    +0.048 A 
ATOM      3  C   LIG    1       27.671 -19.569   5.566  0.00  0.00    +0.034 A 
ATOM      4  C   LIG    1       28.877 -18.860   5.408  0.00  0.00    +0.017 A 
ATOM      5  C   LIG    1       29.865 -18.900   6.386  0.00  0.00    +0.013 A 
ATOM      6  C   LIG    1       29.660 -19.656   7.539  0.00  0.00    +0.057 A 
ATOM      7  S   LIG    1       26.551 -19.510   4.187  0.00  0.00    -0.086 S 
ATOM      8  C   LIG    1       25.029 -20.023   4.949  0.00  0.00    +0.034 A 
ATOM      9  C   LIG    1       23.855 -19.752   4.219  0.00  0.00    +0.017 A 
ATOM     10  C   LIG    1       22.608 -20.076   4.733  0.00  0.00    +0.001 A 
ATOM     11  C   LIG    1       22.522 -20.659   5.986  0.00  0.00    +0.002 A 
ATOM     12  C   LIG    1       23.687 -20.943   6.708  0.00  0.00    +0.024 A 
ATOM     13  C   LIG    1       28.440 -20.345   7.698  0.00  0.00    +0.037 A 
ATOM     14  C   LIG    1       24.977 -20.666   6.202  0.00  0.00    +0.048 A 
ENDROOT
BRANCH   6  15
ATOM     15  C   LIG    1       30.710 -19.746   8.618  0.00  0.00    +0.417 C 
ATOM     16  F   LIG    1       30.429 -18.939   9.678  0.00  0.00    -0.166 F 
ATOM     17  F   LIG    1       31.943 -19.368   8.180  0.00  0.00    -0.166 F 
ATOM     18  F   LIG    1       30.863 -20.998   9.131  0.00  0.00    -0.166 F 
ENDBRANCH   6  15
BRANCH   1  19
ATOM     19  C   LIG    1       26.123 -22.168   7.817  0.00  0.00    +0.112 C 
BRANCH  19  20
ATOM     20  C   LIG    1       26.204 -23.453   6.984  0.00  0.00    +0.035 C 
BRANCH  20  21
ATOM     21  C   LIG    1       24.883 -24.244   6.963  0.00  0.00    +0.085 C 
BRANCH  21  23
ATOM     22  C   LIG    1       25.126 -25.329   4.789  0.00  0.00    +0.104 C 
ATOM     23  N   LIG    1       24.910 -25.520   6.225  0.00  0.00    -0.308 NA
ATOM     24  C   LIG    1       25.974 -26.384   6.760  0.00  0.00    +0.104 C 
ENDBRANCH  21  23
ENDBRANCH  20  21
ENDBRANCH  19  20
ENDBRANCH   1  19
TORSDOF 5
ENDMDL
MODEL 2
REMARK VINA RESULT:      -7.8      3.395      5.934
REMARK  Name = *****
REMARK                            x       y       z     vdW  Elec       q    Type
REMARK                         _______ _______ _______ _____ _____    ______ ____
ROOT
ATOM      1  N   LIG    1       25.629 -21.565   5.572  0.00  0.00    -0.298 N 
ATOM      2  C   LIG    1       25.019 -22.787   5.978  0.00  0.00    +0.048 A 
ATOM      3  C   LIG    1       23.621 -22.906   6.125  0.00  0.00    +0.034 A 
ATOM      4  C   LIG    1       23.021 -24.146   6.418  0.00  0.00    +0.017 A 
ATOM      5  C   LIG    1       23.793 -25.288   6.599  0.00  0.00    +0.013 A 
ATOM      6  C   LIG    1       25.180 -25.206   6.493  0.00  0.00    +0.057 A 
ATOM      7  S   LIG    1       22.518 -21.515   6.029  0.00  0.00    -0.086 S 
ATOM      8  C   LIG    1       23.517 -20.334   5.152  0.00  0.00    +0.034 A 
ATOM      9  C   LIG    1       22.829 -19.238   4.597  0.00  0.00    +0.017 A 
ATOM     10  C   LIG    1       23.503 -18.274   3.861  0.00  0.00    +0.001 A 
ATOM     11  C   LIG    1       24.867 -18.405   3.663  0.00  0.00    +0.002 A 
ATOM     12  C   LIG    1       25.557 -19.484   4.227  0.00  0.00    +0.024 A 
ATOM     13  C   LIG    1       25.770 -23.964   6.178  0.00  0.00    +0.037 A 
ATOM     14  C   LIG    1       24.915 -20.464   5.016  0.00  0.00    +0.048 A 
ENDROOT
BRANCH   6  15
ATOM     15  C   LIG    1       26.059 -26.414   6.701  0.00  0.00    +0.417 C 
ATOM     16  F   LIG    1       25.487 -27.555   6.224  0.00  0.00    -0.166 F 
ATOM     17  F   LIG    1       26.318 -26.651   8.017  0.00  0.00    -0.166 F 
ATOM     18  F   LIG    1       27.272 -26.321   6.092  0.00  0.00    -0.166 F 
ENDBRANCH   6  15
BRANCH   1  19
ATOM     19  C   LIG    1       27.033 -21.303   6.010  0.00  0.00    +0.112 C 
BRANCH  19  20
ATOM     20  C   LIG    1       27.082 -20.708   7.421  0.00  0.00    +0.035 C 
BRANCH  20  21
ATOM     21  C   LIG    1       28.337 -19.849   7.671  0.00  0.00    +0.085 C 
BRANCH  21  23
ATOM     22  C   LIG    1       30.578 -19.430   6.797  0.00  0.00    +0.104 C 
ATOM     23  N   LIG    1       29.617 -20.442   7.241  0.00  0.00    -0.308 NA
ATOM     24  C   LIG    1       30.207 -21.213   8.346  0.00  0.00    +0.104 C 
ENDBRANCH  21  23
ENDBRANCH  20  21
ENDBRANCH  19  20
ENDBRANCH   1  19
TORSDOF 5
ENDMDL
MODEL 3
REMARK VINA RESULT:      -6.4      4.262      7.451
REMARK  Name = *****
REMARK                            x       y       z     vdW  Elec       q    Type
REMARK                         _______ _______ _______ _____ _____    ______ ____
ROOT
ATOM      1  N   LIG    1       27.489 -19.688   5.624  0.00  0.00    -0.298 N 
ATOM      2  C   LIG    1       26.225 -20.294   5.879  0.00  0.00    +0.048 A 
ATOM      3  C   LIG    1       26.079 -21.342   6.812  0.00  0.00    +0.034 A 
ATOM      4  C   LIG    1       24.809 -21.857   7.139  0.00  0.00    +0.017 A 
ATOM      5  C   LIG    1       23.660 -21.365   6.529  0.00  0.00    +0.013 A 
ATOM      6  C   LIG    1       23.765 -20.351   5.579  0.00  0.00    +0.057 A 
ATOM      7  S   LIG    1       27.462 -22.142   7.591  0.00  0.00    -0.086 S 
ATOM      8  C   LIG    1       28.740 -20.926   7.371  0.00  0.00    +0.034 A 
ATOM      9  C   LIG    1       29.885 -21.084   8.176  0.00  0.00    +0.017 A 
ATOM     10  C   LIG    1       30.929 -20.174   8.114  0.00  0.00    +0.001 A 
ATOM     11  C   LIG    1       30.833 -19.090   7.257  0.00  0.00    +0.002 A 
ATOM     12  C   LIG    1       29.704 -18.938   6.444  0.00  0.00    +0.024 A 
ATOM     13  C   LIG    1       25.039 -19.827   5.275  0.00  0.00    +0.037 A 
ATOM     14  C   LIG    1       28.638 -19.865   6.448  0.00  0.00    +0.048 A 
ENDROOT
BRANCH   6  15
ATOM     15  C   LIG    1       22.549 -19.801   4.877  0.00  0.00    +0.417 C 
ATOM     16  F   LIG    1       22.824 -19.410   3.601  0.00  0.00    -0.166 F 
ATOM     17  F   LIG    1       22.038 -18.703   5.499  0.00  0.00    -0.166 F 
ATOM     18  F   LIG    1       21.521 -20.689   4.783  0.00  0.00    -0.166 F 
ENDBRANCH   6  15
BRANCH   1  19
ATOM     19  C   LIG    1       27.712 -19.075   4.281  0.00  0.00    +0.112 C 
BRANCH  19  20
ATOM     20  C   LIG    1       27.590 -17.547   4.330  0.00  0.00    +0.035 C 
BRANCH  20  21
ATOM     21  C   LIG    1       26.452 -17.003   3.447  0.00  0.00    +0.085 C 
BRANCH  21  23
ATOM     22  C   LIG    1       25.219 -14.903   3.627  0.00  0.00    +0.104 C 
ATOM     23  N   LIG    1       26.465 -15.549   3.205  0.00  0.00    -0.308 NA
ATOM     24  C   LIG    1       27.591 -14.933   3.923  0.00  0.00    +0.104 C 
ENDBRANCH  21  23
ENDBRANCH  20  21
ENDBRANCH  19  20
ENDBRANCH   1  19
TORSDOF 5
ENDMDL
MODEL 4
REMARK VINA RESULT:      -6.3      3.553      5.676
REMARK  Name = *****
REMARK                            x       y       z     vdW  Elec       q    Type
REMARK                         _______ _______ _______ _____ _____    ______ ____
ROOT
ATOM      1  N   LIG    1       27.511 -20.617   7.260  0.00  0.00    -0.298 N 
ATOM      2  C   LIG    1       26.919 -20.075   6.084  0.00  0.00    +0.048 A 
ATOM      3  C   LIG    1       27.607 -19.159   5.260  0.00  0.00    +0.034 A 
ATOM      4  C   LIG    1       27.056 -18.716   4.042  0.00  0.00    +0.017 A 
ATOM      5  C   LIG    1       25.801 -19.147   3.626  0.00  0.00    +0.013 A 
ATOM      6  C   LIG    1       25.076 -20.026   4.427  0.00  0.00    +0.057 A 
ATOM      7  S   LIG    1       29.170 -18.441   5.711  0.00  0.00    -0.086 S 
ATOM      8  C   LIG    1       29.746 -19.593   6.936  0.00  0.00    +0.034 A 
ATOM      9  C   LIG    1       31.116 -19.518   7.254  0.00  0.00    +0.017 A 
ATOM     10  C   LIG    1       31.682 -20.393   8.170  0.00  0.00    +0.001 A 
ATOM     11  C   LIG    1       30.887 -21.358   8.765  0.00  0.00    +0.002 A 
ATOM     12  C   LIG    1       29.522 -21.425   8.464  0.00  0.00    +0.024 A 
ATOM     13  C   LIG    1       25.645 -20.482   5.634  0.00  0.00    +0.037 A 
ATOM     14  C   LIG    1       28.900 -20.527   7.567  0.00  0.00    +0.048 A 
ENDROOT
BRANCH   6  15
ATOM     15  C   LIG    1       23.702 -20.505   4.027  0.00  0.00    +0.417 C 
ATOM     16  F   LIG    1       23.741 -21.344   2.955  0.00  0.00    -0.166 F 
ATOM     17  F   LIG    1       22.877 -19.483   3.667  0.00  0.00    -0.166 F 
ATOM     18  F   LIG    1       23.050 -21.184   5.010  0.00  0.00    -0.166 F 
ENDBRANCH   6  15
BRANCH   1  19
ATOM     19  C   LIG    1       26.604 -21.047   8.366  0.00  0.00    +0.112 C 
BRANCH  19  20
ATOM     20  C   LIG    1       26.221 -22.526   8.241  0.00  0.00    +0.035 C 
BRANCH  20  21
ATOM     21  C   LIG    1       24.815 -22.738   7.649  0.00  0.00    +0.085 C 
BRANCH  21  23
ATOM     22  C   LIG    1       25.786 -24.729   6.618  0.00  0.00    +0.104 C 
ATOM     23  N   LIG    1       24.721 -23.724   6.556  0.00  0.00    -0.308 NA
ATOM     24  C   LIG    1       23.417 -24.403   6.607  0.00  0.00    +0.104 C 
ENDBRANCH  21  23
ENDBRANCH  20  21
ENDBRANCH  19  20
ENDBRANCH   1  19
TORSDOF 5
ENDMDL
MODEL 5
REMARK VINA RESULT:      -5.9      6.597     10.077
REMARK  Name = *****
REMARK                            x       y       z     vdW  Elec       q    Type
REMARK                         _______ _______ _______ _____ _____    ______ ____
ROOT
ATOM      1  N   LIG    1       25.798 -29.809   8.990  0.00  0.00    -0.298 N 
ATOM      2  C   LIG    1       25.356 -29.192   7.785  0.00  0.00    +0.048 A 
ATOM      3  C   LIG    1       24.661 -29.915   6.792  0.00  0.00    +0.034 A 
ATOM      4  C   LIG    1       24.131 -29.271   5.657  0.00  0.00    +0.017 A 
ATOM      5  C   LIG    1       24.300 -27.904   5.466  0.00  0.00    +0.013 A 
ATOM      6  C   LIG    1       25.007 -27.161   6.409  0.00  0.00    +0.057 A 
ATOM      7  S   LIG    1       24.460 -31.680   6.846  0.00  0.00    -0.086 S 
ATOM      8  C   LIG    1       24.744 -32.014   8.569  0.00  0.00    +0.034 A 
ATOM      9  C   LIG    1       24.318 -33.275   9.029  0.00  0.00    +0.017 A 
ATOM     10  C   LIG    1       24.457 -33.629  10.364  0.00  0.00    +0.001 A 
ATOM     11  C   LIG    1       25.008 -32.720  11.251  0.00  0.00    +0.002 A 
ATOM     12  C   LIG    1       25.447 -31.472  10.795  0.00  0.00    +0.024 A 
ATOM     13  C   LIG    1       25.515 -27.810   7.553  0.00  0.00    +0.037 A 
ATOM     14  C   LIG    1       25.360 -31.090   9.438  0.00  0.00    +0.048 A 
ENDROOT
BRANCH   6  15
ATOM     15  C   LIG    1       25.233 -25.679   6.234  0.00  0.00    +0.417 C 
ATOM     16  F   LIG    1       24.113 -24.952   6.503  0.00  0.00    -0.166 F 
ATOM     17  F   LIG    1       25.591 -25.352   4.962  0.00  0.00    -0.166 F 
ATOM     18  F   LIG    1       26.208 -25.174   7.039  0.00  0.00    -0.166 F 
ENDBRANCH   6  15
BRANCH   1  19
ATOM     19  C   LIG    1       26.991 -29.229   9.677  0.00  0.00    +0.112 C 
BRANCH  19  20
ATOM     20  C   LIG    1       26.594 -28.127  10.666  0.00  0.00    +0.035 C 
BRANCH  20  21
ATOM     21  C   LIG    1       27.216 -28.316  12.062  0.00  0.00    +0.085 C 
BRANCH  21  23
ATOM     22  C   LIG    1       26.676 -26.086  12.901  0.00  0.00    +0.104 C 
ATOM     23  N   LIG    1       26.604 -27.529  13.149  0.00  0.00    -0.308 NA
ATOM     24  C   LIG    1       25.196 -27.917  13.317  0.00  0.00    +0.104 C 
ENDBRANCH  21  23
ENDBRANCH  20  21
ENDBRANCH  19  20
ENDBRANCH   1  19
TORSDOF 5
ENDMDL
MODEL 6
REMARK VINA RESULT:      -5.9      6.111      9.580
REMARK  Name = *****
REMARK                            x       y       z     vdW  Elec       q    Type
REMARK                         _______ _______ _______ _____ _____    ______ ____
ROOT
ATOM      1  N   LIG    1       24.890 -29.704   8.095  0.00  0.00    -0.298 N 
ATOM      2  C   LIG    1       25.098 -28.797   7.015  0.00  0.00    +0.048 A 
ATOM      3  C   LIG    1       25.274 -29.249   5.690  0.00  0.00    +0.034 A 
ATOM      4  C   LIG    1       25.367 -28.342   4.617  0.00  0.00    +0.017 A 
ATOM      5  C   LIG    1       25.317 -26.969   4.834  0.00  0.00    +0.013 A 
ATOM      6  C   LIG    1       25.175 -26.483   6.132  0.00  0.00    +0.057 A 
ATOM      7  S   LIG    1       25.463 -30.966   5.272  0.00  0.00    -0.086 S 
ATOM      8  C   LIG    1       24.771 -31.755   6.707  0.00  0.00    +0.034 A 
ATOM      9  C   LIG    1       24.442 -33.117   6.561  0.00  0.00    +0.017 A 
ATOM     10  C   LIG    1       23.862 -33.824   7.604  0.00  0.00    +0.001 A 
ATOM     11  C   LIG    1       23.594 -33.173   8.797  0.00  0.00    +0.002 A 
ATOM     12  C   LIG    1       23.934 -31.825   8.951  0.00  0.00    +0.024 A 
ATOM     13  C   LIG    1       25.061 -27.399   7.198  0.00  0.00    +0.037 A 
ATOM     14  C   LIG    1       24.562 -31.081   7.927  0.00  0.00    +0.048 A 
ENDROOT
BRANCH   6  15
ATOM     15  C   LIG    1       25.136 -25.002   6.418  0.00  0.00    +0.417 C 
ATOM     16  F   LIG    1       25.972 -24.652   7.435  0.00  0.00    -0.166 F 
ATOM     17  F   LIG    1       23.898 -24.575   6.792  0.00  0.00    -0.166 F 
ATOM     18  F   LIG    1       25.494 -24.229   5.357  0.00  0.00    -0.166 F 
ENDBRANCH   6  15
BRANCH   1  19
ATOM     19  C   LIG    1       25.315 -29.275   9.461  0.00  0.00    +0.112 C 
BRANCH  19  20
ATOM     20  C   LIG    1       26.818 -29.488   9.678  0.00  0.00    +0.035 C 
BRANCH  20  21
ATOM     21  C   LIG    1       27.350 -28.787  10.942  0.00  0.00    +0.085 C 
BRANCH  21  23
ATOM     22  C   LIG    1       26.095 -29.198  12.996  0.00  0.00    +0.104 C 
ATOM     23  N   LIG    1       26.327 -28.283  11.876  0.00  0.00    -0.308 NA
ATOM     24  C   LIG    1       26.736 -26.972  12.404  0.00  0.00    +0.104 C 
ENDBRANCH  21  23
ENDBRANCH  20  21
ENDBRANCH  19  20
ENDBRANCH   1  19
TORSDOF 5
ENDMDL
MODEL 7
REMARK VINA RESULT:      -5.5      6.262     10.387
REMARK  Name = *****
REMARK                            x       y       z     vdW  Elec       q    Type
REMARK                         _______ _______ _______ _____ _____    ______ ____
ROOT
ATOM      1  N   LIG    1       25.195 -30.224   7.426  0.00  0.00    -0.298 N 
ATOM      2  C   LIG    1       25.345 -30.397   8.832  0.00  0.00    +0.048 A 
ATOM      3  C   LIG    1       25.340 -31.676   9.428  0.00  0.00    +0.034 A 
ATOM      4  C   LIG    1       25.601 -31.841  10.802  0.00  0.00    +0.017 A 
ATOM      5  C   LIG    1       25.846 -30.744  11.621  0.00  0.00    +0.013 A 
ATOM      6  C   LIG    1       25.829 -29.462  11.076  0.00  0.00    +0.057 A 
ATOM      7  S   LIG    1       24.938 -33.157   8.532  0.00  0.00    -0.086 S 
ATOM      8  C   LIG    1       25.211 -32.637   6.854  0.00  0.00    +0.034 A 
ATOM      9  C   LIG    1       25.323 -33.669   5.901  0.00  0.00    +0.017 A 
ATOM     10  C   LIG    1       25.572 -33.380   4.567  0.00  0.00    +0.001 A 
ATOM     11  C   LIG    1       25.726 -32.060   4.177  0.00  0.00    +0.002 A 
ATOM     12  C   LIG    1       25.600 -31.032   5.118  0.00  0.00    +0.024 A 
ATOM     13  C   LIG    1       25.588 -29.308   9.695  0.00  0.00    +0.037 A 
ATOM     14  C   LIG    1       25.306 -31.282   6.477  0.00  0.00    +0.048 A 
ENDROOT
BRANCH   6  15
ATOM     15  C   LIG    1       26.069 -28.241  11.929  0.00  0.00    +0.417 C 
ATOM     16  F   LIG    1       26.711 -27.253  11.245  0.00  0.00    -0.166 F 
ATOM     17  F   LIG    1       26.847 -28.506  13.015  0.00  0.00    -0.166 F 
ATOM     18  F   LIG    1       24.929 -27.678  12.414  0.00  0.00    -0.166 F 
ENDBRANCH   6  15
BRANCH   1  19
ATOM     19  C   LIG    1       24.608 -28.941   6.937  0.00  0.00    +0.112 C 
BRANCH  19  20
ATOM     20  C   LIG    1       25.661 -28.063   6.251  0.00  0.00    +0.035 C 
BRANCH  20  21
ATOM     21  C   LIG    1       25.887 -26.719   6.968  0.00  0.00    +0.085 C 
BRANCH  21  23
ATOM     22  C   LIG    1       25.175 -25.584   4.925  0.00  0.00    +0.104 C 
ATOM     23  N   LIG    1       26.061 -25.545   6.092  0.00  0.00    -0.308 NA
ATOM     24  C   LIG    1       25.802 -24.312   6.851  0.00  0.00    +0.104 C 
ENDBRANCH  21  23
ENDBRANCH  20  21
ENDBRANCH  19  20
ENDBRANCH   1  19
TORSDOF 5
ENDMDL
MODEL 8
REMARK VINA RESULT:      -5.5     10.520     11.911
REMARK  Name = *****
REMARK                            x       y       z     vdW  Elec       q    Type
REMARK                         _______ _______ _______ _____ _____    ______ ____
ROOT
ATOM      1  N   LIG    1       22.942 -29.839  11.572  0.00  0.00    -0.298 N 
ATOM      2  C   LIG    1       22.712 -28.702  12.400  0.00  0.00    +0.048 A 
ATOM      3  C   LIG    1       23.771 -27.883  12.848  0.00  0.00    +0.034 A 
ATOM      4  C   LIG    1       23.522 -26.701  13.571  0.00  0.00    +0.017 A 
ATOM      5  C   LIG    1       22.225 -26.317  13.891  0.00  0.00    +0.013 A 
ATOM      6  C   LIG    1       21.154 -27.115  13.493  0.00  0.00    +0.057 A 
ATOM      7  S   LIG    1       25.482 -28.300  12.608  0.00  0.00    -0.086 S 
ATOM      8  C   LIG    1       25.375 -29.467  11.270  0.00  0.00    +0.034 A 
ATOM      9  C   LIG    1       26.580 -29.737  10.593  0.00  0.00    +0.017 A 
ATOM     10  C   LIG    1       26.608 -30.604   9.510  0.00  0.00    +0.001 A 
ATOM     11  C   LIG    1       25.430 -31.197   9.087  0.00  0.00    +0.002 A 
ATOM     12  C   LIG    1       24.233 -30.943   9.767  0.00  0.00    +0.024 A 
ATOM     13  C   LIG    1       21.411 -28.286  12.751  0.00  0.00    +0.037 A 
ATOM     14  C   LIG    1       24.171 -30.098  10.898  0.00  0.00    +0.048 A 
ENDROOT
BRANCH   6  15
ATOM     15  C   LIG    1       19.730 -26.750  13.835  0.00  0.00    +0.417 C 
ATOM     16  F   LIG    1       18.925 -27.845  13.921  0.00  0.00    -0.166 F 
ATOM     17  F   LIG    1       19.159 -25.942  12.900  0.00  0.00    -0.166 F 
ATOM     18  F   LIG    1       19.601 -26.097  15.022  0.00  0.00    -0.166 F 
ENDBRANCH   6  15
BRANCH   1  19
ATOM     19  C   LIG    1       21.961 -30.962  11.638  0.00  0.00    +0.112 C 
BRANCH  19  20
ATOM     20  C   LIG    1       20.817 -30.774  10.635  0.00  0.00    +0.035 C 
BRANCH  20  21
ATOM     21  C   LIG    1       20.043 -32.074  10.348  0.00  0.00    +0.085 C 
BRANCH  21  23
ATOM     22  C   LIG    1       18.267 -31.556  11.942  0.00  0.00    +0.104 C 
ATOM     23  N   LIG    1       18.590 -32.024  10.592  0.00  0.00    -0.308 NA
ATOM     24  C   LIG    1       17.949 -31.136   9.610  0.00  0.00    +0.104 C 
ENDBRANCH  21  23
ENDBRANCH  20  21
ENDBRANCH  19  20
ENDBRANCH   1  19
TORSDOF 5
ENDMDL
MODEL 9
REMARK VINA RESULT:      -5.4      6.138      9.703
REMARK  Name = *****
REMARK                            x       y       z     vdW  Elec       q    Type
REMARK                         _______ _______ _______ _____ _____    ______ ____
ROOT
ATOM      1  N   LIG    1       24.498 -29.765   7.956  0.00  0.00    -0.298 N 
ATOM      2  C   LIG    1       24.890 -28.836   6.950  0.00  0.00    +0.048 A 
ATOM      3  C   LIG    1       25.230 -29.254   5.645  0.00  0.00    +0.034 A 
ATOM      4  C   LIG    1       25.508 -28.319   4.629  0.00  0.00    +0.017 A 
ATOM      5  C   LIG    1       25.482 -26.953   4.888  0.00  0.00    +0.013 A 
ATOM      6  C   LIG    1       25.181 -26.501   6.171  0.00  0.00    +0.057 A 
ATOM      7  S   LIG    1       25.407 -30.964   5.194  0.00  0.00    -0.086 S 
ATOM      8  C   LIG    1       24.491 -31.766   6.490  0.00  0.00    +0.034 A 
ATOM      9  C   LIG    1       24.131 -33.106   6.250  0.00  0.00    +0.017 A 
ATOM     10  C   LIG    1       23.385 -33.819   7.176  0.00  0.00    +0.001 A 
ATOM     11  C   LIG    1       22.979 -33.194   8.344  0.00  0.00    +0.002 A 
ATOM     12  C   LIG    1       23.348 -31.867   8.594  0.00  0.00    +0.024 A 
ATOM     13  C   LIG    1       24.883 -27.444   7.177  0.00  0.00    +0.037 A 
ATOM     14  C   LIG    1       24.142 -31.121   7.694  0.00  0.00    +0.048 A 
ENDROOT
BRANCH   6  15
ATOM     15  C   LIG    1       25.162 -25.030   6.504  0.00  0.00    +0.417 C 
ATOM     16  F   LIG    1       23.906 -24.582   6.785  0.00  0.00    -0.166 F 
ATOM     17  F   LIG    1       25.610 -24.256   5.477  0.00  0.00    -0.166 F 
ATOM     18  F   LIG    1       25.926 -24.701   7.581  0.00  0.00    -0.166 F 
ENDBRANCH   6  15
BRANCH   1  19
ATOM     19  C   LIG    1       24.745 -29.399   9.382  0.00  0.00    +0.112 C 
BRANCH  19  20
ATOM     20  C   LIG    1       26.166 -29.772   9.823  0.00  0.00    +0.035 C 
BRANCH  20  21
ATOM     21  C   LIG    1       26.320 -29.859  11.353  0.00  0.00    +0.085 C 
BRANCH  21  23
ATOM     22  C   LIG    1       25.169 -31.956  11.845  0.00  0.00    +0.104 C 
ATOM     23  N   LIG    1       25.211 -30.509  12.075  0.00  0.00    -0.308 NA
ATOM     24  C   LIG    1       25.336 -30.256  13.518  0.00  0.00    +0.104 C 
ENDBRANCH  21  23
ENDBRANCH  20  21
ENDBRANCH  19  20
ENDBRANCH   1  19
TORSDOF 5
ENDMDL
