MODEL 1
REMARK VINA RESULT:      -4.5      0.000      0.000
REMARK  Name = *****
REMARK                            x       y       z     vdW  Elec       q    Type
REMARK                         _______ _______ _______ _____ _____    ______ ____
ROOT
ATOM      1  F   LIG    1       23.004 -20.748   7.200  0.00  0.00    -0.168 F 
ATOM      2  C   LIG    1       22.925 -20.500   5.869  0.00  0.00    +0.415 C 
ATOM      3  F   LIG    1       22.456 -19.242   5.718  0.00  0.00    -0.168 F 
ATOM      4  F   LIG    1       21.986 -21.347   5.379  0.00  0.00    -0.168 F 
ENDROOT
BRANCH   2   5
ATOM      5  C   LIG    1       24.270 -20.717   5.193  0.00  0.00    +0.251 C 
ATOM      6 CL   LIG    1       25.642 -20.544   6.318  0.00  0.00    -0.100 Cl
ATOM      7 BR   LIG    1       24.524 -19.463   3.715  0.00  0.00    -0.061 Br
ENDBRANCH   2   5
TORSDOF 1
ENDMDL
MODEL 2
REMARK VINA RESULT:      -4.5      0.028      1.424
REMARK  Name = *****
REMARK                            x       y       z     vdW  Elec       q    Type
REMARK                         _______ _______ _______ _____ _____    ______ ____
ROOT
ATOM      1  F   LIG    1       22.488 -19.250   5.739  0.00  0.00    -0.168 F 
ATOM      2  C   LIG    1       22.926 -20.525   5.887  0.00  0.00    +0.415 C 
ATOM      3  F   LIG    1       21.968 -21.341   5.397  0.00  0.00    -0.168 F 
ATOM      4  F   LIG    1       23.007 -20.746   7.222  0.00  0.00    -0.168 F 
ENDROOT
BRANCH   2   5
ATOM      5  C   LIG    1       24.275 -20.720   5.214  0.00  0.00    +0.251 C 
ATOM      6 CL   LIG    1       25.642 -20.525   6.341  0.00  0.00    -0.100 Cl
ATOM      7 BR   LIG    1       24.512 -19.462   3.736  0.00  0.00    -0.061 Br
ENDBRANCH   2   5
TORSDOF 1
ENDMDL
MODEL 3
REMARK VINA RESULT:      -4.4      2.167      2.388
REMARK  Name = *****
REMARK                            x       y       z     vdW  Elec       q    Type
REMARK                         _______ _______ _______ _____ _____    ______ ____
ROOT
ATOM      1  F   LIG    1       21.800 -21.082   5.065  0.00  0.00    -0.168 F 
ATOM      2  C   LIG    1       22.816 -20.362   5.602  0.00  0.00    +0.415 C 
ATOM      3  F   LIG    1       22.363 -19.103   5.791  0.00  0.00    -0.168 F 
ATOM      4  F   LIG    1       23.786 -20.308   4.657  0.00  0.00    -0.168 F 
ENDROOT
BRANCH   2   5
ATOM      5  C   LIG    1       23.327 -21.007   6.881  0.00  0.00    +0.251 C 
ATOM      6 CL   LIG    1       25.048 -20.658   7.187  0.00  0.00    -0.100 Cl
ATOM      7 BR   LIG    1       23.092 -22.948   6.831  0.00  0.00    -0.061 Br
ENDBRANCH   2   5
TORSDOF 1
ENDMDL
MODEL 4
REMARK VINA RESULT:      -4.4      2.183      2.372
REMARK  Name = *****
REMARK                            x       y       z     vdW  Elec       q    Type
REMARK                         _______ _______ _______ _____ _____    ______ ____
ROOT
ATOM      1  F   LIG    1       22.401 -19.185   5.836  0.00  0.00    -0.168 F 
ATOM      2  C   LIG    1       22.817 -20.457   5.619  0.00  0.00    +0.415 C 
ATOM      3  F   LIG    1       23.803 -20.409   4.696  0.00  0.00    -0.168 F 
ATOM      4  F   LIG    1       21.769 -21.111   5.061  0.00  0.00    -0.168 F 
ENDROOT
BRANCH   2   5
ATOM      5  C   LIG    1       23.251 -21.119   6.917  0.00  0.00    +0.251 C 
ATOM      6 CL   LIG    1       24.915 -20.685   7.389  0.00  0.00    -0.100 Cl
ATOM      7 BR   LIG    1       23.136 -23.066   6.787  0.00  0.00    -0.061 Br
ENDBRANCH   2   5
TORSDOF 1
ENDMDL
MODEL 5
REMARK VINA RESULT:      -4.3      2.375      2.445
REMARK  Name = *****
REMARK                            x       y       z     vdW  Elec       q    Type
REMARK                         _______ _______ _______ _____ _____    ______ ____
ROOT
ATOM      1  F   LIG    1       22.553 -19.723   6.097  0.00  0.00    -0.168 F 
ATOM      2  C   LIG    1       22.770 -20.808   5.313  0.00  0.00    +0.415 C 
ATOM      3  F   LIG    1       23.312 -20.370   4.156  0.00  0.00    -0.168 F 
ATOM      4  F   LIG    1       21.547 -21.318   5.023  0.00  0.00    -0.168 F 
ENDROOT
BRANCH   2   5
ATOM      5  C   LIG    1       23.639 -21.832   6.026  0.00  0.00    +0.251 C 
ATOM      6 CL   LIG    1       22.689 -23.150   6.760  0.00  0.00    -0.100 Cl
ATOM      7 BR   LIG    1       24.709 -20.990   7.428  0.00  0.00    -0.061 Br
ENDBRANCH   2   5
TORSDOF 1
ENDMDL
MODEL 6
REMARK VINA RESULT:      -4.2      3.163      3.462
REMARK  Name = *****
REMARK                            x       y       z     vdW  Elec       q    Type
REMARK                         _______ _______ _______ _____ _____    ______ ____
ROOT
ATOM      1  F   LIG    1       24.603 -18.560   3.481  0.00  0.00    -0.168 F 
ATOM      2  C   LIG    1       24.336 -19.843   3.829  0.00  0.00    +0.415 C 
ATOM      3  F   LIG    1       25.398 -20.302   4.528  0.00  0.00    -0.168 F 
ATOM      4  F   LIG    1       24.275 -20.546   2.672  0.00  0.00    -0.168 F 
ENDROOT
BRANCH   2   5
ATOM      5  C   LIG    1       23.030 -19.938   4.602  0.00  0.00    +0.251 C 
ATOM      6 CL   LIG    1       22.182 -18.374   4.716  0.00  0.00    -0.100 Cl
ATOM      7 BR   LIG    1       23.334 -20.608   6.414  0.00  0.00    -0.061 Br
ENDBRANCH   2   5
TORSDOF 1
ENDMDL
MODEL 7
REMARK VINA RESULT:      -4.1      2.794      3.039
REMARK  Name = *****
REMARK                            x       y       z     vdW  Elec       q    Type
REMARK                         _______ _______ _______ _____ _____    ______ ____
ROOT
ATOM      1  F   LIG    1       22.855 -23.744   6.982  0.00  0.00    -0.168 F 
ATOM      2  C   LIG    1       23.270 -22.457   6.882  0.00  0.00    +0.415 C 
ATOM      3  F   LIG    1       22.812 -21.798   7.969  0.00  0.00    -0.168 F 
ATOM      4  F   LIG    1       22.644 -21.938   5.797  0.00  0.00    -0.168 F 
ENDROOT
BRANCH   2   5
ATOM      5  C   LIG    1       24.782 -22.381   6.734  0.00  0.00    +0.251 C 
ATOM      6 CL   LIG    1       25.591 -23.915   7.143  0.00  0.00    -0.100 Cl
ATOM      7 BR   LIG    1       25.528 -20.971   7.864  0.00  0.00    -0.061 Br
ENDBRANCH   2   5
TORSDOF 1
ENDMDL
MODEL 8
REMARK VINA RESULT:      -4.1      1.835      2.183
REMARK  Name = *****
REMARK                            x       y       z     vdW  Elec       q    Type
REMARK                         _______ _______ _______ _____ _____    ______ ____
ROOT
ATOM      1  F   LIG    1       25.433 -20.316   7.369  0.00  0.00    -0.168 F 
ATOM      2  C   LIG    1       24.297 -20.916   6.936  0.00  0.00    +0.415 C 
ATOM      3  F   LIG    1       23.266 -20.373   7.621  0.00  0.00    -0.168 F 
ATOM      4  F   LIG    1       24.390 -22.217   7.305  0.00  0.00    -0.168 F 
ENDROOT
BRANCH   2   5
ATOM      5  C   LIG    1       24.146 -20.779   5.430  0.00  0.00    +0.251 C 
ATOM      6 CL   LIG    1       25.605 -20.114   4.650  0.00  0.00    -0.100 Cl
ATOM      7 BR   LIG    1       22.629 -19.632   4.976  0.00  0.00    -0.061 Br
ENDBRANCH   2   5
TORSDOF 1
ENDMDL
MODEL 9
REMARK VINA RESULT:      -4.1      2.121      2.625
REMARK  Name = *****
REMARK                            x       y       z     vdW  Elec       q    Type
REMARK                         _______ _______ _______ _____ _____    ______ ____
ROOT
ATOM      1  F   LIG    1       23.068 -21.861   7.915  0.00  0.00    -0.168 F 
ATOM      2  C   LIG    1       23.395 -22.636   6.851  0.00  0.00    +0.415 C 
ATOM      3  F   LIG    1       22.311 -23.384   6.548  0.00  0.00    -0.168 F 
ATOM      4  F   LIG    1       24.365 -23.481   7.279  0.00  0.00    -0.168 F 
ENDROOT
BRANCH   2   5
ATOM      5  C   LIG    1       23.876 -21.788   5.685  0.00  0.00    +0.251 C 
ATOM      6 CL   LIG    1       25.341 -20.850   6.075  0.00  0.00    -0.100 Cl
ATOM      7 BR   LIG    1       22.486 -20.544   5.100  0.00  0.00    -0.061 Br
ENDBRANCH   2   5
TORSDOF 1
ENDMDL
