MODEL 1
REMARK VINA RESULT:      -1.6      0.000      0.000
REMARK  Name = *****
REMARK                            x       y       z     vdW  Elec       q    Type
REMARK                         _______ _______ _______ _____ _____    ______ ____
ROOT
ATOM      1  C   LIG    1       23.459 -19.508   4.986  0.00  0.00    +0.068 C 
ATOM      2  C   LIG    1       22.231 -18.764   5.164  0.00  0.00    +0.017 C 
ATOM      3  C   LIG    1       22.110 -17.496   4.753  0.00  0.00    +0.012 C 
ATOM      4  C   LIG    1       23.207 -16.797   4.091  0.00  0.00    +0.022 C 
ATOM      5  C   LIG    1       23.022 -15.521   3.697  0.00  0.00    +0.012 C 
ATOM      6  C   LIG    1       24.491 -17.569   3.881  0.00  0.00    +0.187 C 
ATOM      7  O   LIG    1       25.494 -17.135   3.326  0.00  0.00    -0.287 OA
ATOM      8  C   LIG    1       24.525 -18.961   4.389  0.00  0.00    +0.067 C 
ENDROOT
BRANCH   5   9
ATOM      9  C   LIG    1       23.941 -14.654   2.983  0.00  0.00    +0.008 C 
ATOM     10  C   LIG    1       25.015 -13.997   3.471  0.00  0.00    -0.025 A 
ATOM     11  C   LIG    1       25.450 -14.071   4.866  0.00  0.00    +0.009 A 
ATOM     12  C   LIG    1       26.576 -13.453   5.264  0.00  0.00    +0.016 A 
ATOM     13  C   LIG    1       27.414 -12.700   4.310  0.00  0.00    +0.059 A 
ATOM     14  C   LIG    1       28.621 -12.184   4.687  0.00  0.00    +0.258 C 
ATOM     15  C   LIG    1       26.860 -12.472   2.962  0.00  0.00    +0.016 A 
ATOM     16  C   LIG    1       25.741 -13.101   2.561  0.00  0.00    +0.009 A 
BRANCH  14  17
ATOM     17  N   LIG    1       29.158 -12.384   5.937  0.00  0.00    -0.251 N 
ATOM     18  H   LIG    1       29.683 -13.243   6.016  0.00  0.00    +0.288 HD
ATOM     19  H   LIG    1       28.478 -12.289   6.684  0.00  0.00    +0.288 HD
ENDBRANCH  14  17
BRANCH  14  20
ATOM     20  N   LIG    1       29.414 -11.447   3.842  0.00  0.00    -0.251 N 
ATOM     21  H   LIG    1       28.923 -10.700   3.369  0.00  0.00    +0.288 HD
ATOM     22  H   LIG    1       30.276 -11.124   4.268  0.00  0.00    +0.288 HD
ENDBRANCH  14  20
ENDBRANCH   5   9
BRANCH   1  25
ATOM     23  N   LIG    1       22.478 -21.562   5.777  0.00  0.00    -0.099 NA
ATOM     24  H   LIG    1       22.711 -22.486   6.139  0.00  0.00    +0.363 HD
ATOM     25  C   LIG    1       23.566 -20.924   5.473  0.00  0.00    +0.308 C 
BRANCH  25  26
ATOM     26  N   LIG    1       24.761 -21.572   5.611  0.00  0.00    -0.247 N 
ATOM     27  H   LIG    1       25.312 -21.678   4.765  0.00  0.00    +0.288 HD
ATOM     28  H   LIG    1       24.743 -22.422   6.157  0.00  0.00    +0.288 HD
ENDBRANCH  25  26
ENDBRANCH   1  25
TORSDOF 5
ENDMDL
MODEL 2
REMARK VINA RESULT:      -1.1      0.805      7.517
REMARK  Name = *****
REMARK                            x       y       z     vdW  Elec       q    Type
REMARK                         _______ _______ _______ _____ _____    ______ ____
ROOT
ATOM      1  C   LIG    1       27.353 -12.795   4.058  0.00  0.00    +0.068 C 
ATOM      2  C   LIG    1       26.601 -12.451   2.870  0.00  0.00    +0.017 C 
ATOM      3  C   LIG    1       25.415 -13.010   2.601  0.00  0.00    +0.012 C 
ATOM      4  C   LIG    1       24.809 -13.991   3.497  0.00  0.00    +0.022 C 
ATOM      5  C   LIG    1       23.611 -14.516   3.170  0.00  0.00    +0.012 C 
ATOM      6  C   LIG    1       25.576 -14.347   4.751  0.00  0.00    +0.187 C 
ATOM      7  O   LIG    1       25.197 -15.134   5.612  0.00  0.00    -0.287 OA
ATOM      8  C   LIG    1       26.886 -13.682   4.946  0.00  0.00    +0.067 C 
ENDROOT
BRANCH   5   9
ATOM      9  C   LIG    1       22.802 -15.457   3.924  0.00  0.00    +0.008 C 
ATOM     10  C   LIG    1       22.997 -16.784   4.078  0.00  0.00    -0.025 A 
ATOM     11  C   LIG    1       24.119 -17.517   3.490  0.00  0.00    +0.009 A 
ATOM     12  C   LIG    1       24.294 -18.824   3.752  0.00  0.00    +0.016 A 
ATOM     13  C   LIG    1       23.377 -19.554   4.649  0.00  0.00    +0.059 A 
ATOM     14  C   LIG    1       23.629 -20.845   5.017  0.00  0.00    +0.258 C 
ATOM     15  C   LIG    1       22.148 -18.854   5.071  0.00  0.00    +0.016 A 
ATOM     16  C   LIG    1       21.982 -17.544   4.819  0.00  0.00    +0.009 A 
BRANCH  14  17
ATOM     17  N   LIG    1       24.767 -21.517   4.637  0.00  0.00    -0.251 N 
ATOM     18  H   LIG    1       25.620 -21.043   4.897  0.00  0.00    +0.288 HD
ATOM     19  H   LIG    1       24.768 -21.781   3.658  0.00  0.00    +0.288 HD
ENDBRANCH  14  17
BRANCH  14  20
ATOM     20  N   LIG    1       22.784 -21.572   5.818  0.00  0.00    -0.251 N 
ATOM     21  H   LIG    1       22.320 -22.332   5.340  0.00  0.00    +0.288 HD
ATOM     22  H   LIG    1       23.205 -21.874   6.691  0.00  0.00    +0.288 HD
ENDBRANCH  14  20
ENDBRANCH   5   9
BRANCH   1  25
ATOM     23  N   LIG    1       29.475 -11.926   3.317  0.00  0.00    -0.099 NA
ATOM     24  H   LIG    1       30.358 -11.545   3.655  0.00  0.00    +0.363 HD
ATOM     25  C   LIG    1       28.687 -12.161   4.321  0.00  0.00    +0.308 C 
BRANCH  25  26
ATOM     26  N   LIG    1       29.110 -11.819   5.575  0.00  0.00    -0.247 N 
ATOM     27  H   LIG    1       29.035 -10.836   5.820  0.00  0.00    +0.288 HD
ATOM     28  H   LIG    1       29.995 -12.211   5.866  0.00  0.00    +0.288 HD
ENDBRANCH  25  26
ENDBRANCH   1  25
TORSDOF 5
ENDMDL
