MODEL 1
REMARK VINA RESULT:      -7.3      0.000      0.000
REMARK  Name = *****
REMARK                            x       y       z     vdW  Elec       q    Type
REMARK                         _______ _______ _______ _____ _____    ______ ____
ROOT
ATOM      1  N   LIG    1       26.535 -22.288   6.645  0.00  0.00    -0.284 N 
ATOM      2  H   LIG    1       27.122 -22.672   5.920  0.00  0.00    +0.155 HD
ATOM      3  C   LIG    1       27.259 -21.713   7.675  0.00  0.00    +0.234 C 
ATOM      4  O   LIG    1       26.880 -21.529   8.832  0.00  0.00    -0.274 OA
ENDROOT
BRANCH   1   7
ATOM      5  C   LIG    1       26.151 -25.121   6.370  0.00  0.00    +0.045 C 
ATOM      6  C   LIG    1       25.004 -24.152   6.506  0.00  0.00    -0.029 A 
ATOM      7  C   LIG    1       25.191 -22.748   6.641  0.00  0.00    +0.039 A 
ATOM      8  C   LIG    1       24.051 -21.919   6.708  0.00  0.00    -0.029 A 
ATOM      9  C   LIG    1       24.066 -20.416   6.631  0.00  0.00    +0.045 C 
ATOM     10  C   LIG    1       22.770 -22.510   6.789  0.00  0.00    +0.005 A 
ATOM     11  C   LIG    1       22.600 -23.887   6.723  0.00  0.00    +0.001 A 
ATOM     12  C   LIG    1       23.711 -24.701   6.563  0.00  0.00    +0.005 A 
ENDBRANCH   1   7
BRANCH   3  13
ATOM     13  C   LIG    1       28.717 -21.380   7.252  0.00  0.00    +0.135 C 
ATOM     14  C   LIG    1       28.746 -20.101   6.428  0.00  0.00    +0.033 C 
BRANCH  13  15
ATOM     15  N   LIG    1       29.563 -21.272   8.456  0.00  0.00    -0.320 NA
ATOM     16  H   LIG    1       29.918 -20.318   8.540  0.00  0.00    +0.119 HD
ATOM     17  H   LIG    1       28.967 -21.400   9.280  0.00  0.00    +0.119 HD
ENDBRANCH  13  15
ENDBRANCH   3  13
TORSDOF 3
ENDMDL
MODEL 2
REMARK VINA RESULT:      -7.2      0.320      2.353
REMARK  Name = *****
REMARK                            x       y       z     vdW  Elec       q    Type
REMARK                         _______ _______ _______ _____ _____    ______ ____
ROOT
ATOM      1  N   LIG    1       26.528 -22.183   6.609  0.00  0.00    -0.284 N 
ATOM      2  H   LIG    1       27.039 -22.344   5.755  0.00  0.00    +0.155 HD
ATOM      3  C   LIG    1       27.333 -21.729   7.639  0.00  0.00    +0.234 C 
ATOM      4  O   LIG    1       27.110 -21.819   8.847  0.00  0.00    -0.274 OA
ENDROOT
BRANCH   1   7
ATOM      5  C   LIG    1       24.296 -20.461   7.160  0.00  0.00    +0.045 C 
ATOM      6  C   LIG    1       24.147 -21.947   6.945  0.00  0.00    -0.029 A 
ATOM      7  C   LIG    1       25.251 -22.803   6.674  0.00  0.00    +0.039 A 
ATOM      8  C   LIG    1       25.015 -24.187   6.542  0.00  0.00    -0.029 A 
ATOM      9  C   LIG    1       26.082 -25.247   6.475  0.00  0.00    +0.045 C 
ATOM     10  C   LIG    1       23.685 -24.663   6.534  0.00  0.00    +0.005 A 
ATOM     11  C   LIG    1       22.607 -23.811   6.734  0.00  0.00    +0.001 A 
ATOM     12  C   LIG    1       22.840 -22.463   6.957  0.00  0.00    +0.005 A 
ENDBRANCH   1   7
BRANCH   3  13
ATOM     13  C   LIG    1       28.672 -21.137   7.120  0.00  0.00    +0.135 C 
ATOM     14  C   LIG    1       28.402 -20.051   6.088  0.00  0.00    +0.033 C 
BRANCH  13  15
ATOM     15  N   LIG    1       29.456 -20.622   8.261  0.00  0.00    -0.320 NA
ATOM     16  H   LIG    1       28.827 -20.188   8.938  0.00  0.00    +0.119 HD
ATOM     17  H   LIG    1       29.861 -21.422   8.757  0.00  0.00    +0.119 HD
ENDBRANCH  13  15
ENDBRANCH   3  13
TORSDOF 3
ENDMDL
MODEL 3
REMARK VINA RESULT:      -7.0      2.365      4.438
REMARK  Name = *****
REMARK                            x       y       z     vdW  Elec       q    Type
REMARK                         _______ _______ _______ _____ _____    ______ ____
ROOT
ATOM      1  N   LIG    1       25.657 -24.401   7.050  0.00  0.00    -0.284 N 
ATOM      2  H   LIG    1       26.265 -24.694   7.800  0.00  0.00    +0.155 HD
ATOM      3  C   LIG    1       25.735 -25.226   5.942  0.00  0.00    +0.234 C 
ATOM      4  O   LIG    1       25.446 -24.935   4.781  0.00  0.00    -0.274 OA
ENDROOT
BRANCH   1   7
ATOM      5  C   LIG    1       22.829 -24.015   6.729  0.00  0.00    +0.045 C 
ATOM      6  C   LIG    1       23.784 -22.876   6.985  0.00  0.00    -0.029 A 
ATOM      7  C   LIG    1       25.185 -23.064   7.142  0.00  0.00    +0.039 A 
ATOM      8  C   LIG    1       26.002 -21.928   7.324  0.00  0.00    -0.029 A 
ATOM      9  C   LIG    1       27.506 -21.926   7.287  0.00  0.00    +0.045 C 
ATOM     10  C   LIG    1       25.397 -20.662   7.492  0.00  0.00    +0.005 A 
ATOM     11  C   LIG    1       24.021 -20.496   7.402  0.00  0.00    +0.001 A 
ATOM     12  C   LIG    1       23.222 -21.596   7.131  0.00  0.00    +0.005 A 
ENDBRANCH   1   7
BRANCH   3  13
ATOM     13  C   LIG    1       26.343 -26.614   6.286  0.00  0.00    +0.135 C 
ATOM     14  C   LIG    1       25.235 -27.611   6.597  0.00  0.00    +0.033 C 
BRANCH  13  15
ATOM     15  N   LIG    1       27.188 -27.070   5.165  0.00  0.00    -0.320 NA
ATOM     16  H   LIG    1       26.601 -27.272   4.355  0.00  0.00    +0.119 HD
ATOM     17  H   LIG    1       27.778 -26.287   4.870  0.00  0.00    +0.119 HD
ENDBRANCH  13  15
ENDBRANCH   3  13
TORSDOF 3
ENDMDL
MODEL 4
REMARK VINA RESULT:      -6.9      2.410      4.422
REMARK  Name = *****
REMARK                            x       y       z     vdW  Elec       q    Type
REMARK                         _______ _______ _______ _____ _____    ______ ____
ROOT
ATOM      1  N   LIG    1       25.580 -24.347   6.948  0.00  0.00    -0.284 N 
ATOM      2  H   LIG    1       26.284 -24.522   7.649  0.00  0.00    +0.155 HD
ATOM      3  C   LIG    1       25.637 -25.240   5.893  0.00  0.00    +0.234 C 
ATOM      4  O   LIG    1       25.208 -25.065   4.752  0.00  0.00    -0.274 OA
ENDROOT
BRANCH   1   7
ATOM      5  C   LIG    1       27.332 -22.143   7.518  0.00  0.00    +0.045 C 
ATOM      6  C   LIG    1       25.852 -21.969   7.284  0.00  0.00    -0.029 A 
ATOM      7  C   LIG    1       24.981 -23.059   7.003  0.00  0.00    +0.039 A 
ATOM      8  C   LIG    1       23.603 -22.799   6.852  0.00  0.00    -0.029 A 
ATOM      9  C   LIG    1       22.526 -23.848   6.772  0.00  0.00    +0.045 C 
ATOM     10  C   LIG    1       23.150 -21.461   6.836  0.00  0.00    +0.005 A 
ATOM     11  C   LIG    1       24.018 -20.398   7.046  0.00  0.00    +0.001 A 
ATOM     12  C   LIG    1       25.358 -20.653   7.287  0.00  0.00    +0.005 A 
ENDBRANCH   1   7
BRANCH   3  13
ATOM     13  C   LIG    1       26.417 -26.533   6.260  0.00  0.00    +0.135 C 
ATOM     14  C   LIG    1       25.462 -27.588   6.800  0.00  0.00    +0.033 C 
BRANCH  13  15
ATOM     15  N   LIG    1       27.149 -27.016   5.073  0.00  0.00    -0.320 NA
ATOM     16  H   LIG    1       26.494 -27.163   4.304  0.00  0.00    +0.119 HD
ATOM     17  H   LIG    1       27.766 -26.265   4.750  0.00  0.00    +0.119 HD
ENDBRANCH  13  15
ENDBRANCH   3  13
TORSDOF 3
ENDMDL
MODEL 5
REMARK VINA RESULT:      -6.9      1.448      1.929
REMARK  Name = *****
REMARK                            x       y       z     vdW  Elec       q    Type
REMARK                         _______ _______ _______ _____ _____    ______ ____
ROOT
ATOM      1  N   LIG    1       26.929 -21.054   6.036  0.00  0.00    -0.284 N 
ATOM      2  H   LIG    1       27.464 -21.651   5.423  0.00  0.00    +0.155 HD
ATOM      3  C   LIG    1       27.693 -20.505   7.051  0.00  0.00    +0.234 C 
ATOM      4  O   LIG    1       27.290 -20.085   8.136  0.00  0.00    -0.274 OA
ENDROOT
BRANCH   1   7
ATOM      5  C   LIG    1       25.807 -23.198   7.584  0.00  0.00    +0.045 C 
ATOM      6  C   LIG    1       24.967 -22.280   6.731  0.00  0.00    -0.029 A 
ATOM      7  C   LIG    1       25.520 -21.219   5.962  0.00  0.00    +0.039 A 
ATOM      8  C   LIG    1       24.656 -20.449   5.154  0.00  0.00    -0.029 A 
ATOM      9  C   LIG    1       25.097 -19.446   4.123  0.00  0.00    +0.045 C 
ATOM     10  C   LIG    1       23.261 -20.655   5.244  0.00  0.00    +0.005 A 
ATOM     11  C   LIG    1       22.724 -21.652   6.048  0.00  0.00    +0.001 A 
ATOM     12  C   LIG    1       23.575 -22.472   6.772  0.00  0.00    +0.005 A 
ENDBRANCH   1   7
BRANCH   3  13
ATOM     13  C   LIG    1       29.213 -20.546   6.729  0.00  0.00    +0.135 C 
ATOM     14  C   LIG    1       29.744 -19.136   6.516  0.00  0.00    +0.033 C 
BRANCH  13  15
ATOM     15  N   LIG    1       29.926 -21.238   7.821  0.00  0.00    -0.320 NA
ATOM     16  H   LIG    1       29.357 -21.215   8.668  0.00  0.00    +0.119 HD
ATOM     17  H   LIG    1       29.994 -22.231   7.580  0.00  0.00    +0.119 HD
ENDBRANCH  13  15
ENDBRANCH   3  13
TORSDOF 3
ENDMDL
MODEL 6
REMARK VINA RESULT:      -6.9      1.794      3.091
REMARK  Name = *****
REMARK                            x       y       z     vdW  Elec       q    Type
REMARK                         _______ _______ _______ _____ _____    ______ ____
ROOT
ATOM      1  N   LIG    1       26.526 -20.767   5.575  0.00  0.00    -0.284 N 
ATOM      2  H   LIG    1       27.017 -21.328   4.897  0.00  0.00    +0.155 HD
ATOM      3  C   LIG    1       27.325 -20.386   6.638  0.00  0.00    +0.234 C 
ATOM      4  O   LIG    1       26.951 -20.061   7.766  0.00  0.00    -0.274 OA
ENDROOT
BRANCH   1   7
ATOM      5  C   LIG    1       25.269 -18.923   3.766  0.00  0.00    +0.045 C 
ATOM      6  C   LIG    1       24.489 -19.912   4.596  0.00  0.00    -0.029 A 
ATOM      7  C   LIG    1       25.108 -20.826   5.494  0.00  0.00    +0.039 A 
ATOM      8  C   LIG    1       24.287 -21.676   6.265  0.00  0.00    -0.029 A 
ATOM      9  C   LIG    1       24.759 -22.535   7.407  0.00  0.00    +0.045 C 
ATOM     10  C   LIG    1       22.896 -21.701   6.020  0.00  0.00    +0.005 A 
ATOM     11  C   LIG    1       22.306 -20.851   5.094  0.00  0.00    +0.001 A 
ATOM     12  C   LIG    1       23.097 -19.949   4.400  0.00  0.00    +0.005 A 
ENDBRANCH   1   7
BRANCH   3  13
ATOM     13  C   LIG    1       28.838 -20.497   6.304  0.00  0.00    +0.135 C 
ATOM     14  C   LIG    1       29.455 -19.109   6.195  0.00  0.00    +0.033 C 
BRANCH  13  15
ATOM     15  N   LIG    1       29.510 -21.313   7.334  0.00  0.00    -0.320 NA
ATOM     16  H   LIG    1       29.915 -20.702   8.044  0.00  0.00    +0.119 HD
ATOM     17  H   LIG    1       28.794 -21.852   7.832  0.00  0.00    +0.119 HD
ENDBRANCH  13  15
ENDBRANCH   3  13
TORSDOF 3
ENDMDL
MODEL 7
REMARK VINA RESULT:      -6.3      1.850      5.870
REMARK  Name = *****
REMARK                            x       y       z     vdW  Elec       q    Type
REMARK                         _______ _______ _______ _____ _____    ______ ____
ROOT
ATOM      1  N   LIG    1       27.805 -21.632   7.460  0.00  0.00    -0.284 N 
ATOM      2  H   LIG    1       27.642 -22.220   6.657  0.00  0.00    +0.155 HD
ATOM      3  C   LIG    1       26.691 -21.512   8.272  0.00  0.00    +0.234 C 
ATOM      4  O   LIG    1       26.447 -20.600   9.063  0.00  0.00    -0.274 OA
ENDROOT
BRANCH   1   7
ATOM      5  C   LIG    1       27.749 -19.613   5.417  0.00  0.00    +0.045 C 
ATOM      6  C   LIG    1       28.914 -19.789   6.359  0.00  0.00    -0.029 A 
ATOM      7  C   LIG    1       28.945 -20.789   7.370  0.00  0.00    +0.039 A 
ATOM      8  C   LIG    1       30.104 -20.907   8.167  0.00  0.00    -0.029 A 
ATOM      9  C   LIG    1       30.389 -22.036   9.121  0.00  0.00    +0.045 C 
ATOM     10  C   LIG    1       31.131 -19.946   8.040  0.00  0.00    +0.005 A 
ATOM     11  C   LIG    1       31.064 -18.932   7.093  0.00  0.00    +0.001 A 
ATOM     12  C   LIG    1       29.969 -18.867   6.245  0.00  0.00    +0.005 A 
ENDBRANCH   1   7
BRANCH   3  13
ATOM     13  C   LIG    1       25.660 -22.649   8.026  0.00  0.00    +0.135 C 
ATOM     14  C   LIG    1       24.329 -22.063   7.576  0.00  0.00    +0.033 C 
BRANCH  13  15
ATOM     15  N   LIG    1       26.204 -23.596   7.033  0.00  0.00    -0.320 NA
ATOM     16  H   LIG    1       27.137 -23.893   7.319  0.00  0.00    +0.119 HD
ATOM     17  H   LIG    1       25.638 -24.450   7.062  0.00  0.00    +0.119 HD
ENDBRANCH  13  15
ENDBRANCH   3  13
TORSDOF 3
ENDMDL
MODEL 8
REMARK VINA RESULT:      -6.2      2.931      5.466
REMARK  Name = *****
REMARK                            x       y       z     vdW  Elec       q    Type
REMARK                         _______ _______ _______ _____ _____    ______ ____
ROOT
ATOM      1  N   LIG    1       24.853 -20.407   6.292  0.00  0.00    -0.284 N 
ATOM      2  H   LIG    1       24.343 -19.885   6.988  0.00  0.00    +0.155 HD
ATOM      3  C   LIG    1       24.026 -21.119   5.442  0.00  0.00    +0.234 C 
ATOM      4  O   LIG    1       24.324 -22.115   4.782  0.00  0.00    -0.274 OA
ENDROOT
BRANCH   1   7
ATOM      5  C   LIG    1       26.714 -19.231   4.448  0.00  0.00    +0.045 C 
ATOM      6  C   LIG    1       27.152 -20.016   5.659  0.00  0.00    -0.029 A 
ATOM      7  C   LIG    1       26.232 -20.601   6.574  0.00  0.00    +0.039 A 
ATOM      8  C   LIG    1       26.740 -21.362   7.648  0.00  0.00    -0.029 A 
ATOM      9  C   LIG    1       25.916 -22.222   8.568  0.00  0.00    +0.045 C 
ATOM     10  C   LIG    1       28.135 -21.399   7.869  0.00  0.00    +0.005 A 
ATOM     11  C   LIG    1       29.024 -20.770   7.008  0.00  0.00    +0.001 A 
ATOM     12  C   LIG    1       28.535 -20.098   5.899  0.00  0.00    +0.005 A 
ENDBRANCH   1   7
BRANCH   3  13
ATOM     13  C   LIG    1       22.568 -20.581   5.455  0.00  0.00    +0.135 C 
ATOM     14  C   LIG    1       22.494 -19.245   4.729  0.00  0.00    +0.033 C 
BRANCH  13  15
ATOM     15  N   LIG    1       21.671 -21.583   4.846  0.00  0.00    -0.320 NA
ATOM     16  H   LIG    1       21.427 -22.290   5.540  0.00  0.00    +0.119 HD
ATOM     17  H   LIG    1       20.783 -21.122   4.621  0.00  0.00    +0.119 HD
ENDBRANCH  13  15
ENDBRANCH   3  13
TORSDOF 3
ENDMDL
MODEL 9
REMARK VINA RESULT:      -6.1      3.039      5.286
REMARK  Name = *****
REMARK                            x       y       z     vdW  Elec       q    Type
REMARK                         _______ _______ _______ _____ _____    ______ ____
ROOT
ATOM      1  N   LIG    1       24.950 -20.383   6.340  0.00  0.00    -0.284 N 
ATOM      2  H   LIG    1       24.420 -20.035   7.124  0.00  0.00    +0.155 HD
ATOM      3  C   LIG    1       24.157 -20.977   5.375  0.00  0.00    +0.234 C 
ATOM      4  O   LIG    1       24.508 -21.811   4.539  0.00  0.00    -0.274 OA
ENDROOT
BRANCH   1   7
ATOM      5  C   LIG    1       25.704 -21.799   8.723  0.00  0.00    +0.045 C 
ATOM      6  C   LIG    1       26.714 -21.237   7.754  0.00  0.00    -0.029 A 
ATOM      7  C   LIG    1       26.344 -20.534   6.574  0.00  0.00    +0.039 A 
ATOM      8  C   LIG    1       27.364 -20.000   5.758  0.00  0.00    -0.029 A 
ATOM      9  C   LIG    1       27.149 -19.053   4.608  0.00  0.00    +0.045 C 
ATOM     10  C   LIG    1       28.713 -20.302   6.052  0.00  0.00    +0.005 A 
ATOM     11  C   LIG    1       29.063 -21.045   7.172  0.00  0.00    +0.001 A 
ATOM     12  C   LIG    1       28.069 -21.493   8.027  0.00  0.00    +0.005 A 
ENDBRANCH   1   7
BRANCH   3  13
ATOM     13  C   LIG    1       22.668 -20.550   5.495  0.00  0.00    +0.135 C 
ATOM     14  C   LIG    1       22.449 -19.209   4.808  0.00  0.00    +0.033 C 
BRANCH  13  15
ATOM     15  N   LIG    1       21.808 -21.603   4.921  0.00  0.00    -0.320 NA
ATOM     16  H   LIG    1       21.106 -21.178   4.314  0.00  0.00    +0.119 HD
ATOM     17  H   LIG    1       22.380 -22.177   4.293  0.00  0.00    +0.119 HD
ENDBRANCH  13  15
ENDBRANCH   3  13
TORSDOF 3
ENDMDL
