MODEL 1
REMARK VINA RESULT:       7.9      0.000      0.000
REMARK  Name = *****
REMARK                            x       y       z     vdW  Elec       q    Type
REMARK                         _______ _______ _______ _____ _____    ______ ____
ROOT
ATOM      1  C   LIG    1       25.346 -13.732   4.547  0.00  0.00    +0.176 C 
ATOM      2  C   LIG    1       24.885 -14.821   3.452  0.00  0.00    +0.018 C 
ATOM      3  C   LIG    1       24.386 -14.156   2.138  0.00  0.00    +0.016 C 
ATOM      4  C   LIG    1       23.663 -15.542   4.098  0.00  0.00    +0.006 C 
ATOM      5  C   LIG    1       23.337 -16.957   3.576  0.00  0.00    +0.019 C 
ATOM      6  C   LIG    1       24.495 -17.848   3.078  0.00  0.00    +0.006 C 
ATOM      7  C   LIG    1       25.565 -17.038   2.334  0.00  0.00    +0.006 C 
ATOM      8  C   LIG    1       25.029 -18.971   4.054  0.00  0.00    -0.003 C 
ATOM      9  C   LIG    1       25.394 -20.183   3.133  0.00  0.00    +0.016 C 
ATOM     10  C   LIG    1       23.989 -19.425   5.084  0.00  0.00    -0.038 C 
ATOM     11  C   LIG    1       24.316 -20.246   6.099  0.00  0.00    +0.050 C 
ATOM     12  C   LIG    1       25.732 -20.612   6.339  0.00  0.00    +0.156 C 
ATOM     13  O   LIG    1       25.991 -21.572   7.061  0.00  0.00    -0.293 OA
ATOM     14  C   LIG    1       26.820 -19.756   5.722  0.00  0.00    +0.080 C 
ATOM     15  C   LIG    1       22.657 -18.864   5.057  0.00  0.00    +0.000 C 
ATOM     16  C   LIG    1       26.284 -18.592   4.877  0.00  0.00    +0.019 C 
ATOM     17  C   LIG    1       22.363 -17.723   4.423  0.00  0.00    -0.023 C 
ATOM     18  C   LIG    1       23.851 -15.318   5.592  0.00  0.00    +0.009 C 
ATOM     19  C   LIG    1       26.018 -15.804   3.098  0.00  0.00    +0.011 C 
ATOM     20  C   LIG    1       24.244 -13.835   5.621  0.00  0.00    +0.057 C 
ENDROOT
BRANCH   1  21
ATOM     21  C   LIG    1       26.779 -13.955   5.142  0.00  0.00    +0.174 C 
ATOM     22  O   LIG    1       26.956 -13.977   6.366  0.00  0.00    -0.293 OA
ATOM     23  C   LIG    1       27.951 -14.244   4.225  0.00  0.00    +0.090 C 
ENDBRANCH   1  21
BRANCH   1  24
ATOM     24  O   LIG    1       25.338 -12.464   3.854  0.00  0.00    -0.450 OA
BRANCH  24  26
ATOM     25  C   LIG    1       24.011 -11.447   2.241  0.00  0.00    +0.136 C 
ATOM     26  C   LIG    1       24.192 -11.768   3.700  0.00  0.00    +0.305 C 
ATOM     27  O   LIG    1       23.436 -11.448   4.598  0.00  0.00    -0.251 OA
ENDBRANCH  24  26
ENDBRANCH   1  24
TORSDOF 3
ENDMDL
MODEL 2
REMARK VINA RESULT:       8.0      1.504      2.146
REMARK  Name = *****
REMARK                            x       y       z     vdW  Elec       q    Type
REMARK                         _______ _______ _______ _____ _____    ______ ____
ROOT
ATOM      1  C   LIG    1       26.476 -14.094   4.748  0.00  0.00    +0.176 C 
ATOM      2  C   LIG    1       25.894 -14.994   3.544  0.00  0.00    +0.018 C 
ATOM      3  C   LIG    1       25.939 -14.248   2.181  0.00  0.00    +0.016 C 
ATOM      4  C   LIG    1       24.392 -15.213   3.902  0.00  0.00    +0.006 C 
ATOM      5  C   LIG    1       23.703 -16.443   3.274  0.00  0.00    +0.019 C 
ATOM      6  C   LIG    1       24.549 -17.702   2.990  0.00  0.00    +0.006 C 
ATOM      7  C   LIG    1       25.962 -17.351   2.510  0.00  0.00    +0.006 C 
ATOM      8  C   LIG    1       24.442 -18.903   4.015  0.00  0.00    -0.003 C 
ATOM      9  C   LIG    1       24.537 -20.201   3.145  0.00  0.00    +0.016 C 
ATOM     10  C   LIG    1       23.123 -18.921   4.794  0.00  0.00    -0.038 C 
ATOM     11  C   LIG    1       22.926 -19.764   5.824  0.00  0.00    +0.050 C 
ATOM     12  C   LIG    1       24.042 -20.594   6.334  0.00  0.00    +0.156 C 
ATOM     13  O   LIG    1       23.795 -21.555   7.060  0.00  0.00    -0.293 OA
ATOM     14  C   LIG    1       25.463 -20.201   5.984  0.00  0.00    +0.080 C 
ATOM     15  C   LIG    1       22.109 -17.929   4.515  0.00  0.00    +0.000 C 
ATOM     16  C   LIG    1       25.554 -18.957   5.089  0.00  0.00    +0.019 C 
ATOM     17  C   LIG    1       22.371 -16.783   3.876  0.00  0.00    -0.023 C 
ATOM     18  C   LIG    1       24.339 -15.011   5.409  0.00  0.00    +0.009 C 
ATOM     19  C   LIG    1       26.655 -16.325   3.394  0.00  0.00    +0.011 C 
ATOM     20  C   LIG    1       25.215 -13.761   5.570  0.00  0.00    +0.057 C 
ENDROOT
BRANCH   1  21
ATOM     21  C   LIG    1       27.586 -14.784   5.615  0.00  0.00    +0.174 C 
ATOM     22  O   LIG    1       27.896 -14.326   6.722  0.00  0.00    -0.293 OA
ATOM     23  C   LIG    1       28.226 -16.077   5.150  0.00  0.00    +0.090 C 
ENDBRANCH   1  21
BRANCH   1  24
ATOM     24  O   LIG    1       27.056 -12.933   4.114  0.00  0.00    -0.450 OA
BRANCH  24  26
ATOM     25  C   LIG    1       28.894 -11.809   4.984  0.00  0.00    +0.136 C 
ATOM     26  C   LIG    1       28.394 -12.813   3.981  0.00  0.00    +0.305 C 
ATOM     27  O   LIG    1       29.078 -13.415   3.176  0.00  0.00    -0.251 OA
ENDBRANCH  24  26
ENDBRANCH   1  24
TORSDOF 3
ENDMDL
