MODEL 1
REMARK VINA RESULT:     -10.1      0.000      0.000
REMARK  Name = *****
REMARK                            x       y       z     vdW  Elec       q    Type
REMARK                         _______ _______ _______ _____ _____    ______ ____
ROOT
ATOM      1  C   LIG    1       30.212 -19.078   8.770  0.00  0.00    +0.148 A 
ATOM      2  O   LIG    1       28.885 -19.073   8.453  0.00  0.00    -0.454 OA
ATOM      3  C   LIG    1       28.636 -20.169   7.675  0.00  0.00    +0.136 A 
ATOM      4  C   LIG    1       29.814 -20.861   7.471  0.00  0.00    +0.050 A 
ATOM      5  C   LIG    1       30.824 -20.163   8.179  0.00  0.00    +0.051 A 
ENDROOT
BRANCH   3   6
ATOM      6  C   LIG    1       27.246 -20.360   7.264  0.00  0.00    +0.018 A 
ATOM      7  C   LIG    1       26.238 -20.576   8.219  0.00  0.00    +0.018 A 
ATOM      8  C   LIG    1       24.905 -20.754   7.830  0.00  0.00    +0.085 A 
ATOM      9  C   LIG    1       24.569 -20.714   6.472  0.00  0.00    +0.273 A 
ATOM     10  C   LIG    1       25.556 -20.498   5.505  0.00  0.00    +0.085 A 
ATOM     11  C   LIG    1       26.884 -20.322   5.906  0.00  0.00    +0.018 A 
BRANCH   9  12
ATOM     12  N   LIG    1       23.174 -20.904   6.058  0.00  0.00    +0.080 N 
ATOM     13  O   LIG    1       22.695 -22.041   6.155  0.00  0.00    -0.576 OA
ATOM     14  O   LIG    1       22.560 -19.914   5.634  0.00  0.00    +0.041 OA
ENDBRANCH   9  12
ENDBRANCH   3   6
BRANCH   1  16
ATOM     15  N   LIG    1       31.913 -18.075  10.081  0.00  0.00    -0.180 NA
ATOM     16  C   LIG    1       30.705 -18.027   9.616  0.00  0.00    +0.176 C 
BRANCH  15  23
ATOM     17  O   LIG    1       32.671 -15.454  13.953  0.00  0.00    -0.274 OA
ATOM     18  C   LIG    1       32.609 -15.836  12.793  0.00  0.00    +0.240 C 
ATOM     19  N   LIG    1       33.011 -15.114  11.716  0.00  0.00    -0.237 N 
ATOM     20  H   LIG    1       33.380 -14.180  11.755  0.00  0.00    +0.159 HD
ATOM     21  C   LIG    1       32.808 -15.807  10.560  0.00  0.00    +0.328 C 
ATOM     22  O   LIG    1       33.025 -15.365   9.446  0.00  0.00    -0.250 OA
ATOM     23  N   LIG    1       32.313 -17.072  10.916  0.00  0.00    -0.168 N 
ATOM     24  C   LIG    1       32.056 -17.168  12.332  0.00  0.00    +0.232 C 
ENDBRANCH  15  23
ENDBRANCH   1  16
TORSDOF 4
ENDMDL
MODEL 2
REMARK VINA RESULT:      -9.8      4.563      6.110
REMARK  Name = *****
REMARK                            x       y       z     vdW  Elec       q    Type
REMARK                         _______ _______ _______ _____ _____    ______ ____
ROOT
ATOM      1  C   LIG    1       26.478 -21.544   7.467  0.00  0.00    +0.148 A 
ATOM      2  O   LIG    1       26.541 -22.880   7.198  0.00  0.00    -0.454 OA
ATOM      3  C   LIG    1       25.263 -23.333   7.026  0.00  0.00    +0.136 A 
ATOM      4  C   LIG    1       24.379 -22.289   7.213  0.00  0.00    +0.050 A 
ATOM      5  C   LIG    1       25.160 -21.139   7.490  0.00  0.00    +0.051 A 
ENDROOT
BRANCH   3   6
ATOM      6  C   LIG    1       25.127 -24.748   6.686  0.00  0.00    +0.018 A 
ATOM      7  C   LIG    1       25.994 -25.707   7.237  0.00  0.00    +0.018 A 
ATOM      8  C   LIG    1       25.863 -27.063   6.919  0.00  0.00    +0.085 A 
ATOM      9  C   LIG    1       24.852 -27.474   6.042  0.00  0.00    +0.273 A 
ATOM     10  C   LIG    1       23.977 -26.538   5.485  0.00  0.00    +0.085 A 
ATOM     11  C   LIG    1       24.118 -25.185   5.810  0.00  0.00    +0.018 A 
BRANCH   9  12
ATOM     12  N   LIG    1       24.712 -28.895   5.702  0.00  0.00    +0.080 N 
ATOM     13  O   LIG    1       23.675 -29.471   6.057  0.00  0.00    -0.576 OA
ATOM     14  O   LIG    1       25.640 -29.433   5.081  0.00  0.00    +0.041 OA
ENDBRANCH   9  12
ENDBRANCH   3   6
BRANCH   1  16
ATOM     15  N   LIG    1       28.746 -21.447   8.148  0.00  0.00    -0.180 NA
ATOM     16  C   LIG    1       27.714 -20.837   7.657  0.00  0.00    +0.176 C 
BRANCH  15  23
ATOM     17  O   LIG    1       32.024 -18.036   7.904  0.00  0.00    -0.274 OA
ATOM     18  C   LIG    1       31.437 -19.077   8.161  0.00  0.00    +0.240 C 
ATOM     19  N   LIG    1       31.945 -20.090   8.909  0.00  0.00    -0.237 N 
ATOM     20  H   LIG    1       32.866 -20.103   9.311  0.00  0.00    +0.159 HD
ATOM     21  C   LIG    1       31.054 -21.117   9.009  0.00  0.00    +0.328 C 
ATOM     22  O   LIG    1       31.282 -22.172   9.573  0.00  0.00    -0.250 OA
ATOM     23  N   LIG    1       29.881 -20.715   8.349  0.00  0.00    -0.168 N 
ATOM     24  C   LIG    1       30.049 -19.449   7.681  0.00  0.00    +0.232 C 
ENDBRANCH  15  23
ENDBRANCH   1  16
TORSDOF 4
ENDMDL
MODEL 3
REMARK VINA RESULT:      -9.7      1.793      2.230
REMARK  Name = *****
REMARK                            x       y       z     vdW  Elec       q    Type
REMARK                         _______ _______ _______ _____ _____    ______ ____
ROOT
ATOM      1  C   LIG    1       29.310 -19.153   7.603  0.00  0.00    +0.148 A 
ATOM      2  O   LIG    1       28.284 -20.025   7.822  0.00  0.00    -0.454 OA
ATOM      3  C   LIG    1       27.721 -20.323   6.613  0.00  0.00    +0.136 A 
ATOM      4  C   LIG    1       28.371 -19.616   5.621  0.00  0.00    +0.050 A 
ATOM      5  C   LIG    1       29.395 -18.870   6.256  0.00  0.00    +0.051 A 
ENDROOT
BRANCH   3   6
ATOM      6  C   LIG    1       26.620 -21.284   6.639  0.00  0.00    +0.018 A 
ATOM      7  C   LIG    1       25.398 -20.995   6.010  0.00  0.00    +0.018 A 
ATOM      8  C   LIG    1       24.343 -21.915   6.027  0.00  0.00    +0.085 A 
ATOM      9  C   LIG    1       24.508 -23.143   6.679  0.00  0.00    +0.273 A 
ATOM     10  C   LIG    1       25.716 -23.452   7.310  0.00  0.00    +0.085 A 
ATOM     11  C   LIG    1       26.762 -22.525   7.286  0.00  0.00    +0.018 A 
BRANCH   9  12
ATOM     12  N   LIG    1       23.404 -24.110   6.704  0.00  0.00    +0.080 N 
ATOM     13  O   LIG    1       23.688 -25.309   6.581  0.00  0.00    -0.576 OA
ATOM     14  O   LIG    1       22.254 -23.669   6.847  0.00  0.00    +0.041 OA
ENDBRANCH   9  12
ENDBRANCH   3   6
BRANCH   1  16
ATOM     15  N   LIG    1       30.399 -17.469   8.867  0.00  0.00    -0.180 NA
ATOM     16  C   LIG    1       30.077 -18.718   8.737  0.00  0.00    +0.176 C 
BRANCH  15  23
ATOM     17  O   LIG    1       32.051 -17.011  13.282  0.00  0.00    -0.274 OA
ATOM     18  C   LIG    1       31.890 -16.892  12.077  0.00  0.00    +0.240 C 
ATOM     19  N   LIG    1       32.647 -16.111  11.265  0.00  0.00    -0.237 N 
ATOM     20  H   LIG    1       33.406 -15.528  11.573  0.00  0.00    +0.159 HD
ATOM     21  C   LIG    1       32.216 -16.185   9.974  0.00  0.00    +0.328 C 
ATOM     22  O   LIG    1       32.682 -15.536   9.055  0.00  0.00    -0.250 OA
ATOM     23  N   LIG    1       31.168 -17.120   9.940  0.00  0.00    -0.168 N 
ATOM     24  C   LIG    1       30.809 -17.572  11.261  0.00  0.00    +0.232 C 
ENDBRANCH  15  23
ENDBRANCH   1  16
TORSDOF 4
ENDMDL
MODEL 4
REMARK VINA RESULT:      -9.3      4.668      6.191
REMARK  Name = *****
REMARK                            x       y       z     vdW  Elec       q    Type
REMARK                         _______ _______ _______ _____ _____    ______ ____
ROOT
ATOM      1  C   LIG    1       26.321 -21.506   6.781  0.00  0.00    +0.148 A 
ATOM      2  O   LIG    1       26.389 -22.867   6.843  0.00  0.00    -0.454 OA
ATOM      3  C   LIG    1       25.218 -23.370   6.350  0.00  0.00    +0.136 A 
ATOM      4  C   LIG    1       24.386 -22.325   5.998  0.00  0.00    +0.050 A 
ATOM      5  C   LIG    1       25.096 -21.129   6.269  0.00  0.00    +0.051 A 
ENDROOT
BRANCH   3   6
ATOM      6  C   LIG    1       25.118 -24.827   6.297  0.00  0.00    +0.018 A 
ATOM      7  C   LIG    1       25.959 -25.634   7.082  0.00  0.00    +0.018 A 
ATOM      8  C   LIG    1       25.863 -27.029   7.038  0.00  0.00    +0.085 A 
ATOM      9  C   LIG    1       24.914 -27.632   6.204  0.00  0.00    +0.273 A 
ATOM     10  C   LIG    1       24.066 -26.848   5.416  0.00  0.00    +0.085 A 
ATOM     11  C   LIG    1       24.172 -25.455   5.468  0.00  0.00    +0.018 A 
BRANCH   9  12
ATOM     12  N   LIG    1       24.811 -29.095   6.151  0.00  0.00    +0.080 N 
ATOM     13  O   LIG    1       25.597 -29.701   5.410  0.00  0.00    -0.576 OA
ATOM     14  O   LIG    1       23.942 -29.637   6.850  0.00  0.00    +0.041 OA
ENDBRANCH   9  12
ENDBRANCH   3   6
BRANCH   1  16
ATOM     15  N   LIG    1       28.609 -20.906   6.637  0.00  0.00    -0.180 NA
ATOM     16  C   LIG    1       27.462 -20.754   7.221  0.00  0.00    +0.176 C 
BRANCH  15  23
ATOM     17  O   LIG    1       32.206 -19.466   9.362  0.00  0.00    -0.274 OA
ATOM     18  C   LIG    1       31.351 -19.527   8.490  0.00  0.00    +0.240 C 
ATOM     19  N   LIG    1       31.168 -18.598   7.517  0.00  0.00    -0.237 N 
ATOM     20  H   LIG    1       31.698 -17.749   7.425  0.00  0.00    +0.159 HD
ATOM     21  C   LIG    1       30.133 -18.945   6.700  0.00  0.00    +0.328 C 
ATOM     22  O   LIG    1       29.719 -18.255   5.785  0.00  0.00    -0.250 OA
ATOM     23  N   LIG    1       29.670 -20.200   7.127  0.00  0.00    -0.168 N 
ATOM     24  C   LIG    1       30.325 -20.630   8.337  0.00  0.00    +0.232 C 
ENDBRANCH  15  23
ENDBRANCH   1  16
TORSDOF 4
ENDMDL
MODEL 5
REMARK VINA RESULT:      -9.2      4.462     10.165
REMARK  Name = *****
REMARK                            x       y       z     vdW  Elec       q    Type
REMARK                         _______ _______ _______ _____ _____    ______ ____
ROOT
ATOM      1  C   LIG    1       25.288 -22.904   6.112  0.00  0.00    +0.148 A 
ATOM      2  O   LIG    1       26.549 -22.563   6.505  0.00  0.00    -0.454 OA
ATOM      3  C   LIG    1       26.608 -21.201   6.593  0.00  0.00    +0.136 A 
ATOM      4  C   LIG    1       25.388 -20.667   6.226  0.00  0.00    +0.050 A 
ATOM      5  C   LIG    1       24.539 -21.761   5.923  0.00  0.00    +0.051 A 
ENDROOT
BRANCH   3   6
ATOM      6  C   LIG    1       27.881 -20.643   7.044  0.00  0.00    +0.018 A 
ATOM      7  C   LIG    1       28.645 -21.296   8.026  0.00  0.00    +0.018 A 
ATOM      8  C   LIG    1       29.867 -20.769   8.456  0.00  0.00    +0.085 A 
ATOM      9  C   LIG    1       30.339 -19.573   7.901  0.00  0.00    +0.273 A 
ATOM     10  C   LIG    1       29.596 -18.907   6.922  0.00  0.00    +0.085 A 
ATOM     11  C   LIG    1       28.376 -19.444   6.500  0.00  0.00    +0.018 A 
BRANCH   9  12
ATOM     12  N   LIG    1       31.618 -19.012   8.352  0.00  0.00    +0.080 N 
ATOM     13  O   LIG    1       31.991 -17.948   7.840  0.00  0.00    -0.576 OA
ATOM     14  O   LIG    1       32.248 -19.638   9.217  0.00  0.00    +0.041 OA
ENDBRANCH   9  12
ENDBRANCH   3   6
BRANCH   1  16
ATOM     15  N   LIG    1       25.918 -25.157   5.730  0.00  0.00    -0.180 NA
ATOM     16  C   LIG    1       24.978 -24.300   5.980  0.00  0.00    +0.176 C 
BRANCH  15  23
ATOM     17  O   LIG    1       23.589 -29.271   6.026  0.00  0.00    -0.274 OA
ATOM     18  C   LIG    1       24.431 -28.419   5.782  0.00  0.00    +0.240 C 
ATOM     19  N   LIG    1       25.595 -28.646   5.121  0.00  0.00    -0.237 N 
ATOM     20  H   LIG    1       25.900 -29.542   4.783  0.00  0.00    +0.159 HD
ATOM     21  C   LIG    1       26.325 -27.500   5.011  0.00  0.00    +0.328 C 
ATOM     22  O   LIG    1       27.437 -27.438   4.517  0.00  0.00    -0.250 OA
ATOM     23  N   LIG    1       25.559 -26.464   5.570  0.00  0.00    -0.168 N 
ATOM     24  C   LIG    1       24.353 -26.961   6.184  0.00  0.00    +0.232 C 
ENDBRANCH  15  23
ENDBRANCH   1  16
TORSDOF 4
ENDMDL
MODEL 6
REMARK VINA RESULT:      -8.7      1.471      2.484
REMARK  Name = *****
REMARK                            x       y       z     vdW  Elec       q    Type
REMARK                         _______ _______ _______ _____ _____    ______ ____
ROOT
ATOM      1  C   LIG    1       29.265 -20.153   7.881  0.00  0.00    +0.148 A 
ATOM      2  O   LIG    1       28.069 -19.768   7.349  0.00  0.00    -0.454 OA
ATOM      3  C   LIG    1       27.388 -20.896   6.985  0.00  0.00    +0.136 A 
ATOM      4  C   LIG    1       28.164 -22.005   7.260  0.00  0.00    +0.050 A 
ATOM      5  C   LIG    1       29.366 -21.528   7.840  0.00  0.00    +0.051 A 
ENDROOT
BRANCH   3   6
ATOM      6  C   LIG    1       26.054 -20.686   6.427  0.00  0.00    +0.018 A 
ATOM      7  C   LIG    1       25.886 -20.342   5.075  0.00  0.00    +0.018 A 
ATOM      8  C   LIG    1       24.610 -20.147   4.535  0.00  0.00    +0.085 A 
ATOM      9  C   LIG    1       23.483 -20.298   5.351  0.00  0.00    +0.273 A 
ATOM     10  C   LIG    1       23.626 -20.642   6.698  0.00  0.00    +0.085 A 
ATOM     11  C   LIG    1       24.907 -20.835   7.226  0.00  0.00    +0.018 A 
BRANCH   9  12
ATOM     12  N   LIG    1       22.142 -20.091   4.792  0.00  0.00    +0.080 N 
ATOM     13  O   LIG    1       21.386 -21.070   4.731  0.00  0.00    -0.576 OA
ATOM     14  O   LIG    1       21.846 -18.948   4.412  0.00  0.00    +0.041 OA
ENDBRANCH   9  12
ENDBRANCH   3   6
BRANCH   1  16
ATOM     15  N   LIG    1       30.005 -18.659   9.565  0.00  0.00    -0.180 NA
ATOM     16  C   LIG    1       30.146 -19.128   8.366  0.00  0.00    +0.176 C 
BRANCH  15  23
ATOM     17  O   LIG    1       33.025 -15.011   9.497  0.00  0.00    -0.274 OA
ATOM     18  C   LIG    1       32.321 -15.939   9.868  0.00  0.00    +0.240 C 
ATOM     19  N   LIG    1       32.192 -16.348  11.156  0.00  0.00    -0.237 N 
ATOM     20  H   LIG    1       32.679 -15.948  11.938  0.00  0.00    +0.159 HD
ATOM     21  C   LIG    1       31.342 -17.410  11.247  0.00  0.00    +0.328 C 
ATOM     22  O   LIG    1       31.098 -18.008  12.279  0.00  0.00    -0.250 OA
ATOM     23  N   LIG    1       30.842 -17.654   9.957  0.00  0.00    -0.168 N 
ATOM     24  C   LIG    1       31.480 -16.821   8.969  0.00  0.00    +0.232 C 
ENDBRANCH  15  23
ENDBRANCH   1  16
TORSDOF 4
ENDMDL
MODEL 7
REMARK VINA RESULT:      -8.7      4.786     10.399
REMARK  Name = *****
REMARK                            x       y       z     vdW  Elec       q    Type
REMARK                         _______ _______ _______ _____ _____    ______ ____
ROOT
ATOM      1  C   LIG    1       24.623 -23.602   6.471  0.00  0.00    +0.148 A 
ATOM      2  O   LIG    1       25.884 -23.083   6.444  0.00  0.00    -0.454 OA
ATOM      3  C   LIG    1       25.821 -21.800   6.912  0.00  0.00    +0.136 A 
ATOM      4  C   LIG    1       24.509 -21.489   7.212  0.00  0.00    +0.050 A 
ATOM      5  C   LIG    1       23.741 -22.647   6.934  0.00  0.00    +0.051 A 
ENDROOT
BRANCH   3   6
ATOM      6  C   LIG    1       27.093 -21.086   6.998  0.00  0.00    +0.018 A 
ATOM      7  C   LIG    1       27.978 -21.319   8.063  0.00  0.00    +0.018 A 
ATOM      8  C   LIG    1       29.200 -20.642   8.146  0.00  0.00    +0.085 A 
ATOM      9  C   LIG    1       29.548 -19.719   7.152  0.00  0.00    +0.273 A 
ATOM     10  C   LIG    1       28.683 -19.473   6.082  0.00  0.00    +0.085 A 
ATOM     11  C   LIG    1       27.465 -20.156   6.011  0.00  0.00    +0.018 A 
BRANCH   9  12
ATOM     12  N   LIG    1       30.826 -19.003   7.235  0.00  0.00    +0.080 N 
ATOM     13  O   LIG    1       31.845 -19.600   6.865  0.00  0.00    -0.576 OA
ATOM     14  O   LIG    1       30.809 -17.842   7.672  0.00  0.00    +0.041 OA
ENDBRANCH   9  12
ENDBRANCH   3   6
BRANCH   1  16
ATOM     15  N   LIG    1       25.146 -25.910   6.589  0.00  0.00    -0.180 NA
ATOM     16  C   LIG    1       24.447 -24.963   6.048  0.00  0.00    +0.176 C 
BRANCH  15  23
ATOM     17  O   LIG    1       23.660 -30.380   6.094  0.00  0.00    -0.274 OA
ATOM     18  C   LIG    1       24.262 -29.327   5.952  0.00  0.00    +0.240 C 
ATOM     19  N   LIG    1       25.233 -29.105   5.029  0.00  0.00    -0.237 N 
ATOM     20  H   LIG    1       25.576 -29.792   4.380  0.00  0.00    +0.159 HD
ATOM     21  C   LIG    1       25.717 -27.835   5.124  0.00  0.00    +0.328 C 
ATOM     22  O   LIG    1       26.636 -27.398   4.455  0.00  0.00    -0.250 OA
ATOM     23  N   LIG    1       24.970 -27.179   6.116  0.00  0.00    -0.168 N 
ATOM     24  C   LIG    1       24.062 -28.077   6.785  0.00  0.00    +0.232 C 
ENDBRANCH  15  23
ENDBRANCH   1  16
TORSDOF 4
ENDMDL
MODEL 8
REMARK VINA RESULT:      -8.2      1.705      2.625
REMARK  Name = *****
REMARK                            x       y       z     vdW  Elec       q    Type
REMARK                         _______ _______ _______ _____ _____    ______ ____
ROOT
ATOM      1  C   LIG    1       28.842 -20.324   7.695  0.00  0.00    +0.148 A 
ATOM      2  O   LIG    1       27.718 -19.847   7.089  0.00  0.00    -0.454 OA
ATOM      3  C   LIG    1       26.887 -20.906   6.851  0.00  0.00    +0.136 A 
ATOM      4  C   LIG    1       27.496 -22.068   7.281  0.00  0.00    +0.050 A 
ATOM      5  C   LIG    1       28.748 -21.694   7.828  0.00  0.00    +0.051 A 
ENDROOT
BRANCH   3   6
ATOM      6  C   LIG    1       25.600 -20.585   6.237  0.00  0.00    +0.018 A 
ATOM      7  C   LIG    1       25.526 -20.169   4.897  0.00  0.00    +0.018 A 
ATOM      8  C   LIG    1       24.296 -19.866   4.304  0.00  0.00    +0.085 A 
ATOM      9  C   LIG    1       23.119 -19.981   5.054  0.00  0.00    +0.273 A 
ATOM     10  C   LIG    1       23.169 -20.395   6.388  0.00  0.00    +0.085 A 
ATOM     11  C   LIG    1       24.405 -20.694   6.969  0.00  0.00    +0.018 A 
BRANCH   9  12
ATOM     12  N   LIG    1       21.826 -19.661   4.438  0.00  0.00    +0.080 N 
ATOM     13  O   LIG    1       21.634 -18.493   4.076  0.00  0.00    -0.576 OA
ATOM     14  O   LIG    1       21.002 -20.580   4.319  0.00  0.00    +0.041 OA
ENDBRANCH   9  12
ENDBRANCH   3   6
BRANCH   1  16
ATOM     15  N   LIG    1       30.074 -19.120   9.322  0.00  0.00    -0.180 NA
ATOM     16  C   LIG    1       29.856 -19.380   8.072  0.00  0.00    +0.176 C 
BRANCH  15  23
ATOM     17  O   LIG    1       32.460 -15.636  11.470  0.00  0.00    -0.274 OA
ATOM     18  C   LIG    1       32.097 -16.480  10.663  0.00  0.00    +0.240 C 
ATOM     19  N   LIG    1       32.713 -16.740   9.482  0.00  0.00    -0.237 N 
ATOM     20  H   LIG    1       33.519 -16.251   9.134  0.00  0.00    +0.159 HD
ATOM     21  C   LIG    1       32.067 -17.729   8.802  0.00  0.00    +0.328 C 
ATOM     22  O   LIG    1       32.377 -18.112   7.688  0.00  0.00    -0.250 OA
ATOM     23  N   LIG    1       31.019 -18.179   9.621  0.00  0.00    -0.168 N 
ATOM     24  C   LIG    1       30.885 -17.377  10.811  0.00  0.00    +0.232 C 
ENDBRANCH  15  23
ENDBRANCH   1  16
TORSDOF 4
ENDMDL
MODEL 9
REMARK VINA RESULT:      -7.9      7.960     12.260
REMARK  Name = *****
REMARK                            x       y       z     vdW  Elec       q    Type
REMARK                         _______ _______ _______ _____ _____    ______ ____
ROOT
ATOM      1  C   LIG    1       24.811 -28.845   6.637  0.00  0.00    +0.148 A 
ATOM      2  O   LIG    1       24.740 -27.580   7.144  0.00  0.00    -0.454 OA
ATOM      3  C   LIG    1       24.885 -26.703   6.106  0.00  0.00    +0.136 A 
ATOM      4  C   LIG    1       25.078 -27.410   4.935  0.00  0.00    +0.050 A 
ATOM      5  C   LIG    1       25.025 -28.784   5.275  0.00  0.00    +0.051 A 
ENDROOT
BRANCH   3   6
ATOM      6  C   LIG    1       24.795 -25.285   6.449  0.00  0.00    +0.018 A 
ATOM      7  C   LIG    1       23.553 -24.629   6.476  0.00  0.00    +0.018 A 
ATOM      8  C   LIG    1       23.462 -23.273   6.810  0.00  0.00    +0.085 A 
ATOM      9  C   LIG    1       24.624 -22.558   7.123  0.00  0.00    +0.273 A 
ATOM     10  C   LIG    1       25.870 -23.191   7.104  0.00  0.00    +0.085 A 
ATOM     11  C   LIG    1       25.948 -24.547   6.769  0.00  0.00    +0.018 A 
BRANCH   9  12
ATOM     12  N   LIG    1       24.536 -21.135   7.470  0.00  0.00    +0.080 N 
ATOM     13  O   LIG    1       25.594 -20.498   7.560  0.00  0.00    -0.576 OA
ATOM     14  O   LIG    1       23.407 -20.656   7.654  0.00  0.00    +0.041 OA
ENDBRANCH   9  12
ENDBRANCH   3   6
BRANCH   1  16
ATOM     15  N   LIG    1       23.679 -29.950   8.401  0.00  0.00    -0.180 NA
ATOM     16  C   LIG    1       24.653 -29.944   7.547  0.00  0.00    +0.176 C 
BRANCH  15  23
ATOM     17  O   LIG    1       24.745 -33.825  10.909  0.00  0.00    -0.274 OA
ATOM     18  C   LIG    1       24.146 -32.881  10.413  0.00  0.00    +0.240 C 
ATOM     19  N   LIG    1       22.846 -32.574  10.653  0.00  0.00    -0.237 N 
ATOM     20  H   LIG    1       22.230 -33.103  11.245  0.00  0.00    +0.159 HD
ATOM     21  C   LIG    1       22.467 -31.470   9.949  0.00  0.00    +0.328 C 
ATOM     22  O   LIG    1       21.336 -31.018   9.936  0.00  0.00    -0.250 OA
ATOM     23  N   LIG    1       23.604 -30.998   9.273  0.00  0.00    -0.168 N 
ATOM     24  C   LIG    1       24.727 -31.889   9.426  0.00  0.00    +0.232 C 
ENDBRANCH  15  23
ENDBRANCH   1  16
TORSDOF 4
ENDMDL
