MODEL 1
REMARK VINA RESULT:      -6.1      0.000      0.000
REMARK  Name = *****
REMARK                            x       y       z     vdW  Elec       q    Type
REMARK                         _______ _______ _______ _____ _____    ______ ____
ROOT
ATOM      1  C   LIG    1       24.550 -33.046   7.945  0.00  0.00    +0.014 C 
ATOM      2  C   LIG    1       24.776 -31.546   7.755  0.00  0.00    -0.000 C 
ATOM      3  C   LIG    1       24.739 -31.207   6.173  0.00  0.00    +0.069 C 
ATOM      4  C   LIG    1       25.104 -32.305   5.188  0.00  0.00    +0.042 C 
ATOM      5  C   LIG    1       25.312 -29.811   6.196  0.00  0.00    +0.035 C 
ATOM      6  C   LIG    1       24.472 -29.220   7.406  0.00  0.00    +0.007 C 
ATOM      7  C   LIG    1       23.757 -30.492   8.145  0.00  0.00    +0.001 C 
ATOM      8  C   LIG    1       23.375 -30.448   9.629  0.00  0.00    -0.004 C 
ATOM      9  C   LIG    1       23.071 -31.792  10.371  0.00  0.00    +0.004 C 
ATOM     10  C   LIG    1       24.037 -32.149  11.539  0.00  0.00    +0.005 C 
ATOM     11  C   LIG    1       24.127 -31.024  12.610  0.00  0.00    +0.001 C 
ATOM     12  C   LIG    1       23.995 -29.602  11.920  0.00  0.00    -0.022 C 
ATOM     13  C   LIG    1       22.497 -29.180  12.129  0.00  0.00    +0.012 C 
ATOM     14  C   LIG    1       24.804 -28.456  12.578  0.00  0.00    +0.045 C 
ATOM     15  C   LIG    1       26.149 -28.937  12.913  0.00  0.00    -0.006 A 
ATOM     16  C   LIG    1       26.331 -30.154  13.473  0.00  0.00    +0.040 A 
ATOM     17  N   LIG    1       27.666 -30.224  13.806  0.00  0.00    -0.281 N 
ATOM     18  H   LIG    1       28.147 -30.878  14.374  0.00  0.00    +0.189 HD
ATOM     19  N   LIG    1       28.367 -29.234  13.196  0.00  0.00    -0.182 NA
ATOM     20  C   LIG    1       27.440 -28.464  12.626  0.00  0.00    +0.138 A 
ATOM     21  C   LIG    1       25.288 -31.196  13.661  0.00  0.00    +0.059 C 
ATOM     22  C   LIG    1       24.411 -29.674  10.384  0.00  0.00    -0.001 C 
ATOM     23  C   LIG    1       25.835 -30.221   9.976  0.00  0.00    +0.005 C 
ATOM     24  C   LIG    1       26.041 -31.156   8.680  0.00  0.00    +0.010 C 
ENDROOT
BRANCH   3  25
ATOM     25  O   LIG    1       23.370 -30.965   5.677  0.00  0.00    -0.388 OA
ATOM     26  H   LIG    1       22.749 -31.294   6.353  0.00  0.00    +0.210 HD
ENDBRANCH   3  25
TORSDOF 1
ENDMDL
MODEL 2
REMARK VINA RESULT:      -5.9      3.436      5.947
REMARK  Name = *****
REMARK                            x       y       z     vdW  Elec       q    Type
REMARK                         _______ _______ _______ _____ _____    ______ ____
ROOT
ATOM      1  C   LIG    1       22.521 -32.479  12.631  0.00  0.00    +0.014 C 
ATOM      2  C   LIG    1       22.405 -30.973  12.396  0.00  0.00    -0.000 C 
ATOM      3  C   LIG    1       21.428 -30.341  13.520  0.00  0.00    +0.069 C 
ATOM      4  C   LIG    1       20.377 -31.236  14.153  0.00  0.00    +0.042 C 
ATOM      5  C   LIG    1       21.184 -28.981  12.912  0.00  0.00    +0.035 C 
ATOM      6  C   LIG    1       22.676 -28.620  12.509  0.00  0.00    +0.007 C 
ATOM      7  C   LIG    1       23.544 -30.001  12.640  0.00  0.00    +0.001 C 
ATOM      8  C   LIG    1       24.813 -30.234  11.812  0.00  0.00    -0.004 C 
ATOM      9  C   LIG    1       25.369 -31.691  11.676  0.00  0.00    +0.004 C 
ATOM     10  C   LIG    1       25.381 -32.274  10.232  0.00  0.00    +0.005 C 
ATOM     11  C   LIG    1       26.156 -31.373   9.227  0.00  0.00    +0.001 C 
ATOM     12  C   LIG    1       25.966 -29.845   9.606  0.00  0.00    -0.022 C 
ATOM     13  C   LIG    1       27.265 -29.453  10.397  0.00  0.00    +0.012 C 
ATOM     14  C   LIG    1       25.937 -28.854   8.415  0.00  0.00    +0.045 C 
ATOM     15  C   LIG    1       25.104 -29.405   7.340  0.00  0.00    -0.006 A 
ATOM     16  C   LIG    1       25.195 -30.709   6.993  0.00  0.00    +0.040 A 
ATOM     17  N   LIG    1       24.417 -30.856   5.865  0.00  0.00    -0.281 N 
ATOM     18  H   LIG    1       24.358 -31.612   5.226  0.00  0.00    +0.189 HD
ATOM     19  N   LIG    1       23.612 -29.777   5.690  0.00  0.00    -0.182 NA
ATOM     20  C   LIG    1       24.014 -28.901   6.613  0.00  0.00    +0.138 A 
ATOM     21  C   LIG    1       25.968 -31.755   7.710  0.00  0.00    +0.059 C 
ATOM     22  C   LIG    1       24.635 -29.629  10.453  0.00  0.00    -0.001 C 
ATOM     23  C   LIG    1       23.244 -30.106   9.875  0.00  0.00    +0.005 C 
ATOM     24  C   LIG    1       22.125 -30.781  10.817  0.00  0.00    +0.010 C 
ENDROOT
BRANCH   3  25
ATOM     25  O   LIG    1       22.144 -29.993  14.763  0.00  0.00    -0.388 OA
ATOM     26  H   LIG    1       21.634 -29.292  15.210  0.00  0.00    +0.210 HD
ENDBRANCH   3  25
TORSDOF 1
ENDMDL
MODEL 3
REMARK VINA RESULT:      -5.8      3.698      6.480
REMARK  Name = *****
REMARK                            x       y       z     vdW  Elec       q    Type
REMARK                         _______ _______ _______ _____ _____    ______ ____
ROOT
ATOM      1  C   LIG    1       20.244 -29.840  14.885  0.00  0.00    +0.014 C 
ATOM      2  C   LIG    1       20.645 -28.661  14.000  0.00  0.00    -0.000 C 
ATOM      3  C   LIG    1       19.687 -27.402  14.338  0.00  0.00    +0.069 C 
ATOM      4  C   LIG    1       18.301 -27.675  14.899  0.00  0.00    +0.042 C 
ATOM      5  C   LIG    1       20.005 -26.513  13.161  0.00  0.00    +0.035 C 
ATOM      6  C   LIG    1       21.587 -26.648  13.171  0.00  0.00    +0.007 C 
ATOM      7  C   LIG    1       21.943 -27.895  14.169  0.00  0.00    +0.001 C 
ATOM      8  C   LIG    1       23.230 -28.712  14.005  0.00  0.00    -0.004 C 
ATOM      9  C   LIG    1       23.332 -30.108  14.707  0.00  0.00    +0.004 C 
ATOM     10  C   LIG    1       23.481 -31.330  13.754  0.00  0.00    +0.005 C 
ATOM     11  C   LIG    1       24.692 -31.194  12.786  0.00  0.00    +0.001 C 
ATOM     12  C   LIG    1       24.898 -29.675  12.380  0.00  0.00    -0.022 C 
ATOM     13  C   LIG    1       26.050 -29.153  13.312  0.00  0.00    +0.012 C 
ATOM     14  C   LIG    1       25.431 -29.427  10.947  0.00  0.00    +0.045 C 
ATOM     15  C   LIG    1       24.725 -30.302  10.004  0.00  0.00    -0.006 A 
ATOM     16  C   LIG    1       24.488 -31.598  10.305  0.00  0.00    +0.040 A 
ATOM     17  N   LIG    1       23.967 -32.165   9.163  0.00  0.00    -0.281 N 
ATOM     18  H   LIG    1       23.822 -33.118   8.934  0.00  0.00    +0.189 HD
ATOM     19  N   LIG    1       23.586 -31.207   8.280  0.00  0.00    -0.182 NA
ATOM     20  C   LIG    1       24.025 -30.064   8.810  0.00  0.00    +0.138 A 
ATOM     21  C   LIG    1       24.732 -32.251  11.618  0.00  0.00    +0.059 C 
ATOM     22  C   LIG    1       23.544 -28.853  12.547  0.00  0.00    -0.001 C 
ATOM     23  C   LIG    1       22.235 -29.325  11.800  0.00  0.00    +0.005 C 
ATOM     24  C   LIG    1       20.787 -29.245  12.501  0.00  0.00    +0.010 C 
ENDROOT
BRANCH   3  25
ATOM     25  O   LIG    1       20.185 -26.597  15.470  0.00  0.00    -0.388 OA
ATOM     26  H   LIG    1       20.522 -27.215  16.145  0.00  0.00    +0.210 HD
ENDBRANCH   3  25
TORSDOF 1
ENDMDL
MODEL 4
REMARK VINA RESULT:      -5.4      9.897     11.973
REMARK  Name = *****
REMARK                            x       y       z     vdW  Elec       q    Type
REMARK                         _______ _______ _______ _____ _____    ______ ____
ROOT
ATOM      1  C   LIG    1       28.648 -19.226   9.221  0.00  0.00    +0.014 C 
ATOM      2  C   LIG    1       28.984 -19.640   7.788  0.00  0.00    -0.000 C 
ATOM      3  C   LIG    1       30.563 -19.399   7.530  0.00  0.00    +0.069 C 
ATOM      4  C   LIG    1       31.279 -18.341   8.352  0.00  0.00    +0.042 C 
ATOM      5  C   LIG    1       30.599 -19.527   6.027  0.00  0.00    +0.035 C 
ATOM      6  C   LIG    1       29.707 -20.830   5.868  0.00  0.00    +0.007 C 
ATOM      7  C   LIG    1       28.985 -21.082   7.316  0.00  0.00    +0.001 C 
ATOM      8  C   LIG    1       27.649 -21.825   7.429  0.00  0.00    -0.004 C 
ATOM      9  C   LIG    1       26.821 -21.693   8.751  0.00  0.00    +0.004 C 
ATOM     10  C   LIG    1       25.425 -21.019   8.605  0.00  0.00    +0.005 C 
ATOM     11  C   LIG    1       24.525 -21.722   7.548  0.00  0.00    +0.001 C 
ATOM     12  C   LIG    1       25.414 -22.276   6.357  0.00  0.00    -0.022 C 
ATOM     13  C   LIG    1       25.615 -23.802   6.668  0.00  0.00    +0.012 C 
ATOM     14  C   LIG    1       24.750 -22.261   4.957  0.00  0.00    +0.045 C 
ATOM     15  C   LIG    1       24.052 -20.985   4.760  0.00  0.00    -0.006 A 
ATOM     16  C   LIG    1       23.306 -20.444   5.749  0.00  0.00    +0.040 A 
ATOM     17  N   LIG    1       22.668 -19.357   5.192  0.00  0.00    -0.281 N 
ATOM     18  H   LIG    1       21.921 -18.808   5.543  0.00  0.00    +0.189 HD
ATOM     19  N   LIG    1       23.229 -19.028   4.001  0.00  0.00    -0.182 NA
ATOM     20  C   LIG    1       24.097 -20.010   3.751  0.00  0.00    +0.138 A 
ATOM     21  C   LIG    1       23.223 -20.931   7.151  0.00  0.00    +0.059 C 
ATOM     22  C   LIG    1       26.789 -21.478   6.253  0.00  0.00    -0.001 C 
ATOM     23  C   LIG    1       26.780 -19.906   6.091  0.00  0.00    +0.005 C 
ATOM     24  C   LIG    1       27.854 -18.974   6.847  0.00  0.00    +0.010 C 
ENDROOT
BRANCH   3  25
ATOM     25  O   LIG    1       31.389 -20.547   7.952  0.00  0.00    -0.388 OA
ATOM     26  H   LIG    1       30.835 -21.116   8.518  0.00  0.00    +0.210 HD
ENDBRANCH   3  25
TORSDOF 1
ENDMDL
MODEL 5
REMARK VINA RESULT:      -5.4      2.916      4.587
REMARK  Name = *****
REMARK                            x       y       z     vdW  Elec       q    Type
REMARK                         _______ _______ _______ _____ _____    ______ ____
ROOT
ATOM      1  C   LIG    1       26.630 -29.381   9.185  0.00  0.00    +0.014 C 
ATOM      2  C   LIG    1       25.807 -30.466   9.881  0.00  0.00    -0.000 C 
ATOM      3  C   LIG    1       26.019 -31.866   9.100  0.00  0.00    +0.069 C 
ATOM      4  C   LIG    1       26.393 -31.826   7.628  0.00  0.00    +0.042 C 
ATOM      5  C   LIG    1       24.895 -32.671   9.706  0.00  0.00    +0.035 C 
ATOM      6  C   LIG    1       25.112 -32.288  11.231  0.00  0.00    +0.007 C 
ATOM      7  C   LIG    1       26.146 -31.019  11.252  0.00  0.00    +0.001 C 
ATOM      8  C   LIG    1       26.151 -30.006  12.402  0.00  0.00    -0.004 C 
ATOM      9  C   LIG    1       26.858 -28.625  12.188  0.00  0.00    +0.004 C 
ATOM     10  C   LIG    1       25.930 -27.376  12.263  0.00  0.00    +0.005 C 
ATOM     11  C   LIG    1       25.130 -27.300  13.595  0.00  0.00    +0.001 C 
ATOM     12  C   LIG    1       24.757 -28.760  14.091  0.00  0.00    -0.022 C 
ATOM     13  C   LIG    1       25.832 -29.111  15.181  0.00  0.00    +0.012 C 
ATOM     14  C   LIG    1       23.406 -28.893  14.838  0.00  0.00    +0.045 C 
ATOM     15  C   LIG    1       22.377 -28.123  14.130  0.00  0.00    -0.006 A 
ATOM     16  C   LIG    1       22.643 -26.886  13.653  0.00  0.00    +0.040 A 
ATOM     17  N   LIG    1       21.442 -26.387  13.200  0.00  0.00    -0.281 N 
ATOM     18  H   LIG    1       21.194 -25.464  12.936  0.00  0.00    +0.189 HD
ATOM     19  N   LIG    1       20.518 -27.376  13.095  0.00  0.00    -0.182 NA
ATOM     20  C   LIG    1       21.103 -28.445  13.637  0.00  0.00    +0.138 A 
ATOM     21  C   LIG    1       23.976 -26.228  13.617  0.00  0.00    +0.059 C 
ATOM     22  C   LIG    1       24.746 -29.789  12.876  0.00  0.00    -0.001 C 
ATOM     23  C   LIG    1       23.833 -29.516  11.616  0.00  0.00    +0.005 C 
ATOM     24  C   LIG    1       24.339 -29.837  10.121  0.00  0.00    +0.010 C 
ENDROOT
BRANCH   3  25
ATOM     25  O   LIG    1       27.207 -32.604   9.569  0.00  0.00    -0.388 OA
ATOM     26  H   LIG    1       27.488 -33.199   8.850  0.00  0.00    +0.210 HD
ENDBRANCH   3  25
TORSDOF 1
ENDMDL
MODEL 6
REMARK VINA RESULT:      -5.4      2.323      3.817
REMARK  Name = *****
REMARK                            x       y       z     vdW  Elec       q    Type
REMARK                         _______ _______ _______ _____ _____    ______ ____
ROOT
ATOM      1  C   LIG    1       25.260 -30.049   7.809  0.00  0.00    +0.014 C 
ATOM      2  C   LIG    1       24.615 -30.920   8.887  0.00  0.00    -0.000 C 
ATOM      3  C   LIG    1       24.045 -32.269   8.199  0.00  0.00    +0.069 C 
ATOM      4  C   LIG    1       23.664 -32.227   6.728  0.00  0.00    +0.042 C 
ATOM      5  C   LIG    1       23.181 -32.785   9.323  0.00  0.00    +0.035 C 
ATOM      6  C   LIG    1       24.194 -32.581  10.527  0.00  0.00    +0.007 C 
ATOM      7  C   LIG    1       25.408 -31.639   9.962  0.00  0.00    +0.001 C 
ATOM      8  C   LIG    1       26.233 -30.746  10.896  0.00  0.00    -0.004 C 
ATOM      9  C   LIG    1       27.090 -29.593  10.276  0.00  0.00    +0.004 C 
ATOM     10  C   LIG    1       26.683 -28.151  10.699  0.00  0.00    +0.005 C 
ATOM     11  C   LIG    1       26.672 -27.957  12.243  0.00  0.00    +0.001 C 
ATOM     12  C   LIG    1       26.209 -29.296  12.956  0.00  0.00    -0.022 C 
ATOM     13  C   LIG    1       27.536 -29.996  13.420  0.00  0.00    +0.012 C 
ATOM     14  C   LIG    1       25.402 -29.116  14.267  0.00  0.00    +0.045 C 
ATOM     15  C   LIG    1       24.407 -28.052  14.087  0.00  0.00    -0.006 A 
ATOM     16  C   LIG    1       24.731 -26.900  13.456  0.00  0.00    +0.040 A 
ATOM     17  N   LIG    1       23.642 -26.069  13.602  0.00  0.00    -0.281 N 
ATOM     18  H   LIG    1       23.555 -25.097  13.425  0.00  0.00    +0.189 HD
ATOM     19  N   LIG    1       22.555 -26.766  14.020  0.00  0.00    -0.182 NA
ATOM     20  C   LIG    1       23.019 -27.988  14.288  0.00  0.00    +0.138 A 
ATOM     21  C   LIG    1       26.003 -26.621  12.741  0.00  0.00    +0.059 C 
ATOM     22  C   LIG    1       25.343 -30.197  11.969  0.00  0.00    -0.001 C 
ATOM     23  C   LIG    1       24.049 -29.603  11.285  0.00  0.00    +0.005 C 
ATOM     24  C   LIG    1       23.670 -29.942   9.757  0.00  0.00    +0.010 C 
ENDROOT
BRANCH   3  25
ATOM     25  O   LIG    1       25.067 -33.327   8.091  0.00  0.00    -0.388 OA
ATOM     26  H   LIG    1       25.010 -33.702   7.193  0.00  0.00    +0.210 HD
ENDBRANCH   3  25
TORSDOF 1
ENDMDL
MODEL 7
REMARK VINA RESULT:      -5.3      2.254      3.874
REMARK  Name = *****
REMARK                            x       y       z     vdW  Elec       q    Type
REMARK                         _______ _______ _______ _____ _____    ______ ____
ROOT
ATOM      1  C   LIG    1       25.793 -28.688   8.169  0.00  0.00    +0.014 C 
ATOM      2  C   LIG    1       25.593 -30.073   8.784  0.00  0.00    -0.000 C 
ATOM      3  C   LIG    1       25.605 -31.178   7.602  0.00  0.00    +0.069 C 
ATOM      4  C   LIG    1       25.198 -30.747   6.203  0.00  0.00    +0.042 C 
ATOM      5  C   LIG    1       25.060 -32.366   8.357  0.00  0.00    +0.035 C 
ATOM      6  C   LIG    1       25.936 -32.244   9.675  0.00  0.00    +0.007 C 
ATOM      7  C   LIG    1       26.640 -30.768   9.633  0.00  0.00    +0.001 C 
ATOM      8  C   LIG    1       27.054 -30.038  10.917  0.00  0.00    -0.004 C 
ATOM      9  C   LIG    1       27.346 -28.502  10.851  0.00  0.00    +0.004 C 
ATOM     10  C   LIG    1       26.397 -27.601  11.695  0.00  0.00    +0.005 C 
ATOM     11  C   LIG    1       26.351 -28.013  13.195  0.00  0.00    +0.001 C 
ATOM     12  C   LIG    1       26.497 -29.587  13.332  0.00  0.00    -0.022 C 
ATOM     13  C   LIG    1       28.008 -29.831  13.687  0.00  0.00    +0.012 C 
ATOM     14  C   LIG    1       25.725 -30.234  14.509  0.00  0.00    +0.045 C 
ATOM     15  C   LIG    1       24.377 -29.659  14.586  0.00  0.00    -0.006 A 
ATOM     16  C   LIG    1       24.183 -28.328  14.442  0.00  0.00    +0.040 A 
ATOM     17  N   LIG    1       22.854 -28.105  14.729  0.00  0.00    -0.281 N 
ATOM     18  H   LIG    1       22.371 -27.255  14.892  0.00  0.00    +0.189 HD
ATOM     19  N   LIG    1       22.160 -29.272  14.736  0.00  0.00    -0.182 NA
ATOM     20  C   LIG    1       23.091 -30.221  14.618  0.00  0.00    +0.138 A 
ATOM     21  C   LIG    1       25.208 -27.332  14.038  0.00  0.00    +0.059 C 
ATOM     22  C   LIG    1       26.049 -30.319  11.991  0.00  0.00    -0.001 C 
ATOM     23  C   LIG    1       24.606 -30.070  11.398  0.00  0.00    +0.005 C 
ATOM     24  C   LIG    1       24.355 -29.938   9.812  0.00  0.00    +0.010 C 
ENDROOT
BRANCH   3  25
ATOM     25  O   LIG    1       26.967 -31.632   7.264  0.00  0.00    -0.388 OA
ATOM     26  H   LIG    1       27.493 -31.624   8.085  0.00  0.00    +0.210 HD
ENDBRANCH   3  25
TORSDOF 1
ENDMDL
MODEL 8
REMARK VINA RESULT:      -5.2      3.433      6.166
REMARK  Name = *****
REMARK                            x       y       z     vdW  Elec       q    Type
REMARK                         _______ _______ _______ _____ _____    ______ ____
ROOT
ATOM      1  C   LIG    1       20.817 -32.518  11.337  0.00  0.00    +0.014 C 
ATOM      2  C   LIG    1       21.996 -31.632  11.738  0.00  0.00    -0.000 C 
ATOM      3  C   LIG    1       21.870 -31.272  13.310  0.00  0.00    +0.069 C 
ATOM      4  C   LIG    1       20.490 -31.277  13.947  0.00  0.00    +0.042 C 
ATOM      5  C   LIG    1       22.883 -30.157  13.400  0.00  0.00    +0.035 C 
ATOM      6  C   LIG    1       24.063 -30.829  12.579  0.00  0.00    +0.007 C 
ATOM      7  C   LIG    1       23.425 -32.134  11.825  0.00  0.00    +0.001 C 
ATOM      8  C   LIG    1       24.023 -32.683  10.525  0.00  0.00    -0.004 C 
ATOM      9  C   LIG    1       23.163 -33.655   9.650  0.00  0.00    +0.004 C 
ATOM     10  C   LIG    1       22.800 -33.136   8.228  0.00  0.00    +0.005 C 
ATOM     11  C   LIG    1       24.052 -32.730   7.398  0.00  0.00    +0.001 C 
ATOM     12  C   LIG    1       25.162 -32.117   8.350  0.00  0.00    -0.022 C 
ATOM     13  C   LIG    1       26.170 -33.292   8.615  0.00  0.00    +0.012 C 
ATOM     14  C   LIG    1       26.040 -31.001   7.730  0.00  0.00    +0.045 C 
ATOM     15  C   LIG    1       25.190 -30.072   6.977  0.00  0.00    -0.006 A 
ATOM     16  C   LIG    1       24.204 -30.531   6.174  0.00  0.00    +0.040 A 
ATOM     17  N   LIG    1       23.719 -29.430   5.501  0.00  0.00    -0.281 N 
ATOM     18  H   LIG    1       23.115 -29.378   4.717  0.00  0.00    +0.189 HD
ATOM     19  N   LIG    1       24.149 -28.282   6.082  0.00  0.00    -0.182 NA
ATOM     20  C   LIG    1       25.028 -28.677   7.005  0.00  0.00    +0.138 A 
ATOM     21  C   LIG    1       23.742 -31.939   6.070  0.00  0.00    +0.059 C 
ATOM     22  C   LIG    1       24.513 -31.543   9.686  0.00  0.00    -0.001 C 
ATOM     23  C   LIG    1       23.367 -30.458   9.605  0.00  0.00    +0.005 C 
ATOM     24  C   LIG    1       22.107 -30.484  10.607  0.00  0.00    +0.010 C 
ENDROOT
BRANCH   3  25
ATOM     25  O   LIG    1       22.474 -32.301  14.178  0.00  0.00    -0.388 OA
ATOM     26  H   LIG    1       22.712 -33.060  13.614  0.00  0.00    +0.210 HD
ENDBRANCH   3  25
TORSDOF 1
ENDMDL
MODEL 9
REMARK VINA RESULT:      -5.1      8.766     10.963
REMARK  Name = *****
REMARK                            x       y       z     vdW  Elec       q    Type
REMARK                         _______ _______ _______ _____ _____    ______ ____
ROOT
ATOM      1  C   LIG    1       28.933 -19.333   5.487  0.00  0.00    +0.014 C 
ATOM      2  C   LIG    1       28.921 -20.141   6.784  0.00  0.00    -0.000 C 
ATOM      3  C   LIG    1       30.108 -19.606   7.745  0.00  0.00    +0.069 C 
ATOM      4  C   LIG    1       31.319 -18.949   7.105  0.00  0.00    +0.042 C 
ATOM      5  C   LIG    1       30.139 -20.722   8.760  0.00  0.00    +0.035 C 
ATOM      6  C   LIG    1       28.580 -20.867   9.016  0.00  0.00    +0.007 C 
ATOM      7  C   LIG    1       27.831 -20.022   7.832  0.00  0.00    +0.001 C 
ATOM      8  C   LIG    1       26.413 -20.374   7.367  0.00  0.00    -0.004 C 
ATOM      9  C   LIG    1       25.907 -19.813   5.996  0.00  0.00    +0.004 C 
ATOM     10  C   LIG    1       25.578 -20.882   4.912  0.00  0.00    +0.005 C 
ATOM     11  C   LIG    1       24.547 -21.939   5.403  0.00  0.00    +0.001 C 
ATOM     12  C   LIG    1       24.753 -22.223   6.950  0.00  0.00    -0.022 C 
ATOM     13  C   LIG    1       23.662 -21.356   7.676  0.00  0.00    +0.012 C 
ATOM     14  C   LIG    1       24.453 -23.670   7.415  0.00  0.00    +0.045 C 
ATOM     15  C   LIG    1       25.031 -24.621   6.458  0.00  0.00    -0.006 A 
ATOM     16  C   LIG    1       24.920 -24.417   5.126  0.00  0.00    +0.040 A 
ATOM     17  N   LIG    1       25.414 -25.555   4.525  0.00  0.00    -0.281 N 
ATOM     18  H   LIG    1       25.353 -25.855   3.582  0.00  0.00    +0.189 HD
ATOM     19  N   LIG    1       26.105 -26.309   5.416  0.00  0.00    -0.182 NA
ATOM     20  C   LIG    1       25.894 -25.720   6.595  0.00  0.00    +0.138 A 
ATOM     21  C   LIG    1       24.386 -23.196   4.468  0.00  0.00    +0.059 C 
ATOM     22  C   LIG    1       26.236 -21.861   7.403  0.00  0.00    -0.001 C 
ATOM     23  C   LIG    1       27.470 -22.527   6.675  0.00  0.00    +0.005 C 
ATOM     24  C   LIG    1       28.810 -21.693   6.352  0.00  0.00    +0.010 C 
ENDROOT
BRANCH   3  25
ATOM     25  O   LIG    1       29.693 -18.456   8.572  0.00  0.00    -0.388 OA
ATOM     26  H   LIG    1       30.192 -17.676   8.264  0.00  0.00    +0.210 HD
ENDBRANCH   3  25
TORSDOF 1
ENDMDL
