MODEL 1
REMARK VINA RESULT:      -6.0      0.000      0.000
REMARK  Name = *****
REMARK                            x       y       z     vdW  Elec       q    Type
REMARK                         _______ _______ _______ _____ _____    ______ ____
ROOT
ATOM      1  C   LIG    1       25.279 -15.189   3.401  0.00  0.00    -0.033 A 
ATOM      2  C   LIG    1       25.431 -16.585   3.322  0.00  0.00    +0.016 A 
ATOM      3  C   LIG    1       24.440 -17.455   3.795  0.00  0.00    +0.022 A 
ATOM      4  C   LIG    1       23.266 -16.919   4.336  0.00  0.00    +0.012 A 
ATOM      5  C   LIG    1       23.096 -15.533   4.410  0.00  0.00    +0.001 A 
ATOM      6  C   LIG    1       24.096 -14.673   3.949  0.00  0.00    +0.004 A 
ENDROOT
BRANCH   1   8
ATOM      7  C   LIG    1       25.802 -12.993   2.318  0.00  0.00    +0.024 C 
ATOM      8  C   LIG    1       26.399 -14.256   2.958  0.00  0.00    +0.124 C 
BRANCH   8   9
ATOM      9  C   LIG    1       27.374 -13.902   4.077  0.00  0.00    +0.312 C 
ATOM     10  O   LIG    1       27.059 -13.766   5.257  0.00  0.00    -0.250 OA
BRANCH   9  11
ATOM     11  O   LIG    1       28.652 -13.728   3.671  0.00  0.00    -0.480 OA
ATOM     12  H   LIG    1       29.324 -14.165   4.231  0.00  0.00    +0.295 HD
ENDBRANCH   9  11
ENDBRANCH   8   9
ENDBRANCH   1   8
BRANCH   3  13
ATOM     13  C   LIG    1       24.593 -18.938   3.683  0.00  0.00    +0.193 C 
ATOM     14  O   LIG    1       24.893 -19.421   2.594  0.00  0.00    -0.287 OA
BRANCH  13  15
ATOM     15  C   LIG    1       24.417 -19.845   4.858  0.00  0.00    +0.022 A 
ATOM     16  C   LIG    1       25.513 -20.414   5.521  0.00  0.00    +0.012 A 
ATOM     17  C   LIG    1       25.317 -21.280   6.599  0.00  0.00    +0.001 A 
ATOM     18  C   LIG    1       24.028 -21.541   7.060  0.00  0.00    +0.000 A 
ATOM     19  C   LIG    1       22.933 -20.947   6.434  0.00  0.00    +0.001 A 
ATOM     20  C   LIG    1       23.124 -20.107   5.331  0.00  0.00    +0.012 A 
ENDBRANCH  13  15
ENDBRANCH   3  13
TORSDOF 5
ENDMDL
MODEL 2
REMARK VINA RESULT:      -5.8      1.862      2.926
REMARK  Name = *****
REMARK                            x       y       z     vdW  Elec       q    Type
REMARK                         _______ _______ _______ _____ _____    ______ ____
ROOT
ATOM      1  C   LIG    1       25.350 -14.496   3.642  0.00  0.00    -0.033 A 
ATOM      2  C   LIG    1       24.971 -15.824   3.380  0.00  0.00    +0.016 A 
ATOM      3  C   LIG    1       25.901 -16.871   3.427  0.00  0.00    +0.022 A 
ATOM      4  C   LIG    1       27.230 -16.586   3.763  0.00  0.00    +0.012 A 
ATOM      5  C   LIG    1       27.618 -15.271   4.038  0.00  0.00    +0.001 A 
ATOM      6  C   LIG    1       26.686 -14.231   3.975  0.00  0.00    +0.004 A 
ENDROOT
BRANCH   1   8
ATOM      7  C   LIG    1       24.212 -12.621   4.850  0.00  0.00    +0.024 C 
ATOM      8  C   LIG    1       24.346 -13.358   3.508  0.00  0.00    +0.124 C 
BRANCH   8   9
ATOM      9  C   LIG    1       24.672 -12.389   2.375  0.00  0.00    +0.312 C 
ATOM     10  O   LIG    1       25.762 -12.318   1.813  0.00  0.00    -0.250 OA
BRANCH   9  11
ATOM     11  O   LIG    1       23.651 -11.575   2.023  0.00  0.00    -0.480 OA
ATOM     12  H   LIG    1       23.915 -10.664   1.783  0.00  0.00    +0.295 HD
ENDBRANCH   9  11
ENDBRANCH   8   9
ENDBRANCH   1   8
BRANCH   3  13
ATOM     13  C   LIG    1       25.490 -18.285   3.175  0.00  0.00    +0.193 C 
ATOM     14  O   LIG    1       25.958 -18.874   2.204  0.00  0.00    -0.287 OA
BRANCH  13  15
ATOM     15  C   LIG    1       24.547 -19.011   4.080  0.00  0.00    +0.022 A 
ATOM     16  C   LIG    1       23.181 -18.700   4.125  0.00  0.00    +0.012 A 
ATOM     17  C   LIG    1       22.329 -19.377   5.000  0.00  0.00    +0.001 A 
ATOM     18  C   LIG    1       22.822 -20.407   5.798  0.00  0.00    +0.000 A 
ATOM     19  C   LIG    1       24.170 -20.753   5.731  0.00  0.00    +0.001 A 
ATOM     20  C   LIG    1       25.035 -20.053   4.881  0.00  0.00    +0.012 A 
ENDBRANCH  13  15
ENDBRANCH   3  13
TORSDOF 5
ENDMDL
MODEL 3
REMARK VINA RESULT:      -5.7      2.178      6.768
REMARK  Name = *****
REMARK                            x       y       z     vdW  Elec       q    Type
REMARK                         _______ _______ _______ _____ _____    ______ ____
ROOT
ATOM      1  C   LIG    1       23.455 -18.209   4.189  0.00  0.00    -0.033 A 
ATOM      2  C   LIG    1       23.586 -16.809   4.190  0.00  0.00    +0.016 A 
ATOM      3  C   LIG    1       24.754 -16.185   3.733  0.00  0.00    +0.022 A 
ATOM      4  C   LIG    1       25.802 -16.974   3.246  0.00  0.00    +0.012 A 
ATOM      5  C   LIG    1       25.681 -18.368   3.229  0.00  0.00    +0.001 A 
ATOM      6  C   LIG    1       24.518 -18.982   3.700  0.00  0.00    +0.004 A 
ENDROOT
BRANCH   1   8
ATOM      7  C   LIG    1       21.131 -18.988   3.678  0.00  0.00    +0.024 C 
ATOM      8  C   LIG    1       22.213 -18.876   4.764  0.00  0.00    +0.124 C 
BRANCH   8   9
ATOM      9  C   LIG    1       22.492 -20.232   5.407  0.00  0.00    +0.312 C 
ATOM     10  O   LIG    1       23.127 -20.391   6.447  0.00  0.00    -0.250 OA
BRANCH   9  11
ATOM     11  O   LIG    1       21.988 -21.288   4.729  0.00  0.00    -0.480 OA
ATOM     12  H   LIG    1       22.222 -21.317   3.779  0.00  0.00    +0.295 HD
ENDBRANCH   9  11
ENDBRANCH   8   9
ENDBRANCH   1   8
BRANCH   3  13
ATOM     13  C   LIG    1       24.878 -14.695   3.708  0.00  0.00    +0.193 C 
ATOM     14  O   LIG    1       23.869 -14.021   3.518  0.00  0.00    -0.287 OA
BRANCH  13  15
ATOM     15  C   LIG    1       26.184 -14.003   3.932  0.00  0.00    +0.022 A 
ATOM     16  C   LIG    1       27.060 -13.722   2.874  0.00  0.00    +0.012 A 
ATOM     17  C   LIG    1       28.285 -13.098   3.117  0.00  0.00    +0.001 A 
ATOM     18  C   LIG    1       28.623 -12.700   4.408  0.00  0.00    +0.000 A 
ATOM     19  C   LIG    1       27.741 -12.936   5.461  0.00  0.00    +0.001 A 
ATOM     20  C   LIG    1       26.527 -13.593   5.227  0.00  0.00    +0.012 A 
ENDBRANCH  13  15
ENDBRANCH   3  13
TORSDOF 5
ENDMDL
MODEL 4
REMARK VINA RESULT:      -5.5      2.230      6.312
REMARK  Name = *****
REMARK                            x       y       z     vdW  Elec       q    Type
REMARK                         _______ _______ _______ _____ _____    ______ ____
ROOT
ATOM      1  C   LIG    1       24.102 -18.470   4.001  0.00  0.00    -0.033 A 
ATOM      2  C   LIG    1       24.513 -17.143   3.782  0.00  0.00    +0.016 A 
ATOM      3  C   LIG    1       23.659 -16.062   4.037  0.00  0.00    +0.022 A 
ATOM      4  C   LIG    1       22.378 -16.312   4.542  0.00  0.00    +0.012 A 
ATOM      5  C   LIG    1       21.960 -17.626   4.776  0.00  0.00    +0.001 A 
ATOM      6  C   LIG    1       22.814 -18.699   4.505  0.00  0.00    +0.004 A 
ENDROOT
BRANCH   1   8
ATOM      7  C   LIG    1       26.371 -19.473   4.340  0.00  0.00    +0.024 C 
ATOM      8  C   LIG    1       25.012 -19.637   3.642  0.00  0.00    +0.124 C 
BRANCH   8   9
ATOM      9  C   LIG    1       24.398 -21.002   3.942  0.00  0.00    +0.312 C 
ATOM     10  O   LIG    1       24.466 -21.572   5.029  0.00  0.00    -0.250 OA
BRANCH   9  11
ATOM     11  O   LIG    1       23.759 -21.571   2.894  0.00  0.00    -0.480 OA
ATOM     12  H   LIG    1       24.323 -21.745   2.114  0.00  0.00    +0.295 HD
ENDBRANCH   9  11
ENDBRANCH   8   9
ENDBRANCH   1   8
BRANCH   3  13
ATOM     13  C   LIG    1       24.109 -14.652   3.830  0.00  0.00    +0.193 C 
ATOM     14  O   LIG    1       23.263 -13.786   3.620  0.00  0.00    -0.287 OA
BRANCH  13  15
ATOM     15  C   LIG    1       25.550 -14.261   3.894  0.00  0.00    +0.022 A 
ATOM     16  C   LIG    1       26.381 -14.320   2.766  0.00  0.00    +0.012 A 
ATOM     17  C   LIG    1       27.730 -13.974   2.863  0.00  0.00    +0.001 A 
ATOM     18  C   LIG    1       28.249 -13.513   4.071  0.00  0.00    +0.000 A 
ATOM     19  C   LIG    1       27.422 -13.411   5.188  0.00  0.00    +0.001 A 
ATOM     20  C   LIG    1       26.077 -13.791   5.104  0.00  0.00    +0.012 A 
ENDBRANCH  13  15
ENDBRANCH   3  13
TORSDOF 5
ENDMDL
MODEL 5
REMARK VINA RESULT:      -5.5      1.341      1.634
REMARK  Name = *****
REMARK                            x       y       z     vdW  Elec       q    Type
REMARK                         _______ _______ _______ _____ _____    ______ ____
ROOT
ATOM      1  C   LIG    1       24.681 -15.005   3.784  0.00  0.00    -0.033 A 
ATOM      2  C   LIG    1       24.165 -16.309   3.679  0.00  0.00    +0.016 A 
ATOM      3  C   LIG    1       23.025 -16.702   4.392  0.00  0.00    +0.022 A 
ATOM      4  C   LIG    1       22.376 -15.768   5.207  0.00  0.00    +0.012 A 
ATOM      5  C   LIG    1       22.871 -14.464   5.311  0.00  0.00    +0.001 A 
ATOM      6  C   LIG    1       24.018 -14.085   4.608  0.00  0.00    +0.004 A 
ENDROOT
BRANCH   1   8
ATOM      7  C   LIG    1       25.740 -13.337   2.246  0.00  0.00    +0.024 C 
ATOM      8  C   LIG    1       25.968 -14.616   3.067  0.00  0.00    +0.124 C 
BRANCH   8   9
ATOM      9  C   LIG    1       27.164 -14.466   4.002  0.00  0.00    +0.312 C 
ATOM     10  O   LIG    1       27.414 -13.456   4.656  0.00  0.00    -0.250 OA
BRANCH   9  11
ATOM     11  O   LIG    1       27.968 -15.552   4.061  0.00  0.00    -0.480 OA
ATOM     12  H   LIG    1       27.573 -16.376   3.711  0.00  0.00    +0.295 HD
ENDBRANCH   9  11
ENDBRANCH   8   9
ENDBRANCH   1   8
BRANCH   3  13
ATOM     13  C   LIG    1       22.463 -18.081   4.256  0.00  0.00    +0.193 C 
ATOM     14  O   LIG    1       21.359 -18.220   3.734  0.00  0.00    -0.287 OA
BRANCH  13  15
ATOM     15  C   LIG    1       23.210 -19.292   4.713  0.00  0.00    +0.022 A 
ATOM     16  C   LIG    1       24.359 -19.743   4.049  0.00  0.00    +0.012 A 
ATOM     17  C   LIG    1       25.021 -20.893   4.482  0.00  0.00    +0.001 A 
ATOM     18  C   LIG    1       24.575 -21.572   5.614  0.00  0.00    +0.000 A 
ATOM     19  C   LIG    1       23.458 -21.107   6.307  0.00  0.00    +0.001 A 
ATOM     20  C   LIG    1       22.771 -19.975   5.855  0.00  0.00    +0.012 A 
ENDBRANCH  13  15
ENDBRANCH   3  13
TORSDOF 5
ENDMDL
MODEL 6
REMARK VINA RESULT:      -5.4      1.091      1.766
REMARK  Name = *****
REMARK                            x       y       z     vdW  Elec       q    Type
REMARK                         _______ _______ _______ _____ _____    ______ ____
ROOT
ATOM      1  C   LIG    1       24.770 -15.599   3.623  0.00  0.00    -0.033 A 
ATOM      2  C   LIG    1       25.165 -16.947   3.579  0.00  0.00    +0.016 A 
ATOM      3  C   LIG    1       24.302 -17.974   3.981  0.00  0.00    +0.022 A 
ATOM      4  C   LIG    1       23.012 -17.648   4.415  0.00  0.00    +0.012 A 
ATOM      5  C   LIG    1       22.601 -16.312   4.452  0.00  0.00    +0.001 A 
ATOM      6  C   LIG    1       23.474 -15.293   4.063  0.00  0.00    +0.004 A 
ENDROOT
BRANCH   1   8
ATOM      7  C   LIG    1       24.983 -13.172   3.043  0.00  0.00    +0.024 C 
ATOM      8  C   LIG    1       25.747 -14.487   3.259  0.00  0.00    +0.124 C 
BRANCH   8   9
ATOM      9  C   LIG    1       26.874 -14.312   4.274  0.00  0.00    +0.312 C 
ATOM     10  O   LIG    1       26.825 -13.559   5.244  0.00  0.00    -0.250 OA
BRANCH   9  11
ATOM     11  O   LIG    1       27.975 -15.057   4.023  0.00  0.00    -0.480 OA
ATOM     12  H   LIG    1       28.393 -14.892   3.154  0.00  0.00    +0.295 HD
ENDBRANCH   9  11
ENDBRANCH   8   9
ENDBRANCH   1   8
BRANCH   3  13
ATOM     13  C   LIG    1       24.715 -19.409   3.906  0.00  0.00    +0.193 C 
ATOM     14  O   LIG    1       24.376 -20.072   2.928  0.00  0.00    -0.287 OA
BRANCH  13  15
ATOM     15  C   LIG    1       25.547 -20.052   4.968  0.00  0.00    +0.022 A 
ATOM     16  C   LIG    1       25.013 -21.006   5.846  0.00  0.00    +0.012 A 
ATOM     17  C   LIG    1       25.807 -21.571   6.846  0.00  0.00    +0.001 A 
ATOM     18  C   LIG    1       27.154 -21.231   6.944  0.00  0.00    +0.000 A 
ATOM     19  C   LIG    1       27.706 -20.315   6.049  0.00  0.00    +0.001 A 
ATOM     20  C   LIG    1       26.905 -19.720   5.068  0.00  0.00    +0.012 A 
ENDBRANCH  13  15
ENDBRANCH   3  13
TORSDOF 5
ENDMDL
MODEL 7
REMARK VINA RESULT:      -5.3      2.042      6.528
REMARK  Name = *****
REMARK                            x       y       z     vdW  Elec       q    Type
REMARK                         _______ _______ _______ _____ _____    ______ ____
ROOT
ATOM      1  C   LIG    1       25.239 -18.724   3.737  0.00  0.00    -0.033 A 
ATOM      2  C   LIG    1       25.495 -17.357   3.532  0.00  0.00    +0.016 A 
ATOM      3  C   LIG    1       26.724 -16.783   3.883  0.00  0.00    +0.022 A 
ATOM      4  C   LIG    1       27.723 -17.597   4.429  0.00  0.00    +0.012 A 
ATOM      5  C   LIG    1       27.486 -18.961   4.627  0.00  0.00    +0.001 A 
ATOM      6  C   LIG    1       26.252 -19.521   4.287  0.00  0.00    +0.004 A 
ENDROOT
BRANCH   1   8
ATOM      7  C   LIG    1       23.979 -20.843   3.303  0.00  0.00    +0.024 C 
ATOM      8  C   LIG    1       23.870 -19.316   3.426  0.00  0.00    +0.124 C 
BRANCH   8   9
ATOM      9  C   LIG    1       22.792 -18.918   4.431  0.00  0.00    +0.312 C 
ATOM     10  O   LIG    1       22.033 -17.961   4.294  0.00  0.00    -0.250 OA
BRANCH   9  11
ATOM     11  O   LIG    1       22.730 -19.708   5.527  0.00  0.00    -0.480 OA
ATOM     12  H   LIG    1       22.061 -20.421   5.483  0.00  0.00    +0.295 HD
ENDBRANCH   9  11
ENDBRANCH   8   9
ENDBRANCH   1   8
BRANCH   3  13
ATOM     13  C   LIG    1       27.002 -15.336   3.637  0.00  0.00    +0.193 C 
ATOM     14  O   LIG    1       28.171 -14.961   3.572  0.00  0.00    -0.287 OA
BRANCH  13  15
ATOM     15  C   LIG    1       25.907 -14.337   3.445  0.00  0.00    +0.022 A 
ATOM     16  C   LIG    1       25.038 -13.985   4.488  0.00  0.00    +0.012 A 
ATOM     17  C   LIG    1       24.007 -13.070   4.271  0.00  0.00    +0.001 A 
ATOM     18  C   LIG    1       23.867 -12.455   3.029  0.00  0.00    +0.000 A 
ATOM     19  C   LIG    1       24.752 -12.765   1.997  0.00  0.00    +0.001 A 
ATOM     20  C   LIG    1       25.765 -13.710   2.199  0.00  0.00    +0.012 A 
ENDBRANCH  13  15
ENDBRANCH   3  13
TORSDOF 5
ENDMDL
MODEL 8
REMARK VINA RESULT:      -5.1      2.007      6.658
REMARK  Name = *****
REMARK                            x       y       z     vdW  Elec       q    Type
REMARK                         _______ _______ _______ _____ _____    ______ ____
ROOT
ATOM      1  C   LIG    1       23.524 -18.955   4.237  0.00  0.00    -0.033 A 
ATOM      2  C   LIG    1       24.462 -17.986   3.843  0.00  0.00    +0.016 A 
ATOM      3  C   LIG    1       24.157 -16.619   3.874  0.00  0.00    +0.022 A 
ATOM      4  C   LIG    1       22.898 -16.213   4.331  0.00  0.00    +0.012 A 
ATOM      5  C   LIG    1       21.958 -17.166   4.738  0.00  0.00    +0.001 A 
ATOM      6  C   LIG    1       22.267 -18.528   4.689  0.00  0.00    +0.004 A 
ENDROOT
BRANCH   1   8
ATOM      7  C   LIG    1       24.826 -20.673   2.964  0.00  0.00    +0.024 C 
ATOM      8  C   LIG    1       23.841 -20.441   4.120  0.00  0.00    +0.124 C 
BRANCH   8   9
ATOM      9  C   LIG    1       24.355 -21.058   5.417  0.00  0.00    +0.312 C 
ATOM     10  O   LIG    1       25.532 -21.338   5.635  0.00  0.00    -0.250 OA
BRANCH   9  11
ATOM     11  O   LIG    1       23.398 -21.296   6.343  0.00  0.00    -0.480 OA
ATOM     12  H   LIG    1       23.697 -21.222   7.271  0.00  0.00    +0.295 HD
ENDBRANCH   9  11
ENDBRANCH   8   9
ENDBRANCH   1   8
BRANCH   3  13
ATOM     13  C   LIG    1       25.167 -15.589   3.481  0.00  0.00    +0.193 C 
ATOM     14  O   LIG    1       26.328 -15.943   3.290  0.00  0.00    -0.287 OA
BRANCH  13  15
ATOM     15  C   LIG    1       24.804 -14.152   3.291  0.00  0.00    +0.022 A 
ATOM     16  C   LIG    1       24.928 -13.519   2.046  0.00  0.00    +0.012 A 
ATOM     17  C   LIG    1       24.606 -12.168   1.904  0.00  0.00    +0.001 A 
ATOM     18  C   LIG    1       24.105 -11.451   2.989  0.00  0.00    +0.000 A 
ATOM     19  C   LIG    1       23.937 -12.082   4.220  0.00  0.00    +0.001 A 
ATOM     20  C   LIG    1       24.292 -13.427   4.376  0.00  0.00    +0.012 A 
ENDBRANCH  13  15
ENDBRANCH   3  13
TORSDOF 5
ENDMDL
MODEL 9
REMARK VINA RESULT:      -5.1      1.897      2.674
REMARK  Name = *****
REMARK                            x       y       z     vdW  Elec       q    Type
REMARK                         _______ _______ _______ _____ _____    ______ ____
ROOT
ATOM      1  C   LIG    1       26.027 -14.583   3.576  0.00  0.00    -0.033 A 
ATOM      2  C   LIG    1       25.463 -15.829   3.254  0.00  0.00    +0.016 A 
ATOM      3  C   LIG    1       26.172 -17.023   3.444  0.00  0.00    +0.022 A 
ATOM      4  C   LIG    1       27.460 -16.969   3.989  0.00  0.00    +0.012 A 
ATOM      5  C   LIG    1       28.029 -15.737   4.326  0.00  0.00    +0.001 A 
ATOM      6  C   LIG    1       27.320 -14.551   4.118  0.00  0.00    +0.004 A 
ENDROOT
BRANCH   1   8
ATOM      7  C   LIG    1       24.755 -13.301   1.842  0.00  0.00    +0.024 C 
ATOM      8  C   LIG    1       25.276 -13.289   3.287  0.00  0.00    +0.124 C 
BRANCH   8   9
ATOM      9  C   LIG    1       24.152 -13.004   4.278  0.00  0.00    +0.312 C 
ATOM     10  O   LIG    1       23.851 -11.884   4.686  0.00  0.00    -0.250 OA
BRANCH   9  11
ATOM     11  O   LIG    1       23.488 -14.103   4.705  0.00  0.00    -0.480 OA
ATOM     12  H   LIG    1       22.605 -13.928   5.087  0.00  0.00    +0.295 HD
ENDBRANCH   9  11
ENDBRANCH   8   9
ENDBRANCH   1   8
BRANCH   3  13
ATOM     13  C   LIG    1       25.558 -18.348   3.127  0.00  0.00    +0.193 C 
ATOM     14  O   LIG    1       25.860 -18.902   2.072  0.00  0.00    -0.287 OA
BRANCH  13  15
ATOM     15  C   LIG    1       24.611 -19.029   4.061  0.00  0.00    +0.022 A 
ATOM     16  C   LIG    1       25.041 -20.020   4.955  0.00  0.00    +0.012 A 
ATOM     17  C   LIG    1       24.128 -20.657   5.797  0.00  0.00    +0.001 A 
ATOM     18  C   LIG    1       22.789 -20.274   5.794  0.00  0.00    +0.000 A 
ATOM     19  C   LIG    1       22.358 -19.260   4.939  0.00  0.00    +0.001 A 
ATOM     20  C   LIG    1       23.263 -18.643   4.068  0.00  0.00    +0.012 A 
ENDBRANCH  13  15
ENDBRANCH   3  13
TORSDOF 5
ENDMDL
