MODEL 1
REMARK VINA RESULT:       0.9      0.000      0.000
REMARK  Name = *****
REMARK                            x       y       z     vdW  Elec       q    Type
REMARK                         _______ _______ _______ _____ _____    ______ ____
ROOT
ATOM      1  C   LIG    1       23.038 -21.204   4.857  0.00  0.00    +0.354 C 
ATOM      2  C   LIG    1       23.771 -21.135   3.536  0.00  0.00    +0.492 C 
ATOM      3  N   LIG    1       23.994 -19.692   3.319  0.00  0.00    -0.191 N 
ATOM      4  O   LIG    1       23.263 -19.153   2.418  0.00  0.00    -0.624 OA
ATOM      5  C   LIG    1       24.871 -18.993   4.032  0.00  0.00    +0.233 C 
ATOM      6  C   LIG    1       25.639 -19.707   5.097  0.00  0.00    +0.100 A 
ATOM      7  C   LIG    1       25.003 -20.595   5.993  0.00  0.00    +0.190 A 
ATOM      8  C   LIG    1       25.775 -21.214   6.984  0.00  0.00    +0.057 A 
ATOM      9  C   LIG    1       27.154 -21.002   7.062  0.00  0.00    +0.024 A 
ATOM     10  C   LIG    1       27.773 -20.158   6.145  0.00  0.00    +0.042 A 
ATOM     11 CL   LIG    1       29.475 -19.923   6.220  0.00  0.00    -0.084 Cl
ATOM     12  C   LIG    1       27.026 -19.507   5.165  0.00  0.00    +0.038 A 
ATOM     13  N   LIG    1       23.635 -20.916   5.980  0.00  0.00    -0.039 NA
ENDROOT
BRANCH   5  14
ATOM     14  C   LIG    1       25.082 -17.524   3.820  0.00  0.00    +0.048 A 
ATOM     15  C   LIG    1       24.035 -16.631   4.095  0.00  0.00    +0.014 A 
ATOM     16  C   LIG    1       24.207 -15.253   3.921  0.00  0.00    +0.001 A 
ATOM     17  C   LIG    1       25.419 -14.755   3.449  0.00  0.00    +0.000 A 
ATOM     18  C   LIG    1       26.463 -15.632   3.168  0.00  0.00    +0.001 A 
ATOM     19  C   LIG    1       26.302 -17.007   3.368  0.00  0.00    +0.014 A 
ENDBRANCH   5  14
BRANCH   1  21
ATOM     20  C   LIG    1       20.686 -20.641   4.357  0.00  0.00    +0.273 C 
ATOM     21  N   LIG    1       21.706 -21.562   4.809  0.00  0.00    -0.235 N 
ATOM     22  H   LIG    1       21.516 -22.527   4.553  0.00  0.00    +0.291 HD
ENDBRANCH   1  21
TORSDOF 2
ENDMDL
MODEL 2
REMARK VINA RESULT:       0.9      0.768      1.300
REMARK  Name = *****
REMARK                            x       y       z     vdW  Elec       q    Type
REMARK                         _______ _______ _______ _____ _____    ______ ____
ROOT
ATOM      1  C   LIG    1       22.285 -21.230   5.089  0.00  0.00    +0.354 C 
ATOM      2  C   LIG    1       22.924 -21.119   3.723  0.00  0.00    +0.492 C 
ATOM      3  N   LIG    1       23.150 -19.671   3.543  0.00  0.00    -0.191 N 
ATOM      4  O   LIG    1       22.364 -19.091   2.717  0.00  0.00    -0.624 OA
ATOM      5  C   LIG    1       24.084 -19.009   4.218  0.00  0.00    +0.233 C 
ATOM      6  C   LIG    1       24.916 -19.770   5.199  0.00  0.00    +0.100 A 
ATOM      7  C   LIG    1       24.333 -20.683   6.105  0.00  0.00    +0.190 A 
ATOM      8  C   LIG    1       25.165 -21.347   7.015  0.00  0.00    +0.057 A 
ATOM      9  C   LIG    1       26.548 -21.153   7.003  0.00  0.00    +0.024 A 
ATOM     10  C   LIG    1       27.112 -20.281   6.076  0.00  0.00    +0.042 A 
ATOM     11 CL   LIG    1       28.818 -20.067   6.039  0.00  0.00    -0.084 Cl
ATOM     12  C   LIG    1       26.306 -19.586   5.176  0.00  0.00    +0.038 A 
ATOM     13  N   LIG    1       22.963 -20.990   6.177  0.00  0.00    -0.039 NA
ENDROOT
BRANCH   5  14
ATOM     14  C   LIG    1       24.298 -17.535   4.045  0.00  0.00    +0.048 A 
ATOM     15  C   LIG    1       25.461 -17.078   3.406  0.00  0.00    +0.014 A 
ATOM     16  C   LIG    1       25.681 -15.709   3.217  0.00  0.00    +0.001 A 
ATOM     17  C   LIG    1       24.754 -14.782   3.684  0.00  0.00    +0.000 A 
ATOM     18  C   LIG    1       23.599 -15.222   4.324  0.00  0.00    +0.001 A 
ATOM     19  C   LIG    1       23.364 -16.592   4.488  0.00  0.00    +0.014 A 
ENDBRANCH   5  14
BRANCH   1  21
ATOM     20  C   LIG    1       20.044 -21.217   4.050  0.00  0.00    +0.273 C 
ATOM     21  N   LIG    1       20.948 -21.572   5.123  0.00  0.00    -0.235 N 
ATOM     22  H   LIG    1       20.732 -22.468   5.549  0.00  0.00    +0.291 HD
ENDBRANCH   1  21
TORSDOF 2
ENDMDL
MODEL 3
REMARK VINA RESULT:       1.5      2.911      5.719
REMARK  Name = *****
REMARK                            x       y       z     vdW  Elec       q    Type
REMARK                         _______ _______ _______ _____ _____    ______ ____
ROOT
ATOM      1  C   LIG    1       24.988 -15.977   3.686  0.00  0.00    +0.354 C 
ATOM      2  C   LIG    1       25.603 -16.993   2.750  0.00  0.00    +0.492 C 
ATOM      3  N   LIG    1       26.318 -17.925   3.644  0.00  0.00    -0.191 N 
ATOM      4  O   LIG    1       27.594 -17.825   3.635  0.00  0.00    -0.624 OA
ATOM      5  C   LIG    1       25.680 -18.787   4.429  0.00  0.00    +0.233 C 
ATOM      6  C   LIG    1       24.186 -18.789   4.403  0.00  0.00    +0.100 A 
ATOM      7  C   LIG    1       23.448 -17.584   4.439  0.00  0.00    +0.190 A 
ATOM      8  C   LIG    1       22.050 -17.655   4.436  0.00  0.00    +0.057 A 
ATOM      9  C   LIG    1       21.389 -18.883   4.350  0.00  0.00    +0.024 A 
ATOM     10  C   LIG    1       22.130 -20.058   4.273  0.00  0.00    +0.042 A 
ATOM     11 CL   LIG    1       21.318 -21.568   4.134  0.00  0.00    -0.084 Cl
ATOM     12  C   LIG    1       23.523 -20.021   4.301  0.00  0.00    +0.038 A 
ATOM     13  N   LIG    1       24.005 -16.294   4.481  0.00  0.00    -0.039 NA
ENDROOT
BRANCH   5  14
ATOM     14  C   LIG    1       26.410 -19.720   5.348  0.00  0.00    +0.048 A 
ATOM     15  C   LIG    1       27.807 -19.633   5.452  0.00  0.00    +0.014 A 
ATOM     16  C   LIG    1       28.513 -20.480   6.313  0.00  0.00    +0.001 A 
ATOM     17  C   LIG    1       27.835 -21.437   7.062  0.00  0.00    +0.000 A 
ATOM     18  C   LIG    1       26.450 -21.537   6.965  0.00  0.00    +0.001 A 
ATOM     19  C   LIG    1       25.739 -20.672   6.126  0.00  0.00    +0.014 A 
ENDBRANCH   5  14
BRANCH   1  21
ATOM     20  C   LIG    1       26.769 -14.420   2.973  0.00  0.00    +0.273 C 
ATOM     21  N   LIG    1       25.535 -14.710   3.672  0.00  0.00    -0.235 N 
ATOM     22  H   LIG    1       24.870 -13.942   3.645  0.00  0.00    +0.291 HD
ENDBRANCH   1  21
TORSDOF 2
ENDMDL
MODEL 4
REMARK VINA RESULT:       1.6      3.178      5.557
REMARK  Name = *****
REMARK                            x       y       z     vdW  Elec       q    Type
REMARK                         _______ _______ _______ _____ _____    ______ ____
ROOT
ATOM      1  C   LIG    1       24.476 -14.771   3.763  0.00  0.00    +0.354 C 
ATOM      2  C   LIG    1       25.346 -15.290   2.642  0.00  0.00    +0.492 C 
ATOM      3  N   LIG    1       26.402 -16.061   3.328  0.00  0.00    -0.191 N 
ATOM      4  O   LIG    1       27.556 -15.510   3.351  0.00  0.00    -0.624 OA
ATOM      5  C   LIG    1       26.164 -17.232   3.909  0.00  0.00    +0.233 C 
ATOM      6  C   LIG    1       24.768 -17.765   3.870  0.00  0.00    +0.100 A 
ATOM      7  C   LIG    1       23.657 -16.940   4.151  0.00  0.00    +0.190 A 
ATOM      8  C   LIG    1       22.377 -17.506   4.120  0.00  0.00    +0.057 A 
ATOM      9  C   LIG    1       22.189 -18.846   3.774  0.00  0.00    +0.024 A 
ATOM     10  C   LIG    1       23.290 -19.636   3.459  0.00  0.00    +0.042 A 
ATOM     11 CL   LIG    1       23.057 -21.277   3.001  0.00  0.00    -0.084 Cl
ATOM     12  C   LIG    1       24.578 -19.107   3.507  0.00  0.00    +0.038 A 
ATOM     13  N   LIG    1       23.723 -15.571   4.467  0.00  0.00    -0.039 NA
ENDROOT
BRANCH   5  14
ATOM     14  C   LIG    1       27.236 -18.002   4.620  0.00  0.00    +0.048 A 
ATOM     15  C   LIG    1       26.979 -19.318   5.034  0.00  0.00    +0.014 A 
ATOM     16  C   LIG    1       27.965 -20.067   5.686  0.00  0.00    +0.001 A 
ATOM     17  C   LIG    1       29.209 -19.502   5.951  0.00  0.00    +0.000 A 
ATOM     18  C   LIG    1       29.475 -18.196   5.549  0.00  0.00    +0.001 A 
ATOM     19  C   LIG    1       28.500 -17.456   4.872  0.00  0.00    +0.014 A 
ENDBRANCH   5  14
BRANCH   1  21
ATOM     20  C   LIG    1       24.228 -12.434   3.003  0.00  0.00    +0.273 C 
ATOM     21  N   LIG    1       24.537 -13.416   4.020  0.00  0.00    -0.235 N 
ATOM     22  H   LIG    1       24.254 -13.129   4.953  0.00  0.00    +0.291 HD
ENDBRANCH   1  21
TORSDOF 2
ENDMDL
MODEL 5
REMARK VINA RESULT:       3.3      3.439      5.974
REMARK  Name = *****
REMARK                            x       y       z     vdW  Elec       q    Type
REMARK                         _______ _______ _______ _____ _____    ______ ____
ROOT
ATOM      1  C   LIG    1       28.274 -17.262   4.491  0.00  0.00    +0.354 C 
ATOM      2  C   LIG    1       27.670 -17.748   3.193  0.00  0.00    +0.492 C 
ATOM      3  N   LIG    1       26.240 -17.938   3.505  0.00  0.00    -0.191 N 
ATOM      4  O   LIG    1       25.857 -19.155   3.606  0.00  0.00    -0.624 OA
ATOM      5  C   LIG    1       25.413 -16.916   3.700  0.00  0.00    +0.233 C 
ATOM      6  C   LIG    1       25.972 -15.533   3.611  0.00  0.00    +0.100 A 
ATOM      7  C   LIG    1       27.193 -15.191   4.233  0.00  0.00    +0.190 A 
ATOM      8  C   LIG    1       27.650 -13.871   4.131  0.00  0.00    +0.057 A 
ATOM      9  C   LIG    1       26.946 -12.918   3.392  0.00  0.00    +0.024 A 
ATOM     10  C   LIG    1       25.766 -13.281   2.750  0.00  0.00    +0.042 A 
ATOM     11 CL   LIG    1       24.915 -12.117   1.812  0.00  0.00    -0.084 Cl
ATOM     12  C   LIG    1       25.272 -14.580   2.855  0.00  0.00    +0.038 A 
ATOM     13  N   LIG    1       28.006 -16.076   4.963  0.00  0.00    -0.039 NA
ENDROOT
BRANCH   5  14
ATOM     14  C   LIG    1       23.965 -17.114   4.035  0.00  0.00    +0.048 A 
ATOM     15  C   LIG    1       23.378 -18.374   3.837  0.00  0.00    +0.014 A 
ATOM     16  C   LIG    1       22.033 -18.592   4.154  0.00  0.00    +0.001 A 
ATOM     17  C   LIG    1       21.254 -17.551   4.650  0.00  0.00    +0.000 A 
ATOM     18  C   LIG    1       21.823 -16.295   4.846  0.00  0.00    +0.001 A 
ATOM     19  C   LIG    1       23.176 -16.082   4.556  0.00  0.00    +0.014 A 
ENDBRANCH   5  14
BRANCH   1  21
ATOM     20  C   LIG    1       28.579 -19.322   5.818  0.00  0.00    +0.273 C 
ATOM     21  N   LIG    1       29.098 -18.143   5.161  0.00  0.00    -0.235 N 
ATOM     22  H   LIG    1       30.018 -18.285   4.752  0.00  0.00    +0.291 HD
ENDBRANCH   1  21
TORSDOF 2
ENDMDL
