MODEL 1
REMARK VINA RESULT:      -3.0      0.000      0.000
REMARK  Name = *****
REMARK                            x       y       z     vdW  Elec       q    Type
REMARK                         _______ _______ _______ _____ _____    ______ ____
ROOT
ATOM      1  C   LIG    1       29.424 -13.322   3.423  0.00  0.00    +0.105 C 
ATOM      2  N   LIG    1       28.007 -13.019   3.455  0.00  0.00    -0.301 NA
ATOM      3  C   LIG    1       27.133 -13.877   2.633  0.00  0.00    +0.069 C 
ATOM      4  C   LIG    1       25.643 -13.483   2.869  0.00  0.00    +0.043 C 
ATOM      5  C   LIG    1       25.331 -13.958   4.300  0.00  0.00    +0.048 C 
ATOM      6  C   LIG    1       23.938 -13.647   4.864  0.00  0.00    +0.217 C 
ATOM      7  O   LIG    1       23.054 -14.791   4.616  0.00  0.00    -0.481 OA
ATOM      8  C   LIG    1       23.883 -15.842   4.311  0.00  0.00    +0.167 A 
ATOM      9  C   LIG    1       23.531 -17.153   4.057  0.00  0.00    +0.162 A 
ATOM     10  C   LIG    1       24.548 -18.004   3.575  0.00  0.00    +0.050 A 
ATOM     11  C   LIG    1       25.834 -17.523   3.234  0.00  0.00    +0.008 A 
ATOM     12  C   LIG    1       26.137 -16.181   3.427  0.00  0.00    -0.038 A 
ATOM     13  C   LIG    1       23.338 -12.330   4.309  0.00  0.00    +0.178 C 
ATOM     14  C   LIG    1       24.186 -11.542   3.345  0.00  0.00    +0.004 C 
ATOM     15  C   LIG    1       25.185 -15.422   4.092  0.00  0.00    +0.012 A 
ATOM     16  C   LIG    1       26.457 -13.639   5.323  0.00  0.00    +0.031 C 
ATOM     17  C   LIG    1       25.245 -12.050   2.680  0.00  0.00    -0.023 C 
ATOM     18  C   LIG    1       27.319 -15.457   2.803  0.00  0.00    +0.055 C 
ATOM     19  C   LIG    1       27.507 -12.673   4.780  0.00  0.00    +0.085 C 
ENDROOT
BRANCH  13  20
ATOM     20  O   LIG    1       23.050 -11.448   5.402  0.00  0.00    -0.384 OA
ATOM     21  H   LIG    1       22.940 -10.555   5.037  0.00  0.00    +0.210 HD
ENDBRANCH  13  20
BRANCH   9  22
ATOM     22  O   LIG    1       22.311 -17.750   4.187  0.00  0.00    -0.487 OA
BRANCH  22  23
ATOM     23  C   LIG    1       22.218 -19.185   4.149  0.00  0.00    +0.244 C 
BRANCH  23  24
ATOM     24  C   LIG    1       22.682 -19.696   5.541  0.00  0.00    +0.125 C 
BRANCH  24  25
ATOM     25  N   LIG    1       23.063 -21.121   5.660  0.00  0.00    -0.295 NA
ATOM     26  C   LIG    1       23.998 -21.527   4.571  0.00  0.00    +0.112 C 
ATOM     27  C   LIG    1       25.426 -20.968   4.722  0.00  0.00    +0.175 C 
ATOM     28  O   LIG    1       25.991 -21.322   5.990  0.00  0.00    -0.377 OA
ATOM     29  C   LIG    1       25.157 -20.863   7.060  0.00  0.00    +0.175 C 
ATOM     30  C   LIG    1       23.730 -21.431   6.943  0.00  0.00    +0.112 C 
ENDBRANCH  24  25
ENDBRANCH  23  24
ENDBRANCH  22  23
ENDBRANCH   9  22
TORSDOF 5
ENDMDL
MODEL 2
REMARK VINA RESULT:      -2.7      2.146      3.698
REMARK  Name = *****
REMARK                            x       y       z     vdW  Elec       q    Type
REMARK                         _______ _______ _______ _____ _____    ______ ____
ROOT
ATOM      1  C   LIG    1       22.747 -11.447   4.334  0.00  0.00    +0.105 C 
ATOM      2  N   LIG    1       24.065 -12.043   4.430  0.00  0.00    -0.301 NA
ATOM      3  C   LIG    1       24.158 -13.316   5.170  0.00  0.00    +0.069 C 
ATOM      4  C   LIG    1       25.614 -13.865   5.082  0.00  0.00    +0.043 C 
ATOM      5  C   LIG    1       25.780 -14.314   3.618  0.00  0.00    +0.048 C 
ATOM      6  C   LIG    1       27.154 -14.846   3.189  0.00  0.00    +0.217 C 
ATOM      7  O   LIG    1       27.166 -16.306   3.321  0.00  0.00    -0.481 OA
ATOM      8  C   LIG    1       25.848 -16.681   3.420  0.00  0.00    +0.167 A 
ATOM      9  C   LIG    1       25.335 -17.960   3.501  0.00  0.00    +0.162 A 
ATOM     10  C   LIG    1       23.959 -18.077   3.793  0.00  0.00    +0.050 A 
ATOM     11  C   LIG    1       23.162 -16.957   4.124  0.00  0.00    +0.008 A 
ATOM     12  C   LIG    1       23.724 -15.687   4.110  0.00  0.00    -0.038 A 
ATOM     13  C   LIG    1       28.327 -14.192   3.964  0.00  0.00    +0.178 C 
ATOM     14  C   LIG    1       27.976 -13.137   4.981  0.00  0.00    +0.004 C 
ATOM     15  C   LIG    1       25.019 -15.589   3.620  0.00  0.00    +0.012 A 
ATOM     16  C   LIG    1       25.198 -13.306   2.588  0.00  0.00    +0.031 C 
ATOM     17  C   LIG    1       26.742 -12.970   5.501  0.00  0.00    -0.023 C 
ATOM     18  C   LIG    1       23.113 -14.457   4.761  0.00  0.00    +0.055 C 
ATOM     19  C   LIG    1       24.845 -11.954   3.202  0.00  0.00    +0.085 C 
ENDROOT
BRANCH  13  20
ATOM     20  O   LIG    1       29.217 -13.568   3.029  0.00  0.00    -0.384 OA
ATOM     21  H   LIG    1       30.107 -13.923   3.190  0.00  0.00    +0.210 HD
ENDBRANCH  13  20
BRANCH   9  22
ATOM     22  O   LIG    1       25.985 -19.152   3.359  0.00  0.00    -0.487 OA
BRANCH  22  23
ATOM     23  C   LIG    1       26.894 -19.588   4.385  0.00  0.00    +0.244 C 
BRANCH  23  24
ATOM     24  C   LIG    1       26.026 -19.943   5.624  0.00  0.00    +0.125 C 
BRANCH  24  25
ATOM     25  N   LIG    1       25.434 -21.298   5.684  0.00  0.00    -0.295 NA
ATOM     26  C   LIG    1       24.662 -21.500   6.944  0.00  0.00    +0.112 C 
ATOM     27  C   LIG    1       23.322 -20.740   6.994  0.00  0.00    +0.175 C 
ATOM     28  O   LIG    1       22.495 -21.071   5.873  0.00  0.00    -0.377 OA
ATOM     29  C   LIG    1       23.179 -20.801   4.643  0.00  0.00    +0.175 C 
ATOM     30  C   LIG    1       24.511 -21.572   4.561  0.00  0.00    +0.112 C 
ENDBRANCH  24  25
ENDBRANCH  23  24
ENDBRANCH  22  23
ENDBRANCH   9  22
TORSDOF 5
ENDMDL
