MODEL 1
REMARK VINA RESULT:      18.6      0.000      0.000
REMARK  Name = *****
REMARK                            x       y       z     vdW  Elec       q    Type
REMARK                         _______ _______ _______ _____ _____    ______ ____
ROOT
ATOM      1  C   LIG    1       24.083 -16.373   4.389  0.00  0.00    +0.338 C 
ATOM      2  O   LIG    1       25.258 -16.129   4.321  0.00  0.00    -0.245 OA
ENDROOT
BRANCH   1   5
ATOM      3  C   LIG    1       23.016 -19.857   3.621  0.00  0.00    +0.065 C 
ATOM      4  C   LIG    1       24.165 -18.968   4.138  0.00  0.00    +0.096 C 
ATOM      5  C   LIG    1       23.540 -17.708   4.726  0.00  0.00    +0.065 C 
ATOM      6  C   LIG    1       22.402 -17.828   5.450  0.00  0.00    +0.016 C 
ATOM      7  C   LIG    1       21.765 -16.711   6.225  0.00  0.00    +0.061 C 
ATOM      8  N   LIG    1       21.757 -19.065   5.465  0.00  0.00    -0.321 N 
ATOM      9  H   LIG    1       20.834 -19.056   5.897  0.00  0.00    +0.152 HD
ATOM     10  C   LIG    1       21.879 -19.925   4.369  0.00  0.00    +0.016 C 
ATOM     11  C   LIG    1       20.680 -20.782   4.102  0.00  0.00    +0.061 C 
BRANCH   4  12
ATOM     12  C   LIG    1       25.073 -19.752   5.132  0.00  0.00    -0.029 A 
ATOM     13  C   LIG    1       26.465 -19.559   5.199  0.00  0.00    +0.088 A 
ATOM     14  C   LIG    1       27.243 -20.223   6.162  0.00  0.00    +0.273 A 
ATOM     15  C   LIG    1       26.658 -21.117   7.061  0.00  0.00    +0.084 A 
ATOM     16  C   LIG    1       25.286 -21.346   6.990  0.00  0.00    +0.007 A 
ATOM     17  C   LIG    1       24.505 -20.675   6.037  0.00  0.00    +0.005 A 
BRANCH  14  18
ATOM     18  N   LIG    1       28.683 -19.947   6.237  0.00  0.00    +0.080 N 
ATOM     19  O   LIG    1       29.445 -20.654   5.563  0.00  0.00    -0.576 OA
ATOM     20  O   LIG    1       29.056 -19.018   6.972  0.00  0.00    +0.041 OA
ENDBRANCH  14  18
ENDBRANCH   4  12
BRANCH   3  21
ATOM     21  C   LIG    1       23.242 -20.570   2.323  0.00  0.00    +0.337 C 
ATOM     22  O   LIG    1       22.524 -21.311   1.813  0.00  0.00    -0.245 OA
BRANCH  21  24
ATOM     23  C   LIG    1       25.611 -20.781   2.574  0.00  0.00    +0.280 C 
ATOM     24  O   LIG    1       24.508 -20.274   1.896  0.00  0.00    -0.465 OA
ENDBRANCH  21  24
ENDBRANCH   3  21
ENDBRANCH   1   5
BRANCH   1  25
ATOM     25  O   LIG    1       23.068 -15.497   4.150  0.00  0.00    -0.454 OA
BRANCH  25  26
ATOM     26  C   LIG    1       23.152 -14.160   4.759  0.00  0.00    +0.121 C 
ATOM     27  C   LIG    1       22.218 -14.192   5.972  0.00  0.00    +0.057 C 
ATOM     28  C   LIG    1       22.840 -13.086   3.705  0.00  0.00    +0.057 C 
BRANCH  26  29
ATOM     29  C   LIG    1       24.625 -14.040   5.271  0.00  0.00    +0.131 C 
BRANCH  29  30
ATOM     30  N   LIG    1       25.303 -12.734   5.616  0.00  0.00    -0.302 NA
ATOM     31  C   LIG    1       24.405 -12.084   6.572  0.00  0.00    +0.105 C 
BRANCH  30  32
ATOM     32  C   LIG    1       26.699 -12.833   6.090  0.00  0.00    +0.085 C 
BRANCH  32  33
ATOM     33  C   LIG    1       27.959 -13.089   5.144  0.00  0.00    +0.028 C 
BRANCH  33  34
ATOM     34  C   LIG    1       27.970 -13.936   3.808  0.00  0.00    +0.050 C 
BRANCH  34  35
ATOM     35  C   LIG    1       26.878 -13.409   2.757  0.00  0.00    -0.040 A 
ATOM     36  C   LIG    1       26.796 -12.053   2.394  0.00  0.00    +0.004 A 
ATOM     37  C   LIG    1       25.568 -11.447   2.109  0.00  0.00    +0.000 A 
ATOM     38  C   LIG    1       24.467 -12.233   1.812  0.00  0.00    +0.000 A 
ATOM     39  C   LIG    1       24.614 -13.618   1.812  0.00  0.00    +0.000 A 
ATOM     40  C   LIG    1       25.786 -14.208   2.345  0.00  0.00    +0.004 A 
ENDBRANCH  34  35
BRANCH  34  41
ATOM     41  C   LIG    1       27.999 -15.494   4.029  0.00  0.00    -0.040 A 
ATOM     42  C   LIG    1       28.829 -16.111   4.982  0.00  0.00    +0.004 A 
ATOM     43  C   LIG    1       29.173 -17.466   4.908  0.00  0.00    +0.000 A 
ATOM     44  C   LIG    1       28.453 -18.312   4.085  0.00  0.00    +0.000 A 
ATOM     45  C   LIG    1       27.393 -17.784   3.366  0.00  0.00    +0.000 A 
ATOM     46  C   LIG    1       27.190 -16.394   3.324  0.00  0.00    +0.004 A 
ENDBRANCH  34  41
ENDBRANCH  33  34
ENDBRANCH  32  33
ENDBRANCH  30  32
ENDBRANCH  29  30
ENDBRANCH  26  29
ENDBRANCH  25  26
ENDBRANCH   1  25
TORSDOF 14
ENDMDL
