MODEL 1
REMARK VINA RESULT:      -6.1      0.000      0.000
REMARK  Name = *****
REMARK                            x       y       z     vdW  Elec       q    Type
REMARK                         _______ _______ _______ _____ _____    ______ ____
ROOT
ATOM      1  C   LIG    1       24.103 -21.123   6.642  0.00  0.00    +0.188 C 
ATOM      2  C   LIG    1       25.466 -20.776   6.088  0.00  0.00    +0.268 C 
ATOM      3  O   LIG    1       25.755 -20.669   4.906  0.00  0.00    -0.271 OA
ATOM      4  N   LIG    1       26.291 -20.606   7.150  0.00  0.00    -0.207 N 
ATOM      5  C   LIG    1       27.677 -20.230   7.053  0.00  0.00    +0.144 C 
ATOM      6  C   LIG    1       25.595 -20.666   8.305  0.00  0.00    +0.410 C 
ATOM      7  O   LIG    1       26.028 -20.460   9.427  0.00  0.00    -0.226 OA
ATOM      8  O   LIG    1       24.287 -20.969   8.057  0.00  0.00    -0.434 OA
ATOM      9  C   LIG    1       23.782 -22.585   6.351  0.00  0.00    +0.066 C 
ENDROOT
BRANCH   1  11
ATOM     10  C   LIG    1       22.209 -20.740   4.953  0.00  0.00    +0.008 C 
ATOM     11  C   LIG    1       23.002 -20.187   6.133  0.00  0.00    +0.054 C 
ENDBRANCH   1  11
TORSDOF 1
ENDMDL
MODEL 2
REMARK VINA RESULT:      -5.8      5.200      6.544
REMARK  Name = *****
REMARK                            x       y       z     vdW  Elec       q    Type
REMARK                         _______ _______ _______ _____ _____    ______ ____
ROOT
ATOM      1  C   LIG    1       30.219 -19.288   8.372  0.00  0.00    +0.188 C 
ATOM      2  C   LIG    1       31.464 -18.443   8.231  0.00  0.00    +0.268 C 
ATOM      3  O   LIG    1       32.296 -18.534   7.341  0.00  0.00    -0.271 OA
ATOM      4  N   LIG    1       31.471 -17.576   9.272  0.00  0.00    -0.207 N 
ATOM      5  C   LIG    1       32.476 -16.568   9.487  0.00  0.00    +0.144 C 
ATOM      6  C   LIG    1       30.323 -17.672   9.976  0.00  0.00    +0.410 C 
ATOM      7  O   LIG    1       29.982 -16.966  10.912  0.00  0.00    -0.226 OA
ATOM      8  O   LIG    1       29.542 -18.675   9.478  0.00  0.00    -0.434 OA
ATOM      9  C   LIG    1       30.600 -20.712   8.765  0.00  0.00    +0.066 C 
ENDROOT
BRANCH   1  11
ATOM     10  C   LIG    1       28.957 -20.643   6.593  0.00  0.00    +0.008 C 
ATOM     11  C   LIG    1       29.340 -19.262   7.117  0.00  0.00    +0.054 C 
ENDBRANCH   1  11
TORSDOF 1
ENDMDL
MODEL 3
REMARK VINA RESULT:      -5.7      1.984      3.994
REMARK  Name = *****
REMARK                            x       y       z     vdW  Elec       q    Type
REMARK                         _______ _______ _______ _____ _____    ______ ____
ROOT
ATOM      1  C   LIG    1       24.428 -23.068   6.556  0.00  0.00    +0.188 C 
ATOM      2  C   LIG    1       23.612 -21.845   6.905  0.00  0.00    +0.268 C 
ATOM      3  O   LIG    1       23.183 -21.559   8.013  0.00  0.00    -0.271 OA
ATOM      4  N   LIG    1       23.454 -21.137   5.760  0.00  0.00    -0.207 N 
ATOM      5  C   LIG    1       22.761 -19.878   5.669  0.00  0.00    +0.144 C 
ATOM      6  C   LIG    1       24.180 -21.683   4.761  0.00  0.00    +0.410 C 
ATOM      7  O   LIG    1       24.326 -21.232   3.636  0.00  0.00    -0.226 OA
ATOM      8  O   LIG    1       24.781 -22.833   5.185  0.00  0.00    -0.434 OA
ATOM      9  C   LIG    1       23.551 -24.313   6.624  0.00  0.00    +0.066 C 
ENDROOT
BRANCH   1  11
ATOM     10  C   LIG    1       26.671 -22.054   7.284  0.00  0.00    +0.008 C 
ATOM     11  C   LIG    1       25.684 -23.209   7.423  0.00  0.00    +0.054 C 
ENDBRANCH   1  11
TORSDOF 1
ENDMDL
MODEL 4
REMARK VINA RESULT:      -5.6      1.598      3.888
REMARK  Name = *****
REMARK                            x       y       z     vdW  Elec       q    Type
REMARK                         _______ _______ _______ _____ _____    ______ ____
ROOT
ATOM      1  C   LIG    1       25.517 -21.337   7.089  0.00  0.00    +0.188 C 
ATOM      2  C   LIG    1       24.066 -20.924   6.992  0.00  0.00    +0.268 C 
ATOM      3  O   LIG    1       23.245 -20.966   7.895  0.00  0.00    -0.271 OA
ATOM      4  N   LIG    1       23.861 -20.502   5.720  0.00  0.00    -0.207 N 
ATOM      5  C   LIG    1       22.611 -19.988   5.223  0.00  0.00    +0.144 C 
ATOM      6  C   LIG    1       25.027 -20.466   5.039  0.00  0.00    +0.410 C 
ATOM      7  O   LIG    1       25.196 -20.043   3.907  0.00  0.00    -0.226 OA
ATOM      8  O   LIG    1       26.043 -20.950   5.811  0.00  0.00    -0.434 OA
ATOM      9  C   LIG    1       25.617 -22.853   7.215  0.00  0.00    +0.066 C 
ENDROOT
BRANCH   1  11
ATOM     10  C   LIG    1       27.704 -20.258   7.888  0.00  0.00    +0.008 C 
ATOM     11  C   LIG    1       26.261 -20.622   8.221  0.00  0.00    +0.054 C 
ENDBRANCH   1  11
TORSDOF 1
ENDMDL
MODEL 5
REMARK VINA RESULT:      -5.6      1.294      2.731
REMARK  Name = *****
REMARK                            x       y       z     vdW  Elec       q    Type
REMARK                         _______ _______ _______ _____ _____    ______ ____
ROOT
ATOM      1  C   LIG    1       24.630 -21.602   6.937  0.00  0.00    +0.188 C 
ATOM      2  C   LIG    1       25.663 -21.287   7.994  0.00  0.00    +0.268 C 
ATOM      3  O   LIG    1       25.625 -21.639   9.163  0.00  0.00    -0.271 OA
ATOM      4  N   LIG    1       26.628 -20.548   7.394  0.00  0.00    -0.207 N 
ATOM      5  C   LIG    1       27.817 -20.071   8.051  0.00  0.00    +0.144 C 
ATOM      6  C   LIG    1       26.407 -20.472   6.064  0.00  0.00    +0.410 C 
ATOM      7  O   LIG    1       27.140 -19.960   5.232  0.00  0.00    -0.226 OA
ATOM      8  O   LIG    1       25.232 -21.086   5.741  0.00  0.00    -0.434 OA
ATOM      9  C   LIG    1       23.350 -20.820   7.212  0.00  0.00    +0.066 C 
ENDROOT
BRANCH   1  11
ATOM     10  C   LIG    1       22.879 -23.474   6.787  0.00  0.00    +0.008 C 
ATOM     11  C   LIG    1       24.360 -23.105   6.803  0.00  0.00    +0.054 C 
ENDBRANCH   1  11
TORSDOF 1
ENDMDL
MODEL 6
REMARK VINA RESULT:      -5.5      6.749      8.246
REMARK  Name = *****
REMARK                            x       y       z     vdW  Elec       q    Type
REMARK                         _______ _______ _______ _____ _____    ______ ____
ROOT
ATOM      1  C   LIG    1       31.144 -18.190   8.974  0.00  0.00    +0.188 C 
ATOM      2  C   LIG    1       31.056 -17.915  10.458  0.00  0.00    +0.268 C 
ATOM      3  O   LIG    1       30.515 -18.627  11.290  0.00  0.00    -0.271 OA
ATOM      4  N   LIG    1       31.691 -16.738  10.679  0.00  0.00    -0.207 N 
ATOM      5  C   LIG    1       31.863 -16.135  11.975  0.00  0.00    +0.144 C 
ATOM      6  C   LIG    1       32.287 -16.301   9.548  0.00  0.00    +0.410 C 
ATOM      7  O   LIG    1       33.012 -15.326   9.437  0.00  0.00    -0.226 OA
ATOM      8  O   LIG    1       31.994 -17.133   8.506  0.00  0.00    -0.434 OA
ATOM      9  C   LIG    1       29.769 -18.026   8.335  0.00  0.00    +0.066 C 
ENDROOT
BRANCH   1  11
ATOM     10  C   LIG    1       30.733 -20.650   8.368  0.00  0.00    +0.008 C 
ATOM     11  C   LIG    1       31.758 -19.558   8.661  0.00  0.00    +0.054 C 
ENDBRANCH   1  11
TORSDOF 1
ENDMDL
MODEL 7
REMARK VINA RESULT:      -5.5      1.709      2.216
REMARK  Name = *****
REMARK                            x       y       z     vdW  Elec       q    Type
REMARK                         _______ _______ _______ _____ _____    ______ ____
ROOT
ATOM      1  C   LIG    1       23.986 -20.393   4.651  0.00  0.00    +0.188 C 
ATOM      2  C   LIG    1       25.301 -20.266   5.384  0.00  0.00    +0.268 C 
ATOM      3  O   LIG    1       26.356 -19.877   4.906  0.00  0.00    -0.271 OA
ATOM      4  N   LIG    1       25.079 -20.660   6.661  0.00  0.00    -0.207 N 
ATOM      5  C   LIG    1       26.075 -20.655   7.701  0.00  0.00    +0.144 C 
ATOM      6  C   LIG    1       23.764 -20.890   6.865  0.00  0.00    +0.410 C 
ATOM      7  O   LIG    1       23.229 -21.167   7.926  0.00  0.00    -0.226 OA
ATOM      8  O   LIG    1       23.070 -20.741   5.699  0.00  0.00    -0.434 OA
ATOM      9  C   LIG    1       24.054 -21.551   3.661  0.00  0.00    +0.066 C 
ENDROOT
BRANCH   1  11
ATOM     10  C   LIG    1       22.226 -18.533   4.462  0.00  0.00    +0.008 C 
ATOM     11  C   LIG    1       23.559 -19.088   3.970  0.00  0.00    +0.054 C 
ENDBRANCH   1  11
TORSDOF 1
ENDMDL
MODEL 8
REMARK VINA RESULT:      -5.5      5.686      7.692
REMARK  Name = *****
REMARK                            x       y       z     vdW  Elec       q    Type
REMARK                         _______ _______ _______ _____ _____    ______ ____
ROOT
ATOM      1  C   LIG    1       31.254 -17.886   9.377  0.00  0.00    +0.188 C 
ATOM      2  C   LIG    1       30.419 -18.381   8.218  0.00  0.00    +0.268 C 
ATOM      3  O   LIG    1       29.764 -17.687   7.456  0.00  0.00    -0.271 OA
ATOM      4  N   LIG    1       30.544 -19.730   8.193  0.00  0.00    -0.207 N 
ATOM      5  C   LIG    1       29.929 -20.587   7.212  0.00  0.00    +0.144 C 
ATOM      6  C   LIG    1       31.457 -20.140   9.099  0.00  0.00    +0.410 C 
ATOM      7  O   LIG    1       31.864 -21.279   9.259  0.00  0.00    -0.226 OA
ATOM      8  O   LIG    1       31.911 -19.079   9.828  0.00  0.00    -0.434 OA
ATOM      9  C   LIG    1       30.344 -17.382  10.493  0.00  0.00    +0.066 C 
ENDROOT
BRANCH   1  11
ATOM     10  C   LIG    1       32.899 -16.061  10.123  0.00  0.00    +0.008 C 
ATOM     11  C   LIG    1       32.279 -16.827   8.958  0.00  0.00    +0.054 C 
ENDBRANCH   1  11
TORSDOF 1
ENDMDL
MODEL 9
REMARK VINA RESULT:      -5.5      2.126      3.827
REMARK  Name = *****
REMARK                            x       y       z     vdW  Elec       q    Type
REMARK                         _______ _______ _______ _____ _____    ______ ____
ROOT
ATOM      1  C   LIG    1       25.903 -21.318   7.193  0.00  0.00    +0.188 C 
ATOM      2  C   LIG    1       24.457 -21.684   6.951  0.00  0.00    +0.268 C 
ATOM      3  O   LIG    1       23.538 -20.900   6.767  0.00  0.00    -0.271 OA
ATOM      4  N   LIG    1       24.384 -23.037   6.978  0.00  0.00    -0.207 N 
ATOM      5  C   LIG    1       23.180 -23.794   6.754  0.00  0.00    +0.144 C 
ATOM      6  C   LIG    1       25.619 -23.577   7.068  0.00  0.00    +0.410 C 
ATOM      7  O   LIG    1       25.901 -24.763   7.020  0.00  0.00    -0.226 OA
ATOM      8  O   LIG    1       26.558 -22.594   7.195  0.00  0.00    -0.434 OA
ATOM      9  C   LIG    1       26.056 -20.692   8.575  0.00  0.00    +0.066 C 
ENDROOT
BRANCH   1  11
ATOM     10  C   LIG    1       27.969 -20.133   6.235  0.00  0.00    +0.008 C 
ATOM     11  C   LIG    1       26.477 -20.416   6.094  0.00  0.00    +0.054 C 
ENDBRANCH   1  11
TORSDOF 1
ENDMDL
