MODEL 1
REMARK VINA RESULT:      -8.0      0.000      0.000
REMARK  Name = *****
REMARK                            x       y       z     vdW  Elec       q    Type
REMARK                         _______ _______ _______ _____ _____    ______ ____
ROOT
ATOM      1  C   LIG    1       26.570 -20.522   6.405  0.00  0.00    -0.047 A 
ATOM      2  C   LIG    1       27.513 -19.957   5.536  0.00  0.00    +0.004 A 
ATOM      3  C   LIG    1       28.728 -19.467   6.018  0.00  0.00    +0.005 A 
ATOM      4  C   LIG    1       29.041 -19.542   7.383  0.00  0.00    -0.034 A 
ATOM      5  C   LIG    1       28.106 -20.118   8.254  0.00  0.00    +0.005 A 
ATOM      6  C   LIG    1       26.879 -20.594   7.769  0.00  0.00    +0.004 A 
ENDROOT
BRANCH   4   7
ATOM      7  C   LIG    1       30.332 -18.936   7.917  0.00  0.00    +0.124 C 
ATOM      8  C   LIG    1       30.041 -17.808   8.915  0.00  0.00    +0.024 C 
BRANCH   7   9
ATOM      9  C   LIG    1       31.270 -19.977   8.538  0.00  0.00    +0.312 C 
ATOM     10  O   LIG    1       32.043 -19.745   9.453  0.00  0.00    -0.250 OA
BRANCH   9  11
ATOM     11  O   LIG    1       31.244 -21.196   7.939  0.00  0.00    -0.480 OA
ATOM     12  H   LIG    1       30.568 -21.804   8.295  0.00  0.00    +0.295 HD
ENDBRANCH   9  11
ENDBRANCH   7   9
ENDBRANCH   4   7
BRANCH   1  13
ATOM     13  C   LIG    1       25.262 -21.070   5.871  0.00  0.00    +0.038 C 
BRANCH  13  15
ATOM     14  C   LIG    1       22.888 -20.101   5.808  0.00  0.00    +0.007 C 
ATOM     15  C   LIG    1       23.996 -20.701   6.677  0.00  0.00    -0.013 C 
ATOM     16  C   LIG    1       23.433 -21.943   7.382  0.00  0.00    +0.007 C 
ENDBRANCH  13  15
ENDBRANCH   1  13
TORSDOF 5
ENDMDL
MODEL 2
REMARK VINA RESULT:      -8.0      4.858      6.590
REMARK  Name = *****
REMARK                            x       y       z     vdW  Elec       q    Type
REMARK                         _______ _______ _______ _____ _____    ______ ____
ROOT
ATOM      1  C   LIG    1       24.039 -22.513   6.967  0.00  0.00    -0.047 A 
ATOM      2  C   LIG    1       23.191 -23.585   6.658  0.00  0.00    +0.004 A 
ATOM      3  C   LIG    1       23.693 -24.882   6.535  0.00  0.00    +0.005 A 
ATOM      4  C   LIG    1       25.056 -25.146   6.732  0.00  0.00    -0.034 A 
ATOM      5  C   LIG    1       25.906 -24.078   7.052  0.00  0.00    +0.005 A 
ATOM      6  C   LIG    1       25.401 -22.774   7.159  0.00  0.00    +0.004 A 
ENDROOT
BRANCH   4   7
ATOM      7  C   LIG    1       25.614 -26.547   6.519  0.00  0.00    +0.124 C 
ATOM      8  C   LIG    1       24.496 -27.596   6.541  0.00  0.00    +0.024 C 
BRANCH   7   9
ATOM      9  C   LIG    1       26.446 -26.671   5.237  0.00  0.00    +0.312 C 
ATOM     10  O   LIG    1       25.982 -26.603   4.110  0.00  0.00    -0.250 OA
BRANCH   9  11
ATOM     11  O   LIG    1       27.760 -26.946   5.435  0.00  0.00    -0.480 OA
ATOM     12  H   LIG    1       28.177 -26.423   6.147  0.00  0.00    +0.295 HD
ENDBRANCH   9  11
ENDBRANCH   7   9
ENDBRANCH   4   7
BRANCH   1  13
ATOM     13  C   LIG    1       23.483 -21.112   7.120  0.00  0.00    +0.038 C 
BRANCH  13  15
ATOM     14  C   LIG    1       24.646 -20.388   4.951  0.00  0.00    +0.007 C 
ATOM     15  C   LIG    1       23.392 -20.277   5.822  0.00  0.00    -0.013 C 
ATOM     16  C   LIG    1       22.186 -20.723   4.985  0.00  0.00    +0.007 C 
ENDBRANCH  13  15
ENDBRANCH   1  13
TORSDOF 5
ENDMDL
MODEL 3
REMARK VINA RESULT:      -7.7      3.233      6.351
REMARK  Name = *****
REMARK                            x       y       z     vdW  Elec       q    Type
REMARK                         _______ _______ _______ _____ _____    ______ ____
ROOT
ATOM      1  C   LIG    1       27.510 -20.148   6.807  0.00  0.00    -0.047 A 
ATOM      2  C   LIG    1       26.790 -20.301   5.614  0.00  0.00    +0.004 A 
ATOM      3  C   LIG    1       25.467 -20.747   5.629  0.00  0.00    +0.005 A 
ATOM      4  C   LIG    1       24.820 -21.037   6.839  0.00  0.00    -0.034 A 
ATOM      5  C   LIG    1       25.533 -20.874   8.035  0.00  0.00    +0.005 A 
ATOM      6  C   LIG    1       26.867 -20.442   8.016  0.00  0.00    +0.004 A 
ENDROOT
BRANCH   4   7
ATOM      7  C   LIG    1       23.405 -21.597   6.847  0.00  0.00    +0.124 C 
ATOM      8  C   LIG    1       22.574 -21.017   5.695  0.00  0.00    +0.024 C 
BRANCH   7   9
ATOM      9  C   LIG    1       23.368 -23.130   6.821  0.00  0.00    +0.312 C 
ATOM     10  O   LIG    1       24.354 -23.841   6.923  0.00  0.00    -0.250 OA
BRANCH   9  11
ATOM     11  O   LIG    1       22.141 -23.666   6.596  0.00  0.00    -0.480 OA
ATOM     12  H   LIG    1       22.033 -24.066   5.712  0.00  0.00    +0.295 HD
ENDBRANCH   9  11
ENDBRANCH   7   9
ENDBRANCH   4   7
BRANCH   1  13
ATOM     13  C   LIG    1       28.939 -19.644   6.784  0.00  0.00    +0.038 C 
BRANCH  13  15
ATOM     14  C   LIG    1       30.714 -20.588   8.378  0.00  0.00    +0.007 C 
ATOM     15  C   LIG    1       29.634 -19.525   8.160  0.00  0.00    -0.013 C 
ATOM     16  C   LIG    1       30.284 -18.142   8.309  0.00  0.00    +0.007 C 
ENDBRANCH  13  15
ENDBRANCH   1  13
TORSDOF 5
ENDMDL
MODEL 4
REMARK VINA RESULT:      -7.6      1.254      1.967
REMARK  Name = *****
REMARK                            x       y       z     vdW  Elec       q    Type
REMARK                         _______ _______ _______ _____ _____    ______ ____
ROOT
ATOM      1  C   LIG    1       25.403 -20.666   7.275  0.00  0.00    -0.047 A 
ATOM      2  C   LIG    1       26.061 -20.476   6.052  0.00  0.00    +0.004 A 
ATOM      3  C   LIG    1       27.434 -20.227   6.009  0.00  0.00    +0.005 A 
ATOM      4  C   LIG    1       28.192 -20.178   7.188  0.00  0.00    -0.034 A 
ATOM      5  C   LIG    1       27.539 -20.379   8.412  0.00  0.00    +0.005 A 
ATOM      6  C   LIG    1       26.157 -20.612   8.453  0.00  0.00    +0.004 A 
ENDROOT
BRANCH   4   7
ATOM      7  C   LIG    1       29.673 -19.828   7.144  0.00  0.00    +0.124 C 
ATOM      8  C   LIG    1       29.962 -18.784   6.058  0.00  0.00    +0.024 C 
BRANCH   7   9
ATOM      9  C   LIG    1       30.219 -19.363   8.499  0.00  0.00    +0.312 C 
ATOM     10  O   LIG    1       30.753 -20.099   9.312  0.00  0.00    -0.250 OA
BRANCH   9  11
ATOM     11  O   LIG    1       29.998 -18.053   8.782  0.00  0.00    -0.480 OA
ATOM     12  H   LIG    1       29.075 -17.762   8.647  0.00  0.00    +0.295 HD
ENDBRANCH   9  11
ENDBRANCH   7   9
ENDBRANCH   4   7
BRANCH   1  13
ATOM     13  C   LIG    1       23.916 -20.956   7.311  0.00  0.00    +0.038 C 
BRANCH  13  15
ATOM     14  C   LIG    1       22.701 -23.138   6.723  0.00  0.00    +0.007 C 
ATOM     15  C   LIG    1       23.380 -21.874   6.189  0.00  0.00    -0.013 C 
ATOM     16  C   LIG    1       22.367 -21.116   5.320  0.00  0.00    +0.007 C 
ENDBRANCH  13  15
ENDBRANCH   1  13
TORSDOF 5
ENDMDL
MODEL 5
REMARK VINA RESULT:      -7.5      5.286      7.521
REMARK  Name = *****
REMARK                            x       y       z     vdW  Elec       q    Type
REMARK                         _______ _______ _______ _____ _____    ______ ____
ROOT
ATOM      1  C   LIG    1       24.648 -23.261   7.131  0.00  0.00    -0.047 A 
ATOM      2  C   LIG    1       23.491 -23.937   6.719  0.00  0.00    +0.004 A 
ATOM      3  C   LIG    1       23.572 -25.203   6.136  0.00  0.00    +0.005 A 
ATOM      4  C   LIG    1       24.811 -25.836   5.962  0.00  0.00    -0.034 A 
ATOM      5  C   LIG    1       25.969 -25.167   6.384  0.00  0.00    +0.005 A 
ATOM      6  C   LIG    1       25.887 -23.889   6.954  0.00  0.00    +0.004 A 
ENDROOT
BRANCH   4   7
ATOM      7  C   LIG    1       24.903 -27.181   5.255  0.00  0.00    +0.124 C 
ATOM      8  C   LIG    1       26.352 -27.505   4.871  0.00  0.00    +0.024 C 
BRANCH   7   9
ATOM      9  C   LIG    1       24.290 -28.327   6.067  0.00  0.00    +0.312 C 
ATOM     10  O   LIG    1       24.654 -28.646   7.187  0.00  0.00    -0.250 OA
BRANCH   9  11
ATOM     11  O   LIG    1       23.336 -29.039   5.414  0.00  0.00    -0.480 OA
ATOM     12  H   LIG    1       22.831 -28.527   4.754  0.00  0.00    +0.295 HD
ENDBRANCH   9  11
ENDBRANCH   7   9
ENDBRANCH   4   7
BRANCH   1  13
ATOM     13  C   LIG    1       24.550 -21.896   7.782  0.00  0.00    +0.038 C 
BRANCH  13  15
ATOM     14  C   LIG    1       25.482 -20.801   5.657  0.00  0.00    +0.007 C 
ATOM     15  C   LIG    1       24.487 -20.690   6.816  0.00  0.00    -0.013 C 
ATOM     16  C   LIG    1       23.077 -20.553   6.227  0.00  0.00    +0.007 C 
ENDBRANCH  13  15
ENDBRANCH   1  13
TORSDOF 5
ENDMDL
MODEL 6
REMARK VINA RESULT:      -7.5      1.261      1.680
REMARK  Name = *****
REMARK                            x       y       z     vdW  Elec       q    Type
REMARK                         _______ _______ _______ _____ _____    ______ ____
ROOT
ATOM      1  C   LIG    1       26.147 -20.452   5.946  0.00  0.00    -0.047 A 
ATOM      2  C   LIG    1       27.313 -19.943   5.360  0.00  0.00    +0.004 A 
ATOM      3  C   LIG    1       28.496 -19.837   6.094  0.00  0.00    +0.005 A 
ATOM      4  C   LIG    1       28.550 -20.252   7.432  0.00  0.00    -0.034 A 
ATOM      5  C   LIG    1       27.388 -20.773   8.019  0.00  0.00    +0.005 A 
ATOM      6  C   LIG    1       26.197 -20.862   7.284  0.00  0.00    +0.004 A 
ENDROOT
BRANCH   4   7
ATOM      7  C   LIG    1       29.818 -20.062   8.253  0.00  0.00    +0.124 C 
ATOM      8  C   LIG    1       30.428 -21.413   8.648  0.00  0.00    +0.024 C 
BRANCH   7   9
ATOM      9  C   LIG    1       30.860 -19.184   7.550  0.00  0.00    +0.312 C 
ATOM     10  O   LIG    1       31.810 -19.619   6.918  0.00  0.00    -0.250 OA
BRANCH   9  11
ATOM     11  O   LIG    1       30.701 -17.850   7.739  0.00  0.00    -0.480 OA
ATOM     12  H   LIG    1       30.117 -17.616   8.486  0.00  0.00    +0.295 HD
ENDBRANCH   9  11
ENDBRANCH   7   9
ENDBRANCH   4   7
BRANCH   1  13
ATOM     13  C   LIG    1       24.873 -20.584   5.137  0.00  0.00    +0.038 C 
BRANCH  13  15
ATOM     14  C   LIG    1       22.553 -19.489   5.205  0.00  0.00    +0.007 C 
ATOM     15  C   LIG    1       23.553 -20.401   5.921  0.00  0.00    -0.013 C 
ATOM     16  C   LIG    1       22.880 -21.761   6.154  0.00  0.00    +0.007 C 
ENDBRANCH  13  15
ENDBRANCH   1  13
TORSDOF 5
ENDMDL
MODEL 7
REMARK VINA RESULT:      -7.5      4.255      6.117
REMARK  Name = *****
REMARK                            x       y       z     vdW  Elec       q    Type
REMARK                         _______ _______ _______ _____ _____    ______ ____
ROOT
ATOM      1  C   LIG    1       24.454 -25.366   6.350  0.00  0.00    -0.047 A 
ATOM      2  C   LIG    1       25.747 -24.838   6.467  0.00  0.00    +0.004 A 
ATOM      3  C   LIG    1       25.944 -23.488   6.764  0.00  0.00    +0.005 A 
ATOM      4  C   LIG    1       24.853 -22.630   6.968  0.00  0.00    -0.034 A 
ATOM      5  C   LIG    1       23.558 -23.158   6.863  0.00  0.00    +0.005 A 
ATOM      6  C   LIG    1       23.363 -24.510   6.548  0.00  0.00    +0.004 A 
ENDROOT
BRANCH   4   7
ATOM      7  C   LIG    1       25.070 -21.143   7.212  0.00  0.00    +0.124 C 
ATOM      8  C   LIG    1       23.733 -20.409   7.370  0.00  0.00    +0.024 C 
BRANCH   7   9
ATOM      9  C   LIG    1       25.986 -20.861   8.409  0.00  0.00    +0.312 C 
ATOM     10  O   LIG    1       27.024 -20.223   8.342  0.00  0.00    -0.250 OA
BRANCH   9  11
ATOM     11  O   LIG    1       25.599 -21.445   9.572  0.00  0.00    -0.480 OA
ATOM     12  H   LIG    1       25.088 -20.861  10.165  0.00  0.00    +0.295 HD
ENDBRANCH   9  11
ENDBRANCH   7   9
ENDBRANCH   4   7
BRANCH   1  13
ATOM     13  C   LIG    1       24.248 -26.836   6.049  0.00  0.00    +0.038 C 
BRANCH  13  15
ATOM     14  C   LIG    1       25.611 -28.223   7.723  0.00  0.00    +0.007 C 
ATOM     15  C   LIG    1       25.476 -27.749   6.273  0.00  0.00    -0.013 C 
ATOM     16  C   LIG    1       25.391 -28.987   5.370  0.00  0.00    +0.007 C 
ENDBRANCH  13  15
ENDBRANCH   1  13
TORSDOF 5
ENDMDL
MODEL 8
REMARK VINA RESULT:      -7.3      3.988      5.638
REMARK  Name = *****
REMARK                            x       y       z     vdW  Elec       q    Type
REMARK                         _______ _______ _______ _____ _____    ______ ____
ROOT
ATOM      1  C   LIG    1       24.485 -24.945   6.502  0.00  0.00    -0.047 A 
ATOM      2  C   LIG    1       25.826 -24.596   6.710  0.00  0.00    +0.004 A 
ATOM      3  C   LIG    1       26.187 -23.278   6.995  0.00  0.00    +0.005 A 
ATOM      4  C   LIG    1       25.214 -22.273   7.096  0.00  0.00    -0.034 A 
ATOM      5  C   LIG    1       23.870 -22.620   6.900  0.00  0.00    +0.005 A 
ATOM      6  C   LIG    1       23.513 -23.942   6.597  0.00  0.00    +0.004 A 
ENDROOT
BRANCH   4   7
ATOM      7  C   LIG    1       25.617 -20.823   7.328  0.00  0.00    +0.124 C 
ATOM      8  C   LIG    1       25.980 -20.579   8.798  0.00  0.00    +0.024 C 
BRANCH   7   9
ATOM      9  C   LIG    1       26.754 -20.364   6.408  0.00  0.00    +0.312 C 
ATOM     10  O   LIG    1       27.844 -19.982   6.802  0.00  0.00    -0.250 OA
BRANCH   9  11
ATOM     11  O   LIG    1       26.441 -20.335   5.087  0.00  0.00    -0.480 OA
ATOM     12  H   LIG    1       25.795 -19.645   4.842  0.00  0.00    +0.295 HD
ENDBRANCH   9  11
ENDBRANCH   7   9
ENDBRANCH   4   7
BRANCH   1  13
ATOM     13  C   LIG    1       24.099 -26.382   6.214  0.00  0.00    +0.038 C 
BRANCH  13  15
ATOM     14  C   LIG    1       24.733 -28.751   6.967  0.00  0.00    +0.007 C 
ATOM     15  C   LIG    1       25.226 -27.428   6.375  0.00  0.00    -0.013 C 
ATOM     16  C   LIG    1       25.877 -27.723   5.017  0.00  0.00    +0.007 C 
ENDBRANCH  13  15
ENDBRANCH   1  13
TORSDOF 5
ENDMDL
MODEL 9
REMARK VINA RESULT:      -7.2      3.594      6.442
REMARK  Name = *****
REMARK                            x       y       z     vdW  Elec       q    Type
REMARK                         _______ _______ _______ _____ _____    ______ ____
ROOT
ATOM      1  C   LIG    1       27.656 -20.239   7.474  0.00  0.00    -0.047 A 
ATOM      2  C   LIG    1       26.509 -20.575   8.206  0.00  0.00    +0.004 A 
ATOM      3  C   LIG    1       25.290 -20.799   7.563  0.00  0.00    +0.005 A 
ATOM      4  C   LIG    1       25.188 -20.709   6.167  0.00  0.00    -0.034 A 
ATOM      5  C   LIG    1       26.336 -20.384   5.431  0.00  0.00    +0.005 A 
ATOM      6  C   LIG    1       27.554 -20.143   6.081  0.00  0.00    +0.004 A 
ENDROOT
BRANCH   4   7
ATOM      7  C   LIG    1       23.841 -20.875   5.475  0.00  0.00    +0.124 C 
ATOM      8  C   LIG    1       22.808 -19.888   6.032  0.00  0.00    +0.024 C 
BRANCH   7   9
ATOM      9  C   LIG    1       23.933 -20.757   3.950  0.00  0.00    +0.312 C 
ATOM     10  O   LIG    1       23.950 -19.698   3.343  0.00  0.00    -0.250 OA
BRANCH   9  11
ATOM     11  O   LIG    1       23.920 -21.941   3.285  0.00  0.00    -0.480 OA
ATOM     12  H   LIG    1       23.042 -22.202   2.945  0.00  0.00    +0.295 HD
ENDBRANCH   9  11
ENDBRANCH   7   9
ENDBRANCH   4   7
BRANCH   1  13
ATOM     13  C   LIG    1       28.980 -20.018   8.178  0.00  0.00    +0.038 C 
BRANCH  13  15
ATOM     14  C   LIG    1       30.217 -17.866   8.825  0.00  0.00    +0.007 C 
ATOM     15  C   LIG    1       29.809 -18.808   7.689  0.00  0.00    -0.013 C 
ATOM     16  C   LIG    1       31.085 -19.288   6.983  0.00  0.00    +0.007 C 
ENDBRANCH  13  15
ENDBRANCH   1  13
TORSDOF 5
ENDMDL
