MODEL 1
REMARK VINA RESULT:      -7.5      0.000      0.000
REMARK  Name = *****
REMARK                            x       y       z     vdW  Elec       q    Type
REMARK                         _______ _______ _______ _____ _____    ______ ____
ROOT
ATOM      1  C   LIG    1       24.817 -20.100   4.065  0.00  0.00    +0.051 C 
ATOM      2  C   LIG    1       25.160 -20.381   5.489  0.00  0.00    +0.030 C 
ATOM      3  C   LIG    1       24.046 -20.533   6.451  0.00  0.00    +0.257 C 
ATOM      4  O   LIG    1       22.870 -20.438   6.105  0.00  0.00    -0.267 OA
ATOM      5  N   LIG    1       24.402 -20.792   7.742  0.00  0.00    -0.275 N 
ATOM      6  H   LIG    1       23.655 -20.907   8.408  0.00  0.00    +0.173 HD
ATOM      7  C   LIG    1       25.680 -20.947   8.217  0.00  0.00    +0.332 C 
ATOM      8  O   LIG    1       25.860 -21.217   9.401  0.00  0.00    -0.246 OA
ATOM      9  N   LIG    1       26.689 -20.786   7.281  0.00  0.00    -0.270 N 
ATOM     10  C   LIG    1       26.409 -20.511   5.952  0.00  0.00    +0.102 C 
ENDROOT
BRANCH   9  11
ATOM     11  C   LIG    1       28.060 -20.933   7.740  0.00  0.00    +0.248 C 
ATOM     12  O   LIG    1       28.427 -19.796   8.556  0.00  0.00    -0.343 OA
ATOM     13  C   LIG    1       29.792 -19.452   8.219  0.00  0.00    +0.169 C 
ATOM     14  C   LIG    1       30.000 -20.035   6.862  0.00  0.00    +0.007 C 
ATOM     15  C   LIG    1       29.019 -20.901   6.599  0.00  0.00    +0.025 C 
BRANCH  13  16
ATOM     16  C   LIG    1       29.976 -17.933   8.319  0.00  0.00    +0.191 C 
BRANCH  16  17
ATOM     17  O   LIG    1       31.351 -17.555   8.241  0.00  0.00    -0.392 OA
ATOM     18  H   LIG    1       31.405 -16.697   8.702  0.00  0.00    +0.209 HD
ENDBRANCH  16  17
ENDBRANCH  13  16
ENDBRANCH   9  11
TORSDOF 3
ENDMDL
MODEL 2
REMARK VINA RESULT:      -7.4      3.338      4.154
REMARK  Name = *****
REMARK                            x       y       z     vdW  Elec       q    Type
REMARK                         _______ _______ _______ _____ _____    ______ ____
ROOT
ATOM      1  C   LIG    1       26.543 -26.149   6.193  0.00  0.00    +0.051 C 
ATOM      2  C   LIG    1       25.550 -25.048   6.363  0.00  0.00    +0.030 C 
ATOM      3  C   LIG    1       24.115 -25.391   6.259  0.00  0.00    +0.257 C 
ATOM      4  O   LIG    1       23.734 -26.541   6.045  0.00  0.00    -0.267 OA
ATOM      5  N   LIG    1       23.239 -24.358   6.423  0.00  0.00    -0.275 N 
ATOM      6  H   LIG    1       22.258 -24.576   6.365  0.00  0.00    +0.173 HD
ATOM      7  C   LIG    1       23.565 -23.052   6.696  0.00  0.00    +0.332 C 
ATOM      8  O   LIG    1       22.673 -22.225   6.860  0.00  0.00    -0.246 OA
ATOM      9  N   LIG    1       24.921 -22.779   6.773  0.00  0.00    -0.270 N 
ATOM     10  C   LIG    1       25.872 -23.773   6.608  0.00  0.00    +0.102 C 
ENDROOT
BRANCH   9  11
ATOM     11  C   LIG    1       25.314 -21.408   7.053  0.00  0.00    +0.248 C 
ATOM     12  O   LIG    1       26.333 -20.991   6.115  0.00  0.00    -0.343 OA
ATOM     13  C   LIG    1       27.297 -20.202   6.855  0.00  0.00    +0.169 C 
ATOM     14  C   LIG    1       27.112 -20.623   8.274  0.00  0.00    +0.007 C 
ATOM     15  C   LIG    1       25.964 -21.293   8.389  0.00  0.00    +0.025 C 
BRANCH  13  16
ATOM     16  C   LIG    1       28.697 -20.431   6.276  0.00  0.00    +0.191 C 
BRANCH  16  17
ATOM     17  O   LIG    1       29.423 -21.419   7.008  0.00  0.00    -0.392 OA
ATOM     18  H   LIG    1       28.799 -21.747   7.682  0.00  0.00    +0.209 HD
ENDBRANCH  16  17
ENDBRANCH  13  16
ENDBRANCH   9  11
TORSDOF 3
ENDMDL
MODEL 3
REMARK VINA RESULT:      -7.3      4.572      6.547
REMARK  Name = *****
REMARK                            x       y       z     vdW  Elec       q    Type
REMARK                         _______ _______ _______ _____ _____    ______ ____
ROOT
ATOM      1  C   LIG    1       27.380 -21.896   7.427  0.00  0.00    +0.051 C 
ATOM      2  C   LIG    1       26.004 -22.434   7.220  0.00  0.00    +0.030 C 
ATOM      3  C   LIG    1       24.872 -21.673   7.793  0.00  0.00    +0.257 C 
ATOM      4  O   LIG    1       25.040 -20.627   8.418  0.00  0.00    -0.267 OA
ATOM      5  N   LIG    1       23.630 -22.197   7.580  0.00  0.00    -0.275 N 
ATOM      6  H   LIG    1       22.848 -21.686   7.955  0.00  0.00    +0.173 HD
ATOM      7  C   LIG    1       23.340 -23.336   6.871  0.00  0.00    +0.332 C 
ATOM      8  O   LIG    1       22.169 -23.676   6.721  0.00  0.00    -0.246 OA
ATOM      9  N   LIG    1       24.433 -24.019   6.363  0.00  0.00    -0.270 N 
ATOM     10  C   LIG    1       25.726 -23.556   6.546  0.00  0.00    +0.102 C 
ENDROOT
BRANCH   9  11
ATOM     11  C   LIG    1       24.174 -25.235   5.611  0.00  0.00    +0.248 C 
ATOM     12  O   LIG    1       23.966 -26.338   6.523  0.00  0.00    -0.343 OA
ATOM     13  C   LIG    1       24.624 -27.494   5.951  0.00  0.00    +0.169 C 
ATOM     14  C   LIG    1       25.634 -26.923   5.015  0.00  0.00    +0.007 C 
ATOM     15  C   LIG    1       25.361 -25.635   4.803  0.00  0.00    +0.025 C 
BRANCH  13  16
ATOM     16  C   LIG    1       25.187 -28.370   7.076  0.00  0.00    +0.191 C 
BRANCH  16  17
ATOM     17  O   LIG    1       26.347 -27.791   7.675  0.00  0.00    -0.392 OA
ATOM     18  H   LIG    1       26.163 -27.785   8.633  0.00  0.00    +0.209 HD
ENDBRANCH  16  17
ENDBRANCH  13  16
ENDBRANCH   9  11
TORSDOF 3
ENDMDL
MODEL 4
REMARK VINA RESULT:      -7.2      2.315      5.498
REMARK  Name = *****
REMARK                            x       y       z     vdW  Elec       q    Type
REMARK                         _______ _______ _______ _____ _____    ______ ____
ROOT
ATOM      1  C   LIG    1       29.586 -18.204   5.338  0.00  0.00    +0.051 C 
ATOM      2  C   LIG    1       29.571 -19.276   6.376  0.00  0.00    +0.030 C 
ATOM      3  C   LIG    1       30.850 -19.609   7.042  0.00  0.00    +0.257 C 
ATOM      4  O   LIG    1       31.899 -19.029   6.766  0.00  0.00    -0.267 OA
ATOM      5  N   LIG    1       30.793 -20.592   7.987  0.00  0.00    -0.275 N 
ATOM      6  H   LIG    1       31.653 -20.825   8.456  0.00  0.00    +0.173 HD
ATOM      7  C   LIG    1       29.669 -21.271   8.386  0.00  0.00    +0.332 C 
ATOM      8  O   LIG    1       29.751 -22.110   9.279  0.00  0.00    -0.246 OA
ATOM      9  N   LIG    1       28.499 -20.931   7.726  0.00  0.00    -0.270 N 
ATOM     10  C   LIG    1       28.477 -19.950   6.747  0.00  0.00    +0.102 C 
ENDROOT
BRANCH   9  11
ATOM     11  C   LIG    1       27.284 -21.630   8.110  0.00  0.00    +0.248 C 
ATOM     12  O   LIG    1       26.779 -22.385   6.985  0.00  0.00    -0.343 OA
ATOM     13  C   LIG    1       25.337 -22.256   6.998  0.00  0.00    +0.169 C 
ATOM     14  C   LIG    1       25.081 -21.017   7.787  0.00  0.00    +0.007 C 
ATOM     15  C   LIG    1       26.191 -20.673   8.442  0.00  0.00    +0.025 C 
BRANCH  13  16
ATOM     16  C   LIG    1       24.812 -22.242   5.558  0.00  0.00    +0.191 C 
BRANCH  16  17
ATOM     17  O   LIG    1       24.873 -23.535   4.955  0.00  0.00    -0.392 OA
ATOM     18  H   LIG    1       25.801 -23.643   4.677  0.00  0.00    +0.209 HD
ENDBRANCH  16  17
ENDBRANCH  13  16
ENDBRANCH   9  11
TORSDOF 3
ENDMDL
MODEL 5
REMARK VINA RESULT:      -7.1      3.824      5.546
REMARK  Name = *****
REMARK                            x       y       z     vdW  Elec       q    Type
REMARK                         _______ _______ _______ _____ _____    ______ ____
ROOT
ATOM      1  C   LIG    1       23.865 -20.663   3.297  0.00  0.00    +0.051 C 
ATOM      2  C   LIG    1       24.733 -21.073   4.439  0.00  0.00    +0.030 C 
ATOM      3  C   LIG    1       25.820 -20.156   4.844  0.00  0.00    +0.257 C 
ATOM      4  O   LIG    1       26.014 -19.083   4.274  0.00  0.00    -0.267 OA
ATOM      5  N   LIG    1       26.589 -20.566   5.894  0.00  0.00    -0.275 N 
ATOM      6  H   LIG    1       27.328 -19.949   6.189  0.00  0.00    +0.173 HD
ATOM      7  C   LIG    1       26.431 -21.726   6.612  0.00  0.00    +0.332 C 
ATOM      8  O   LIG    1       27.173 -21.957   7.563  0.00  0.00    -0.246 OA
ATOM      9  N   LIG    1       25.407 -22.557   6.188  0.00  0.00    -0.270 N 
ATOM     10  C   LIG    1       24.589 -22.214   5.123  0.00  0.00    +0.102 C 
ENDROOT
BRANCH   9  11
ATOM     11  C   LIG    1       25.207 -23.800   6.913  0.00  0.00    +0.248 C 
ATOM     12  O   LIG    1       26.200 -24.769   6.505  0.00  0.00    -0.343 OA
ATOM     13  C   LIG    1       25.534 -26.052   6.420  0.00  0.00    +0.169 C 
ATOM     14  C   LIG    1       24.091 -25.713   6.256  0.00  0.00    +0.007 C 
ATOM     15  C   LIG    1       23.902 -24.428   6.561  0.00  0.00    +0.025 C 
BRANCH  13  16
ATOM     16  C   LIG    1       26.152 -26.874   5.284  0.00  0.00    +0.191 C 
BRANCH  16  17
ATOM     17  O   LIG    1       27.569 -26.991   5.418  0.00  0.00    -0.392 OA
ATOM     18  H   LIG    1       27.707 -27.736   6.033  0.00  0.00    +0.209 HD
ENDBRANCH  16  17
ENDBRANCH  13  16
ENDBRANCH   9  11
TORSDOF 3
ENDMDL
MODEL 6
REMARK VINA RESULT:      -7.0      1.889      5.430
REMARK  Name = *****
REMARK                            x       y       z     vdW  Elec       q    Type
REMARK                         _______ _______ _______ _____ _____    ______ ____
ROOT
ATOM      1  C   LIG    1       29.076 -18.872   5.728  0.00  0.00    +0.051 C 
ATOM      2  C   LIG    1       28.220 -19.977   6.251  0.00  0.00    +0.030 C 
ATOM      3  C   LIG    1       28.779 -20.838   7.316  0.00  0.00    +0.257 C 
ATOM      4  O   LIG    1       29.908 -20.661   7.771  0.00  0.00    -0.267 OA
ATOM      5  N   LIG    1       27.964 -21.834   7.769  0.00  0.00    -0.275 N 
ATOM      6  H   LIG    1       28.326 -22.424   8.500  0.00  0.00    +0.173 HD
ATOM      7  C   LIG    1       26.683 -22.090   7.348  0.00  0.00    +0.332 C 
ATOM      8  O   LIG    1       26.042 -22.999   7.869  0.00  0.00    -0.246 OA
ATOM      9  N   LIG    1       26.208 -21.264   6.342  0.00  0.00    -0.270 N 
ATOM     10  C   LIG    1       26.979 -20.236   5.823  0.00  0.00    +0.102 C 
ENDROOT
BRANCH   9  11
ATOM     11  C   LIG    1       24.858 -21.502   5.859  0.00  0.00    +0.248 C 
ATOM     12  O   LIG    1       24.653 -20.796   4.614  0.00  0.00    -0.343 OA
ATOM     13  C   LIG    1       23.311 -20.254   4.647  0.00  0.00    +0.169 C 
ATOM     14  C   LIG    1       22.969 -20.195   6.098  0.00  0.00    +0.007 C 
ATOM     15  C   LIG    1       23.842 -20.929   6.788  0.00  0.00    +0.025 C 
BRANCH  13  16
ATOM     16  C   LIG    1       23.283 -18.912   3.908  0.00  0.00    +0.191 C 
BRANCH  16  17
ATOM     17  O   LIG    1       22.284 -18.035   4.429  0.00  0.00    -0.392 OA
ATOM     18  H   LIG    1       21.660 -17.894   3.692  0.00  0.00    +0.209 HD
ENDBRANCH  16  17
ENDBRANCH  13  16
ENDBRANCH   9  11
TORSDOF 3
ENDMDL
MODEL 7
REMARK VINA RESULT:      -6.8      3.645      5.202
REMARK  Name = *****
REMARK                            x       y       z     vdW  Elec       q    Type
REMARK                         _______ _______ _______ _____ _____    ______ ____
ROOT
ATOM      1  C   LIG    1       28.767 -18.556   5.671  0.00  0.00    +0.051 C 
ATOM      2  C   LIG    1       29.637 -19.151   6.727  0.00  0.00    +0.030 C 
ATOM      3  C   LIG    1       29.522 -20.604   6.978  0.00  0.00    +0.257 C 
ATOM      4  O   LIG    1       28.746 -21.316   6.343  0.00  0.00    -0.267 OA
ATOM      5  N   LIG    1       30.336 -21.110   7.949  0.00  0.00    -0.275 N 
ATOM      6  H   LIG    1       30.278 -22.099   8.126  0.00  0.00    +0.173 HD
ATOM      7  C   LIG    1       31.255 -20.405   8.686  0.00  0.00    +0.332 C 
ATOM      8  O   LIG    1       31.955 -20.993   9.507  0.00  0.00    -0.246 OA
ATOM      9  N   LIG    1       31.318 -19.046   8.423  0.00  0.00    -0.270 N 
ATOM     10  C   LIG    1       30.516 -18.457   7.458  0.00  0.00    +0.102 C 
ENDROOT
BRANCH   9  11
ATOM     11  C   LIG    1       32.272 -18.258   9.185  0.00  0.00    +0.248 C 
ATOM     12  O   LIG    1       31.853 -18.189  10.568  0.00  0.00    -0.343 OA
ATOM     13  C   LIG    1       32.120 -16.842  11.027  0.00  0.00    +0.169 C 
ATOM     14  C   LIG    1       32.180 -16.027   9.779  0.00  0.00    +0.007 C 
ATOM     15  C   LIG    1       32.290 -16.840   8.727  0.00  0.00    +0.025 C 
BRANCH  13  16
ATOM     16  C   LIG    1       31.046 -16.424  12.037  0.00  0.00    +0.191 C 
BRANCH  16  17
ATOM     17  O   LIG    1       31.525 -15.437  12.951  0.00  0.00    -0.392 OA
ATOM     18  H   LIG    1       32.008 -15.936  13.635  0.00  0.00    +0.209 HD
ENDBRANCH  16  17
ENDBRANCH  13  16
ENDBRANCH   9  11
TORSDOF 3
ENDMDL
MODEL 8
REMARK VINA RESULT:      -6.8      2.826      5.491
REMARK  Name = *****
REMARK                            x       y       z     vdW  Elec       q    Type
REMARK                         _______ _______ _______ _____ _____    ______ ____
ROOT
ATOM      1  C   LIG    1       25.888 -19.380   3.886  0.00  0.00    +0.051 C 
ATOM      2  C   LIG    1       26.247 -20.109   5.138  0.00  0.00    +0.030 C 
ATOM      3  C   LIG    1       27.537 -19.781   5.781  0.00  0.00    +0.257 C 
ATOM      4  O   LIG    1       28.300 -18.935   5.318  0.00  0.00    -0.267 OA
ATOM      5  N   LIG    1       27.826 -20.467   6.925  0.00  0.00    -0.275 N 
ATOM      6  H   LIG    1       28.697 -20.249   7.381  0.00  0.00    +0.173 HD
ATOM      7  C   LIG    1       27.028 -21.402   7.535  0.00  0.00    +0.332 C 
ATOM      8  O   LIG    1       27.393 -21.919   8.588  0.00  0.00    -0.246 OA
ATOM      9  N   LIG    1       25.835 -21.682   6.889  0.00  0.00    -0.270 N 
ATOM     10  C   LIG    1       25.475 -21.035   5.718  0.00  0.00    +0.102 C 
ENDROOT
BRANCH   9  11
ATOM     11  C   LIG    1       24.960 -22.672   7.495  0.00  0.00    +0.248 C 
ATOM     12  O   LIG    1       25.289 -23.987   6.991  0.00  0.00    -0.343 OA
ATOM     13  C   LIG    1       24.040 -24.691   6.789  0.00  0.00    +0.169 C 
ATOM     14  C   LIG    1       23.020 -23.611   6.664  0.00  0.00    +0.007 C 
ATOM     15  C   LIG    1       23.541 -22.460   7.090  0.00  0.00    +0.025 C 
BRANCH  13  16
ATOM     16  C   LIG    1       24.168 -25.621   5.577  0.00  0.00    +0.191 C 
BRANCH  16  17
ATOM     17  O   LIG    1       24.751 -24.958   4.454  0.00  0.00    -0.392 OA
ATOM     18  H   LIG    1       24.004 -24.535   3.992  0.00  0.00    +0.209 HD
ENDBRANCH  16  17
ENDBRANCH  13  16
ENDBRANCH   9  11
TORSDOF 3
ENDMDL
MODEL 9
REMARK VINA RESULT:      -6.7      3.275      5.569
REMARK  Name = *****
REMARK                            x       y       z     vdW  Elec       q    Type
REMARK                         _______ _______ _______ _____ _____    ______ ____
ROOT
ATOM      1  C   LIG    1       22.940 -18.890   3.586  0.00  0.00    +0.051 C 
ATOM      2  C   LIG    1       24.036 -19.581   4.326  0.00  0.00    +0.030 C 
ATOM      3  C   LIG    1       25.424 -19.136   4.077  0.00  0.00    +0.257 C 
ATOM      4  O   LIG    1       25.686 -18.225   3.294  0.00  0.00    -0.267 OA
ATOM      5  N   LIG    1       26.396 -19.791   4.776  0.00  0.00    -0.275 N 
ATOM      6  H   LIG    1       27.346 -19.494   4.626  0.00  0.00    +0.173 HD
ATOM      7  C   LIG    1       26.202 -20.794   5.693  0.00  0.00    +0.332 C 
ATOM      8  O   LIG    1       27.166 -21.274   6.283  0.00  0.00    -0.246 OA
ATOM      9  N   LIG    1       24.885 -21.182   5.884  0.00  0.00    -0.270 N 
ATOM     10  C   LIG    1       23.843 -20.573   5.204  0.00  0.00    +0.102 C 
ENDROOT
BRANCH   9  11
ATOM     11  C   LIG    1       24.631 -22.247   6.840  0.00  0.00    +0.248 C 
ATOM     12  O   LIG    1       25.239 -23.475   6.377  0.00  0.00    -0.343 OA
ATOM     13  C   LIG    1       24.315 -24.548   6.680  0.00  0.00    +0.169 C 
ATOM     14  C   LIG    1       22.992 -23.874   6.815  0.00  0.00    +0.007 C 
ATOM     15  C   LIG    1       23.177 -22.558   6.930  0.00  0.00    +0.025 C 
BRANCH  13  16
ATOM     16  C   LIG    1       24.401 -25.620   5.588  0.00  0.00    +0.191 C 
BRANCH  16  17
ATOM     17  O   LIG    1       24.885 -25.088   4.354  0.00  0.00    -0.392 OA
ATOM     18  H   LIG    1       25.189 -24.186   4.567  0.00  0.00    +0.209 HD
ENDBRANCH  16  17
ENDBRANCH  13  16
ENDBRANCH   9  11
TORSDOF 3
ENDMDL
