MODEL 1
REMARK VINA RESULT:      -7.4      0.000      0.000
REMARK  Name = *****
REMARK                            x       y       z     vdW  Elec       q    Type
REMARK                         _______ _______ _______ _____ _____    ______ ____
ROOT
ATOM      1  C   LIG    1       24.135 -21.667   6.804  0.00  0.00    +0.142 A 
ATOM      2  C   LIG    1       24.358 -23.061   6.811  0.00  0.00    +0.067 A 
ATOM      3  C   LIG    1       25.653 -23.542   7.026  0.00  0.00    +0.027 A 
ATOM      4  C   LIG    1       26.702 -22.664   7.314  0.00  0.00    +0.017 A 
ATOM      5  C   LIG    1       26.474 -21.282   7.293  0.00  0.00    +0.063 A 
ATOM      6  C   LIG    1       25.200 -20.787   7.019  0.00  0.00    +0.062 A 
ENDROOT
BRANCH   2   7
ATOM      7  N   LIG    1       23.342 -23.949   6.415  0.00  0.00    -0.355 N 
ATOM      8  H   LIG    1       23.667 -24.573   5.677  0.00  0.00    +0.142 HD
ATOM      9  H   LIG    1       22.459 -23.498   6.202  0.00  0.00    +0.142 HD
ENDBRANCH   2   7
BRANCH   5  10
ATOM     10  C   LIG    1       27.609 -20.378   7.606  0.00  0.00    +0.339 C 
ATOM     11  O   LIG    1       27.735 -19.796   8.671  0.00  0.00    -0.245 OA
BRANCH  10  12
ATOM     12  O   LIG    1       28.470 -20.327   6.558  0.00  0.00    -0.460 OA
BRANCH  12  13
ATOM     13  C   LIG    1       29.348 -19.182   6.519  0.00  0.00    +0.247 C 
BRANCH  13  14
ATOM     14  C   LIG    1       30.800 -19.635   6.772  0.00  0.00    +0.125 C 
BRANCH  14  15
ATOM     15  N   LIG    1       31.432 -19.224   8.041  0.00  0.00    -0.300 NA
BRANCH  15  16
ATOM     16  C   LIG    1       31.085 -20.165   9.136  0.00  0.00    +0.081 C 
ATOM     17  C   LIG    1       31.183 -21.660   8.820  0.00  0.00    +0.020 C 
ENDBRANCH  15  16
BRANCH  15  18
ATOM     18  C   LIG    1       31.154 -17.839   8.457  0.00  0.00    +0.081 C 
ATOM     19  C   LIG    1       30.312 -17.696   9.717  0.00  0.00    +0.020 C 
ENDBRANCH  15  18
ENDBRANCH  14  15
ENDBRANCH  13  14
ENDBRANCH  12  13
ENDBRANCH  10  12
ENDBRANCH   5  10
BRANCH   1  20
ATOM     20  O   LIG    1       22.838 -21.257   6.578  0.00  0.00    -0.490 OA
BRANCH  20  21
ATOM     21  C   LIG    1       22.544 -20.908   5.221  0.00  0.00    +0.229 C 
BRANCH  21  22
ATOM     22  C   LIG    1       22.504 -19.386   5.070  0.00  0.00    +0.041 C 
BRANCH  22  24
ATOM     23  C   LIG    1       24.670 -19.394   3.724  0.00  0.00    +0.004 C 
ATOM     24  C   LIG    1       23.259 -18.840   3.857  0.00  0.00    +0.000 C 
ENDBRANCH  22  24
ENDBRANCH  21  22
ENDBRANCH  20  21
ENDBRANCH   1  20
TORSDOF 12
ENDMDL
MODEL 2
REMARK VINA RESULT:      -7.4      1.391      2.283
REMARK  Name = *****
REMARK                            x       y       z     vdW  Elec       q    Type
REMARK                         _______ _______ _______ _____ _____    ______ ____
ROOT
ATOM      1  C   LIG    1       24.990 -22.014   5.340  0.00  0.00    +0.142 A 
ATOM      2  C   LIG    1       25.066 -23.416   5.484  0.00  0.00    +0.067 A 
ATOM      3  C   LIG    1       25.691 -23.951   6.614  0.00  0.00    +0.027 A 
ATOM      4  C   LIG    1       26.163 -23.117   7.631  0.00  0.00    +0.017 A 
ATOM      5  C   LIG    1       26.094 -21.726   7.474  0.00  0.00    +0.063 A 
ATOM      6  C   LIG    1       25.529 -21.179   6.323  0.00  0.00    +0.062 A 
ENDROOT
BRANCH   2   7
ATOM      7  N   LIG    1       24.698 -24.265   4.424  0.00  0.00    -0.355 N 
ATOM      8  H   LIG    1       25.162 -25.170   4.501  0.00  0.00    +0.142 HD
ATOM      9  H   LIG    1       24.789 -23.843   3.507  0.00  0.00    +0.142 HD
ENDBRANCH   2   7
BRANCH   5  10
ATOM     10  C   LIG    1       26.602 -20.869   8.574  0.00  0.00    +0.339 C 
ATOM     11  O   LIG    1       25.886 -20.375   9.430  0.00  0.00    -0.245 OA
BRANCH  10  12
ATOM     12  O   LIG    1       27.951 -20.750   8.492  0.00  0.00    -0.460 OA
BRANCH  12  13
ATOM     13  C   LIG    1       28.448 -19.959   7.391  0.00  0.00    +0.247 C 
BRANCH  13  14
ATOM     14  C   LIG    1       29.583 -19.040   7.885  0.00  0.00    +0.125 C 
BRANCH  14  15
ATOM     15  N   LIG    1       30.418 -19.524   9.001  0.00  0.00    -0.300 NA
BRANCH  15  16
ATOM     16  C   LIG    1       31.108 -18.397   9.677  0.00  0.00    +0.081 C 
ATOM     17  C   LIG    1       30.282 -17.576  10.669  0.00  0.00    +0.020 C 
ENDBRANCH  15  16
BRANCH  15  18
ATOM     18  C   LIG    1       31.391 -20.570   8.643  0.00  0.00    +0.081 C 
ATOM     19  C   LIG    1       31.108 -21.948   9.224  0.00  0.00    +0.020 C 
ENDBRANCH  15  18
ENDBRANCH  14  15
ENDBRANCH  13  14
ENDBRANCH  12  13
ENDBRANCH  10  12
ENDBRANCH   5  10
BRANCH   1  20
ATOM     20  O   LIG    1       24.369 -21.550   4.199  0.00  0.00    -0.490 OA
BRANCH  20  21
ATOM     21  C   LIG    1       24.981 -20.402   3.604  0.00  0.00    +0.229 C 
BRANCH  21  22
ATOM     22  C   LIG    1       23.965 -19.263   3.496  0.00  0.00    +0.041 C 
BRANCH  22  24
ATOM     23  C   LIG    1       21.715 -18.358   4.283  0.00  0.00    +0.004 C 
ATOM     24  C   LIG    1       22.918 -19.229   4.611  0.00  0.00    +0.000 C 
ENDBRANCH  22  24
ENDBRANCH  21  22
ENDBRANCH  20  21
ENDBRANCH   1  20
TORSDOF 12
ENDMDL
MODEL 3
REMARK VINA RESULT:      -7.3      2.042      4.056
REMARK  Name = *****
REMARK                            x       y       z     vdW  Elec       q    Type
REMARK                         _______ _______ _______ _____ _____    ______ ____
ROOT
ATOM      1  C   LIG    1       24.518 -23.612   6.830  0.00  0.00    +0.142 A 
ATOM      2  C   LIG    1       23.302 -22.895   6.794  0.00  0.00    +0.067 A 
ATOM      3  C   LIG    1       23.291 -21.554   7.189  0.00  0.00    +0.027 A 
ATOM      4  C   LIG    1       24.477 -20.902   7.537  0.00  0.00    +0.017 A 
ATOM      5  C   LIG    1       25.677 -21.625   7.582  0.00  0.00    +0.063 A 
ATOM      6  C   LIG    1       25.692 -22.978   7.250  0.00  0.00    +0.062 A 
ENDROOT
BRANCH   2   7
ATOM      7  N   LIG    1       22.087 -23.560   6.554  0.00  0.00    -0.355 N 
ATOM      8  H   LIG    1       22.227 -24.568   6.492  0.00  0.00    +0.142 HD
ATOM      9  H   LIG    1       21.554 -23.179   5.779  0.00  0.00    +0.142 HD
ENDBRANCH   2   7
BRANCH   5  10
ATOM     10  C   LIG    1       26.919 -20.901   7.954  0.00  0.00    +0.339 C 
ATOM     11  O   LIG    1       26.994 -20.130   8.897  0.00  0.00    -0.245 OA
BRANCH  10  12
ATOM     12  O   LIG    1       27.930 -21.244   7.116  0.00  0.00    -0.460 OA
BRANCH  12  13
ATOM     13  C   LIG    1       28.512 -20.165   6.355  0.00  0.00    +0.247 C 
BRANCH  13  14
ATOM     14  C   LIG    1       29.943 -19.889   6.857  0.00  0.00    +0.125 C 
BRANCH  14  15
ATOM     15  N   LIG    1       30.118 -19.595   8.293  0.00  0.00    -0.300 NA
BRANCH  15  16
ATOM     16  C   LIG    1       30.266 -18.136   8.523  0.00  0.00    +0.081 C 
ATOM     17  C   LIG    1       30.331 -17.669   9.979  0.00  0.00    +0.020 C 
ENDBRANCH  15  16
BRANCH  15  18
ATOM     18  C   LIG    1       31.217 -20.324   8.949  0.00  0.00    +0.081 C 
ATOM     19  C   LIG    1       31.000 -21.822   9.105  0.00  0.00    +0.020 C 
ENDBRANCH  15  18
ENDBRANCH  14  15
ENDBRANCH  13  14
ENDBRANCH  12  13
ENDBRANCH  10  12
ENDBRANCH   5  10
BRANCH   1  20
ATOM     20  O   LIG    1       24.460 -24.932   6.436  0.00  0.00    -0.490 OA
BRANCH  20  21
ATOM     21  C   LIG    1       25.091 -25.215   5.183  0.00  0.00    +0.229 C 
BRANCH  21  22
ATOM     22  C   LIG    1       25.893 -26.514   5.281  0.00  0.00    +0.041 C 
BRANCH  22  24
ATOM     23  C   LIG    1       24.421 -28.470   5.998  0.00  0.00    +0.004 C 
ATOM     24  C   LIG    1       25.467 -27.448   6.416  0.00  0.00    +0.000 C 
ENDBRANCH  22  24
ENDBRANCH  21  22
ENDBRANCH  20  21
ENDBRANCH   1  20
TORSDOF 12
ENDMDL
MODEL 4
REMARK VINA RESULT:      -7.2      2.076      3.870
REMARK  Name = *****
REMARK                            x       y       z     vdW  Elec       q    Type
REMARK                         _______ _______ _______ _____ _____    ______ ____
ROOT
ATOM      1  C   LIG    1       24.599 -23.472   6.939  0.00  0.00    +0.142 A 
ATOM      2  C   LIG    1       23.350 -22.830   6.793  0.00  0.00    +0.067 A 
ATOM      3  C   LIG    1       23.260 -21.455   7.026  0.00  0.00    +0.027 A 
ATOM      4  C   LIG    1       24.402 -20.704   7.319  0.00  0.00    +0.017 A 
ATOM      5  C   LIG    1       25.635 -21.352   7.475  0.00  0.00    +0.063 A 
ATOM      6  C   LIG    1       25.727 -22.732   7.306  0.00  0.00    +0.062 A 
ENDROOT
BRANCH   2   7
ATOM      7  N   LIG    1       22.177 -23.583   6.608  0.00  0.00    -0.355 N 
ATOM      8  H   LIG    1       21.389 -22.982   6.368  0.00  0.00    +0.142 HD
ATOM      9  H   LIG    1       21.976 -24.228   7.365  0.00  0.00    +0.142 HD
ENDBRANCH   2   7
BRANCH   5  10
ATOM     10  C   LIG    1       26.828 -20.524   7.784  0.00  0.00    +0.339 C 
ATOM     11  O   LIG    1       27.078 -20.090   8.897  0.00  0.00    -0.245 OA
BRANCH  10  12
ATOM     12  O   LIG    1       27.584 -20.356   6.670  0.00  0.00    -0.460 OA
BRANCH  12  13
ATOM     13  C   LIG    1       28.917 -20.908   6.723  0.00  0.00    +0.247 C 
BRANCH  13  14
ATOM     14  C   LIG    1       29.950 -19.765   6.742  0.00  0.00    +0.125 C 
BRANCH  14  15
ATOM     15  N   LIG    1       31.078 -19.879   7.687  0.00  0.00    -0.300 NA
BRANCH  15  16
ATOM     16  C   LIG    1       30.731 -20.767   8.825  0.00  0.00    +0.081 C 
ATOM     17  C   LIG    1       31.541 -22.058   8.967  0.00  0.00    +0.020 C 
ENDBRANCH  15  16
BRANCH  15  18
ATOM     18  C   LIG    1       31.604 -18.598   8.188  0.00  0.00    +0.081 C 
ATOM     19  C   LIG    1       30.598 -17.725   8.923  0.00  0.00    +0.020 C 
ENDBRANCH  15  18
ENDBRANCH  14  15
ENDBRANCH  13  14
ENDBRANCH  12  13
ENDBRANCH  10  12
ENDBRANCH   5  10
BRANCH   1  20
ATOM     20  O   LIG    1       24.619 -24.831   6.703  0.00  0.00    -0.490 OA
BRANCH  20  21
ATOM     21  C   LIG    1       25.923 -25.392   6.520  0.00  0.00    +0.229 C 
BRANCH  21  22
ATOM     22  C   LIG    1       25.808 -26.855   6.089  0.00  0.00    +0.041 C 
BRANCH  22  24
ATOM     23  C   LIG    1       24.245 -28.869   6.030  0.00  0.00    +0.004 C 
ATOM     24  C   LIG    1       24.375 -27.359   5.903  0.00  0.00    +0.000 C 
ENDBRANCH  22  24
ENDBRANCH  21  22
ENDBRANCH  20  21
ENDBRANCH   1  20
TORSDOF 12
ENDMDL
MODEL 5
REMARK VINA RESULT:      -7.1      2.042      3.148
REMARK  Name = *****
REMARK                            x       y       z     vdW  Elec       q    Type
REMARK                         _______ _______ _______ _____ _____    ______ ____
ROOT
ATOM      1  C   LIG    1       25.818 -20.781   6.077  0.00  0.00    +0.142 A 
ATOM      2  C   LIG    1       25.046 -21.039   7.230  0.00  0.00    +0.067 A 
ATOM      3  C   LIG    1       25.631 -20.880   8.490  0.00  0.00    +0.027 A 
ATOM      4  C   LIG    1       26.935 -20.394   8.615  0.00  0.00    +0.017 A 
ATOM      5  C   LIG    1       27.698 -20.153   7.464  0.00  0.00    +0.063 A 
ATOM      6  C   LIG    1       27.147 -20.366   6.202  0.00  0.00    +0.062 A 
ENDROOT
BRANCH   2   7
ATOM      7  N   LIG    1       23.775 -21.631   7.123  0.00  0.00    -0.355 N 
ATOM      8  H   LIG    1       23.399 -21.863   8.042  0.00  0.00    +0.142 HD
ATOM      9  H   LIG    1       23.733 -22.401   6.464  0.00  0.00    +0.142 HD
ENDBRANCH   2   7
BRANCH   5  10
ATOM     10  C   LIG    1       29.079 -19.635   7.634  0.00  0.00    +0.339 C 
ATOM     11  O   LIG    1       29.916 -19.641   6.745  0.00  0.00    -0.245 OA
BRANCH  10  12
ATOM     12  O   LIG    1       29.246 -19.146   8.888  0.00  0.00    -0.460 OA
BRANCH  12  13
ATOM     13  C   LIG    1       30.293 -18.165   9.049  0.00  0.00    +0.247 C 
BRANCH  13  14
ATOM     14  C   LIG    1       30.416 -17.778  10.536  0.00  0.00    +0.125 C 
BRANCH  14  15
ATOM     15  N   LIG    1       31.752 -17.396  11.034  0.00  0.00    -0.300 NA
BRANCH  15  16
ATOM     16  C   LIG    1       31.650 -16.339  12.072  0.00  0.00    +0.081 C 
ATOM     17  C   LIG    1       32.461 -16.548  13.353  0.00  0.00    +0.020 C 
ENDBRANCH  15  16
BRANCH  15  18
ATOM     18  C   LIG    1       32.713 -16.992   9.994  0.00  0.00    +0.081 C 
ATOM     19  C   LIG    1       33.001 -15.500   9.920  0.00  0.00    +0.020 C 
ENDBRANCH  15  18
ENDBRANCH  14  15
ENDBRANCH  13  14
ENDBRANCH  12  13
ENDBRANCH  10  12
ENDBRANCH   5  10
BRANCH   1  20
ATOM     20  O   LIG    1       25.185 -20.964   4.865  0.00  0.00    -0.490 OA
BRANCH  20  21
ATOM     21  C   LIG    1       25.227 -19.835   3.986  0.00  0.00    +0.229 C 
BRANCH  21  22
ATOM     22  C   LIG    1       23.820 -19.509   3.484  0.00  0.00    +0.041 C 
BRANCH  22  24
ATOM     23  C   LIG    1       22.170 -17.904   4.582  0.00  0.00    +0.004 C 
ATOM     24  C   LIG    1       22.778 -19.298   4.584  0.00  0.00    +0.000 C 
ENDBRANCH  22  24
ENDBRANCH  21  22
ENDBRANCH  20  21
ENDBRANCH   1  20
TORSDOF 12
ENDMDL
MODEL 6
REMARK VINA RESULT:      -7.1      1.630      3.270
REMARK  Name = *****
REMARK                            x       y       z     vdW  Elec       q    Type
REMARK                         _______ _______ _______ _____ _____    ______ ____
ROOT
ATOM      1  C   LIG    1       24.698 -21.974   5.962  0.00  0.00    +0.142 A 
ATOM      2  C   LIG    1       24.517 -21.315   4.726  0.00  0.00    +0.067 A 
ATOM      3  C   LIG    1       25.394 -20.286   4.370  0.00  0.00    +0.027 A 
ATOM      4  C   LIG    1       26.485 -19.964   5.181  0.00  0.00    +0.017 A 
ATOM      5  C   LIG    1       26.649 -20.615   6.412  0.00  0.00    +0.063 A 
ATOM      6  C   LIG    1       25.746 -21.600   6.807  0.00  0.00    +0.062 A 
ENDROOT
BRANCH   2   7
ATOM      7  N   LIG    1       23.367 -21.549   3.952  0.00  0.00    -0.355 N 
ATOM      8  H   LIG    1       23.294 -20.876   3.190  0.00  0.00    +0.142 HD
ATOM      9  H   LIG    1       22.514 -21.636   4.495  0.00  0.00    +0.142 HD
ENDBRANCH   2   7
BRANCH   5  10
ATOM     10  C   LIG    1       27.820 -20.250   7.248  0.00  0.00    +0.339 C 
ATOM     11  O   LIG    1       27.781 -20.173   8.465  0.00  0.00    -0.245 OA
BRANCH  10  12
ATOM     12  O   LIG    1       28.909 -20.049   6.466  0.00  0.00    -0.460 OA
BRANCH  12  13
ATOM     13  C   LIG    1       29.711 -18.892   6.787  0.00  0.00    +0.247 C 
BRANCH  13  14
ATOM     14  C   LIG    1       31.187 -19.312   6.943  0.00  0.00    +0.125 C 
BRANCH  14  15
ATOM     15  N   LIG    1       31.792 -19.196   8.284  0.00  0.00    -0.300 NA
BRANCH  15  16
ATOM     16  C   LIG    1       31.134 -20.118   9.245  0.00  0.00    +0.081 C 
ATOM     17  C   LIG    1       31.239 -21.615   8.948  0.00  0.00    +0.020 C 
ENDBRANCH  15  16
BRANCH  15  18
ATOM     18  C   LIG    1       31.827 -17.831   8.837  0.00  0.00    +0.081 C 
ATOM     19  C   LIG    1       30.913 -17.589  10.029  0.00  0.00    +0.020 C 
ENDBRANCH  15  18
ENDBRANCH  14  15
ENDBRANCH  13  14
ENDBRANCH  12  13
ENDBRANCH  10  12
ENDBRANCH   5  10
BRANCH   1  20
ATOM     20  O   LIG    1       23.795 -22.974   6.257  0.00  0.00    -0.490 OA
BRANCH  20  21
ATOM     21  C   LIG    1       24.378 -24.254   6.519  0.00  0.00    +0.229 C 
BRANCH  21  22
ATOM     22  C   LIG    1       24.990 -24.823   5.237  0.00  0.00    +0.041 C 
BRANCH  22  24
ATOM     23  C   LIG    1       25.870 -26.570   6.873  0.00  0.00    +0.004 C 
ATOM     24  C   LIG    1       25.803 -26.105   5.426  0.00  0.00    +0.000 C 
ENDBRANCH  22  24
ENDBRANCH  21  22
ENDBRANCH  20  21
ENDBRANCH   1  20
TORSDOF 12
ENDMDL
MODEL 7
REMARK VINA RESULT:      -7.1      1.845      7.113
REMARK  Name = *****
REMARK                            x       y       z     vdW  Elec       q    Type
REMARK                         _______ _______ _______ _____ _____    ______ ____
ROOT
ATOM      1  C   LIG    1       29.662 -20.173   7.055  0.00  0.00    +0.142 A 
ATOM      2  C   LIG    1       29.146 -19.312   6.063  0.00  0.00    +0.067 A 
ATOM      3  C   LIG    1       27.819 -19.465   5.653  0.00  0.00    +0.027 A 
ATOM      4  C   LIG    1       26.984 -20.401   6.270  0.00  0.00    +0.017 A 
ATOM      5  C   LIG    1       27.509 -21.261   7.245  0.00  0.00    +0.063 A 
ATOM      6  C   LIG    1       28.847 -21.159   7.620  0.00  0.00    +0.062 A 
ENDROOT
BRANCH   2   7
ATOM      7  N   LIG    1       29.997 -18.443   5.357  0.00  0.00    -0.355 N 
ATOM      8  H   LIG    1       30.536 -18.948   4.654  0.00  0.00    +0.142 HD
ATOM      9  H   LIG    1       30.566 -17.849   5.951  0.00  0.00    +0.142 HD
ENDBRANCH   2   7
BRANCH   5  10
ATOM     10  C   LIG    1       26.594 -22.241   7.882  0.00  0.00    +0.339 C 
ATOM     11  O   LIG    1       26.048 -22.055   8.957  0.00  0.00    -0.245 OA
BRANCH  10  12
ATOM     12  O   LIG    1       26.449 -23.331   7.088  0.00  0.00    -0.460 OA
BRANCH  12  13
ATOM     13  C   LIG    1       25.092 -23.698   6.759  0.00  0.00    +0.247 C 
BRANCH  13  14
ATOM     14  C   LIG    1       24.751 -23.204   5.339  0.00  0.00    +0.125 C 
BRANCH  14  15
ATOM     15  N   LIG    1       24.318 -21.802   5.189  0.00  0.00    -0.300 NA
BRANCH  15  16
ATOM     16  C   LIG    1       23.116 -21.525   6.016  0.00  0.00    +0.081 C 
ATOM     17  C   LIG    1       23.300 -20.585   7.209  0.00  0.00    +0.020 C 
ENDBRANCH  15  16
BRANCH  15  18
ATOM     18  C   LIG    1       24.087 -21.366   3.801  0.00  0.00    +0.081 C 
ATOM     19  C   LIG    1       24.490 -19.930   3.495  0.00  0.00    +0.020 C 
ENDBRANCH  15  18
ENDBRANCH  14  15
ENDBRANCH  13  14
ENDBRANCH  12  13
ENDBRANCH  10  12
ENDBRANCH   5  10
BRANCH   1  20
ATOM     20  O   LIG    1       30.981 -19.975   7.410  0.00  0.00    -0.490 OA
BRANCH  20  21
ATOM     21  C   LIG    1       31.200 -19.732   8.803  0.00  0.00    +0.229 C 
BRANCH  21  22
ATOM     22  C   LIG    1       31.364 -18.233   9.054  0.00  0.00    +0.041 C 
BRANCH  22  24
ATOM     23  C   LIG    1       30.814 -16.591  10.927  0.00  0.00    +0.004 C 
ATOM     24  C   LIG    1       30.277 -17.604   9.928  0.00  0.00    +0.000 C 
ENDBRANCH  22  24
ENDBRANCH  21  22
ENDBRANCH  20  21
ENDBRANCH   1  20
TORSDOF 12
ENDMDL
MODEL 8
REMARK VINA RESULT:      -6.9      2.177      7.896
REMARK  Name = *****
REMARK                            x       y       z     vdW  Elec       q    Type
REMARK                         _______ _______ _______ _____ _____    ______ ____
ROOT
ATOM      1  C   LIG    1       31.045 -19.230   7.717  0.00  0.00    +0.142 A 
ATOM      2  C   LIG    1       30.943 -20.503   8.319  0.00  0.00    +0.067 A 
ATOM      3  C   LIG    1       29.853 -21.319   8.003  0.00  0.00    +0.027 A 
ATOM      4  C   LIG    1       28.918 -20.922   7.043  0.00  0.00    +0.017 A 
ATOM      5  C   LIG    1       29.021 -19.652   6.461  0.00  0.00    +0.063 A 
ATOM      6  C   LIG    1       30.069 -18.803   6.813  0.00  0.00    +0.062 A 
ENDROOT
BRANCH   2   7
ATOM      7  N   LIG    1       31.809 -20.872   9.364  0.00  0.00    -0.355 N 
ATOM      8  H   LIG    1       31.581 -21.801   9.719  0.00  0.00    +0.142 HD
ATOM      9  H   LIG    1       31.899 -20.173  10.093  0.00  0.00    +0.142 HD
ENDBRANCH   2   7
BRANCH   5  10
ATOM     10  C   LIG    1       28.012 -19.263   5.444  0.00  0.00    +0.339 C 
ATOM     11  O   LIG    1       28.124 -18.284   4.723  0.00  0.00    -0.245 OA
BRANCH  10  12
ATOM     12  O   LIG    1       26.993 -20.157   5.428  0.00  0.00    -0.460 OA
BRANCH  12  13
ATOM     13  C   LIG    1       25.918 -19.874   4.507  0.00  0.00    +0.247 C 
BRANCH  13  14
ATOM     14  C   LIG    1       24.805 -20.928   4.669  0.00  0.00    +0.125 C 
BRANCH  14  15
ATOM     15  N   LIG    1       23.407 -20.463   4.586  0.00  0.00    -0.300 NA
BRANCH  15  16
ATOM     16  C   LIG    1       23.329 -19.122   3.953  0.00  0.00    +0.081 C 
ATOM     17  C   LIG    1       22.173 -18.218   4.389  0.00  0.00    +0.020 C 
ENDBRANCH  15  16
BRANCH  15  18
ATOM     18  C   LIG    1       22.673 -20.462   5.864  0.00  0.00    +0.081 C 
ATOM     19  C   LIG    1       23.439 -21.025   7.052  0.00  0.00    +0.020 C 
ENDBRANCH  15  18
ENDBRANCH  14  15
ENDBRANCH  13  14
ENDBRANCH  12  13
ENDBRANCH  10  12
ENDBRANCH   5  10
BRANCH   1  20
ATOM     20  O   LIG    1       32.139 -18.471   8.078  0.00  0.00    -0.490 OA
BRANCH  20  21
ATOM     21  C   LIG    1       31.826 -17.221   8.699  0.00  0.00    +0.229 C 
BRANCH  21  22
ATOM     22  C   LIG    1       32.230 -17.254  10.174  0.00  0.00    +0.041 C 
BRANCH  22  24
ATOM     23  C   LIG    1       31.765 -16.186  12.443  0.00  0.00    +0.004 C 
ATOM     24  C   LIG    1       31.177 -16.707  11.141  0.00  0.00    +0.000 C 
ENDBRANCH  22  24
ENDBRANCH  21  22
ENDBRANCH  20  21
ENDBRANCH   1  20
TORSDOF 12
ENDMDL
MODEL 9
REMARK VINA RESULT:      -6.9      4.248      7.754
REMARK  Name = *****
REMARK                            x       y       z     vdW  Elec       q    Type
REMARK                         _______ _______ _______ _____ _____    ______ ____
ROOT
ATOM      1  C   LIG    1       24.029 -21.928   6.860  0.00  0.00    +0.142 A 
ATOM      2  C   LIG    1       25.123 -21.765   7.737  0.00  0.00    +0.067 A 
ATOM      3  C   LIG    1       26.019 -22.824   7.910  0.00  0.00    +0.027 A 
ATOM      4  C   LIG    1       25.888 -24.000   7.167  0.00  0.00    +0.017 A 
ATOM      5  C   LIG    1       24.791 -24.157   6.308  0.00  0.00    +0.063 A 
ATOM      6  C   LIG    1       23.856 -23.133   6.173  0.00  0.00    +0.062 A 
ENDROOT
BRANCH   2   7
ATOM      7  N   LIG    1       25.209 -20.637   8.572  0.00  0.00    -0.355 N 
ATOM      8  H   LIG    1       25.853 -20.801   9.346  0.00  0.00    +0.142 HD
ATOM      9  H   LIG    1       24.310 -20.272   8.867  0.00  0.00    +0.142 HD
ENDBRANCH   2   7
BRANCH   5  10
ATOM     10  C   LIG    1       24.683 -25.418   5.532  0.00  0.00    +0.339 C 
ATOM     11  O   LIG    1       25.166 -25.569   4.421  0.00  0.00    -0.245 OA
BRANCH  10  12
ATOM     12  O   LIG    1       24.004 -26.351   6.245  0.00  0.00    -0.460 OA
BRANCH  12  13
ATOM     13  C   LIG    1       24.742 -27.544   6.586  0.00  0.00    +0.247 C 
BRANCH  13  14
ATOM     14  C   LIG    1       24.110 -28.762   5.885  0.00  0.00    +0.125 C 
BRANCH  14  15
ATOM     15  N   LIG    1       23.886 -29.977   6.693  0.00  0.00    -0.300 NA
BRANCH  15  16
ATOM     16  C   LIG    1       24.511 -29.845   8.034  0.00  0.00    +0.081 C 
ATOM     17  C   LIG    1       23.656 -30.248   9.237  0.00  0.00    +0.020 C 
ENDBRANCH  15  16
BRANCH  15  18
ATOM     18  C   LIG    1       24.312 -31.236   6.058  0.00  0.00    +0.081 C 
ATOM     19  C   LIG    1       25.715 -31.702   6.417  0.00  0.00    +0.020 C 
ENDBRANCH  15  18
ENDBRANCH  14  15
ENDBRANCH  13  14
ENDBRANCH  12  13
ENDBRANCH  10  12
ENDBRANCH   5  10
BRANCH   1  20
ATOM     20  O   LIG    1       23.177 -20.849   6.740  0.00  0.00    -0.490 OA
BRANCH  20  21
ATOM     21  C   LIG    1       22.535 -20.728   5.467  0.00  0.00    +0.229 C 
BRANCH  21  22
ATOM     22  C   LIG    1       22.551 -19.268   5.010  0.00  0.00    +0.041 C 
BRANCH  22  24
ATOM     23  C   LIG    1       24.763 -19.789   3.854  0.00  0.00    +0.004 C 
ATOM     24  C   LIG    1       23.479 -18.974   3.830  0.00  0.00    +0.000 C 
ENDBRANCH  22  24
ENDBRANCH  21  22
ENDBRANCH  20  21
ENDBRANCH   1  20
TORSDOF 12
ENDMDL
