MODEL 1
REMARK VINA RESULT:      -6.4      0.000      0.000
REMARK  Name = *****
REMARK                            x       y       z     vdW  Elec       q    Type
REMARK                         _______ _______ _______ _____ _____    ______ ____
ROOT
ATOM      1  C   LIG    1       22.353 -30.600  11.940  0.00  0.00    +0.064 C 
ATOM      2  C   LIG    1       23.383 -31.453  12.745  0.00  0.00    +0.119 C 
ATOM      3  C   LIG    1       23.732 -32.824  12.160  0.00  0.00    +0.074 C 
ATOM      4  C   LIG    1       23.018 -33.823  13.053  0.00  0.00    +0.239 C 
ATOM      5  O   LIG    1       22.891 -33.181  14.308  0.00  0.00    -0.464 OA
ATOM      6  C   LIG    1       23.365 -32.995  10.699  0.00  0.00    +0.159 C 
ATOM      7  C   LIG    1       21.892 -32.658  10.527  0.00  0.00    -0.011 A 
ATOM      8  C   LIG    1       21.026 -33.530   9.839  0.00  0.00    +0.056 A 
ATOM      9  C   LIG    1       19.731 -33.110   9.617  0.00  0.00    +0.167 A 
ATOM     10  O   LIG    1       18.756 -33.823   8.993  0.00  0.00    -0.453 OA
ATOM     11  C   LIG    1       17.657 -32.884   9.045  0.00  0.00    +0.466 C 
ATOM     12  O   LIG    1       18.026 -31.610   9.611  0.00  0.00    -0.453 OA
ATOM     13  C   LIG    1       19.306 -31.863   9.996  0.00  0.00    +0.167 A 
ATOM     14  C   LIG    1       20.119 -31.000  10.699  0.00  0.00    +0.054 A 
ATOM     15  C   LIG    1       23.009 -31.829  14.162  0.00  0.00    +0.312 C 
ATOM     16  O   LIG    1       22.890 -31.056  15.093  0.00  0.00    -0.251 OA
ATOM     17  C   LIG    1       21.405 -31.434  11.066  0.00  0.00    -0.030 A 
ENDROOT
BRANCH   1  22
ATOM     18  C   LIG    1       21.774 -27.087  13.380  0.00  0.00    +0.165 A 
ATOM     19  C   LIG    1       20.484 -27.204  13.891  0.00  0.00    +0.201 A 
ATOM     20  C   LIG    1       19.815 -28.439  13.892  0.00  0.00    +0.165 A 
ATOM     21  C   LIG    1       20.433 -29.564  13.336  0.00  0.00    +0.053 A 
ATOM     22  C   LIG    1       21.701 -29.453  12.724  0.00  0.00    -0.032 A 
ATOM     23  C   LIG    1       22.362 -28.207  12.782  0.00  0.00    +0.053 A 
BRANCH  18  25
ATOM     24  C   LIG    1       23.846 -26.047  13.853  0.00  0.00    +0.277 C 
ATOM     25  O   LIG    1       22.527 -25.943  13.324  0.00  0.00    -0.491 OA
ENDBRANCH  18  25
BRANCH  19  26
ATOM     26  O   LIG    1       19.797 -26.115  14.366  0.00  0.00    -0.501 OA
ATOM     27  H   LIG    1       19.135 -25.911  13.676  0.00  0.00    +0.292 HD
ENDBRANCH  19  26
BRANCH  20  28
ATOM     28  O   LIG    1       18.558 -28.377  14.439  0.00  0.00    -0.491 OA
ATOM     29  C   LIG    1       17.753 -29.544  14.370  0.00  0.00    +0.277 C 
ENDBRANCH  20  28
ENDBRANCH   1  22
BRANCH   6  30
ATOM     30  O   LIG    1       24.089 -32.086   9.860  0.00  0.00    -0.340 OA
BRANCH  30  31
ATOM     31  C   LIG    1       25.523 -32.075   9.954  0.00  0.00    +0.282 C 
ATOM     32  C   LIG    1       26.223 -32.766   8.760  0.00  0.00    +0.201 C 
ATOM     33  C   LIG    1       26.409 -31.787   7.589  0.00  0.00    +0.179 C 
ATOM     34  C   LIG    1       25.334 -30.695   7.626  0.00  0.00    +0.183 C 
ATOM     35  C   LIG    1       25.449 -29.918   8.958  0.00  0.00    +0.178 C 
ATOM     36  C   LIG    1       26.259 -28.640   8.696  0.00  0.00    +0.197 C 
ATOM     37  O   LIG    1       25.688 -27.832   7.652  0.00  0.00    -0.349 OA
ATOM     38  C   LIG    1       24.824 -28.584   6.800  0.00  0.00    +0.248 C 
ATOM     39  C   LIG    1       24.513 -27.809   5.537  0.00  0.00    +0.070 C 
ATOM     40  O   LIG    1       25.427 -29.837   6.479  0.00  0.00    -0.343 OA
ATOM     41  O   LIG    1       25.982 -30.708  10.023  0.00  0.00    -0.341 OA
BRANCH  32  42
ATOM     42  O   LIG    1       27.499 -33.293   9.160  0.00  0.00    -0.384 OA
ATOM     43  H   LIG    1       27.696 -34.027   8.547  0.00  0.00    +0.210 HD
ENDBRANCH  32  42
BRANCH  33  44
ATOM     44  O   LIG    1       26.324 -32.529   6.354  0.00  0.00    -0.386 OA
ATOM     45  H   LIG    1       25.460 -32.955   6.366  0.00  0.00    +0.210 HD
ENDBRANCH  33  44
ENDBRANCH  30  31
ENDBRANCH   6  30
TORSDOF 8
ENDMDL
MODEL 2
REMARK VINA RESULT:      -6.3      0.462      2.058
REMARK  Name = *****
REMARK                            x       y       z     vdW  Elec       q    Type
REMARK                         _______ _______ _______ _____ _____    ______ ____
ROOT
ATOM      1  C   LIG    1       22.653 -30.370  11.883  0.00  0.00    +0.064 C 
ATOM      2  C   LIG    1       23.682 -31.233  12.679  0.00  0.00    +0.119 C 
ATOM      3  C   LIG    1       23.913 -32.657  12.167  0.00  0.00    +0.074 C 
ATOM      4  C   LIG    1       23.201 -33.552  13.165  0.00  0.00    +0.239 C 
ATOM      5  O   LIG    1       23.192 -32.827  14.380  0.00  0.00    -0.464 OA
ATOM      6  C   LIG    1       23.444 -32.896  10.744  0.00  0.00    +0.159 C 
ATOM      7  C   LIG    1       21.985 -32.480  10.639  0.00  0.00    -0.011 A 
ATOM      8  C   LIG    1       21.028 -33.337  10.064  0.00  0.00    +0.056 A 
ATOM      9  C   LIG    1       19.748 -32.853   9.893  0.00  0.00    +0.167 A 
ATOM     10  O   LIG    1       18.695 -33.541   9.377  0.00  0.00    -0.453 OA
ATOM     11  C   LIG    1       17.659 -32.535   9.433  0.00  0.00    +0.466 C 
ATOM     12  O   LIG    1       18.136 -31.253   9.890  0.00  0.00    -0.453 OA
ATOM     13  C   LIG    1       19.421 -31.560  10.213  0.00  0.00    +0.167 A 
ATOM     14  C   LIG    1       20.326 -30.707  10.808  0.00  0.00    +0.054 A 
ATOM     15  C   LIG    1       23.378 -31.497  14.138  0.00  0.00    +0.312 C 
ATOM     16  O   LIG    1       23.363 -30.661  15.021  0.00  0.00    -0.251 OA
ATOM     17  C   LIG    1       21.606 -31.197  11.125  0.00  0.00    -0.030 A 
ENDROOT
BRANCH   1  22
ATOM     18  C   LIG    1       20.306 -28.136  13.945  0.00  0.00    +0.165 A 
ATOM     19  C   LIG    1       21.136 -27.058  14.240  0.00  0.00    +0.201 A 
ATOM     20  C   LIG    1       22.425 -26.964  13.691  0.00  0.00    +0.165 A 
ATOM     21  C   LIG    1       22.904 -27.987  12.866  0.00  0.00    +0.053 A 
ATOM     22  C   LIG    1       22.121 -29.138  12.627  0.00  0.00    -0.032 A 
ATOM     23  C   LIG    1       20.814 -29.176  13.158  0.00  0.00    +0.053 A 
BRANCH  18  25
ATOM     24  C   LIG    1       18.492 -29.636  14.186  0.00  0.00    +0.277 C 
ATOM     25  O   LIG    1       19.035 -28.339  14.415  0.00  0.00    -0.491 OA
ENDBRANCH  18  25
BRANCH  19  26
ATOM     26  O   LIG    1       20.751 -26.072  15.116  0.00  0.00    -0.501 OA
ATOM     27  H   LIG    1       19.875 -25.778  14.798  0.00  0.00    +0.292 HD
ENDBRANCH  19  26
BRANCH  20  28
ATOM     28  O   LIG    1       23.103 -25.835  14.080  0.00  0.00    -0.491 OA
ATOM     29  C   LIG    1       24.503 -25.798  13.851  0.00  0.00    +0.277 C 
ENDBRANCH  20  28
ENDBRANCH   1  22
BRANCH   6  30
ATOM     30  O   LIG    1       24.165 -32.087   9.806  0.00  0.00    -0.340 OA
BRANCH  30  31
ATOM     31  C   LIG    1       25.598 -32.051   9.903  0.00  0.00    +0.282 C 
ATOM     32  C   LIG    1       26.314 -32.715   8.704  0.00  0.00    +0.201 C 
ATOM     33  C   LIG    1       26.485 -31.719   7.545  0.00  0.00    +0.179 C 
ATOM     34  C   LIG    1       25.390 -30.648   7.592  0.00  0.00    +0.183 C 
ATOM     35  C   LIG    1       25.487 -29.885   8.933  0.00  0.00    +0.178 C 
ATOM     36  C   LIG    1       26.274 -28.589   8.689  0.00  0.00    +0.197 C 
ATOM     37  O   LIG    1       25.692 -27.779   7.653  0.00  0.00    -0.349 OA
ATOM     38  C   LIG    1       24.844 -28.536   6.790  0.00  0.00    +0.248 C 
ATOM     39  C   LIG    1       24.522 -27.752   5.535  0.00  0.00    +0.070 C 
ATOM     40  O   LIG    1       25.471 -29.774   6.455  0.00  0.00    -0.343 OA
ATOM     41  O   LIG    1       26.031 -30.677   9.991  0.00  0.00    -0.341 OA
BRANCH  32  42
ATOM     42  O   LIG    1       27.598 -33.223   9.101  0.00  0.00    -0.384 OA
ATOM     43  H   LIG    1       28.230 -32.935   8.415  0.00  0.00    +0.210 HD
ENDBRANCH  32  42
BRANCH  33  44
ATOM     44  O   LIG    1       26.416 -32.448   6.301  0.00  0.00    -0.386 OA
ATOM     45  H   LIG    1       25.677 -32.067   5.817  0.00  0.00    +0.210 HD
ENDBRANCH  33  44
ENDBRANCH  30  31
ENDBRANCH   6  30
TORSDOF 8
ENDMDL
MODEL 3
REMARK VINA RESULT:      -6.0      1.578      1.956
REMARK  Name = *****
REMARK                            x       y       z     vdW  Elec       q    Type
REMARK                         _______ _______ _______ _____ _____    ______ ____
ROOT
ATOM      1  C   LIG    1       23.761 -30.093  11.562  0.00  0.00    +0.064 C 
ATOM      2  C   LIG    1       24.974 -31.038  11.832  0.00  0.00    +0.119 C 
ATOM      3  C   LIG    1       25.040 -32.315  10.992  0.00  0.00    +0.074 C 
ATOM      4  C   LIG    1       24.647 -33.430  11.944  0.00  0.00    +0.239 C 
ATOM      5  O   LIG    1       24.997 -32.963  13.234  0.00  0.00    -0.464 OA
ATOM      6  C   LIG    1       24.174 -32.293   9.747  0.00  0.00    +0.159 C 
ATOM      7  C   LIG    1       22.750 -31.948  10.154  0.00  0.00    -0.011 A 
ATOM      8  C   LIG    1       21.663 -32.727   9.713  0.00  0.00    +0.056 A 
ATOM      9  C   LIG    1       20.391 -32.292  10.020  0.00  0.00    +0.167 A 
ATOM     10  O   LIG    1       19.230 -32.923   9.697  0.00  0.00    -0.453 OA
ATOM     11  C   LIG    1       18.259 -32.009  10.255  0.00  0.00    +0.466 C 
ATOM     12  O   LIG    1       18.854 -30.818  10.812  0.00  0.00    -0.453 OA
ATOM     13  C   LIG    1       20.176 -31.110  10.681  0.00  0.00    +0.167 A 
ATOM     14  C   LIG    1       21.219 -30.342  11.154  0.00  0.00    +0.054 A 
ATOM     15  C   LIG    1       25.109 -31.603  13.230  0.00  0.00    +0.312 C 
ATOM     16  O   LIG    1       25.357 -30.962  14.233  0.00  0.00    -0.251 OA
ATOM     17  C   LIG    1       22.534 -30.811  10.982  0.00  0.00    -0.030 A 
ENDROOT
BRANCH   1  22
ATOM     18  C   LIG    1       24.077 -26.930  13.717  0.00  0.00    +0.165 A 
ATOM     19  C   LIG    1       22.902 -26.982  14.462  0.00  0.00    +0.201 A 
ATOM     20  C   LIG    1       22.040 -28.087  14.378  0.00  0.00    +0.165 A 
ATOM     21  C   LIG    1       22.339 -29.137  13.504  0.00  0.00    +0.053 A 
ATOM     22  C   LIG    1       23.474 -29.066  12.666  0.00  0.00    -0.032 A 
ATOM     23  C   LIG    1       24.341 -27.963  12.810  0.00  0.00    +0.053 A 
BRANCH  18  25
ATOM     24  C   LIG    1       26.156 -26.132  12.918  0.00  0.00    +0.277 C 
ATOM     25  O   LIG    1       24.995 -25.912  13.713  0.00  0.00    -0.491 OA
ENDBRANCH  18  25
BRANCH  19  26
ATOM     26  O   LIG    1       22.513 -25.939  15.267  0.00  0.00    -0.501 OA
ATOM     27  H   LIG    1       21.579 -25.774  15.035  0.00  0.00    +0.292 HD
ENDBRANCH  19  26
BRANCH  20  28
ATOM     28  O   LIG    1       20.934 -27.978  15.184  0.00  0.00    -0.491 OA
ATOM     29  C   LIG    1       19.662 -27.950  14.555  0.00  0.00    +0.277 C 
ENDBRANCH  20  28
ENDBRANCH   1  22
BRANCH   6  30
ATOM     30  O   LIG    1       24.592 -31.273   8.830  0.00  0.00    -0.340 OA
BRANCH  30  31
ATOM     31  C   LIG    1       25.937 -31.325   8.327  0.00  0.00    +0.282 C 
ATOM     32  C   LIG    1       26.021 -31.698   6.829  0.00  0.00    +0.201 C 
ATOM     33  C   LIG    1       25.861 -30.453   5.941  0.00  0.00    +0.179 C 
ATOM     34  C   LIG    1       25.038 -29.381   6.663  0.00  0.00    +0.183 C 
ATOM     35  C   LIG    1       25.762 -28.982   7.969  0.00  0.00    +0.178 C 
ATOM     36  C   LIG    1       26.565 -27.701   7.697  0.00  0.00    +0.197 C 
ATOM     37  O   LIG    1       25.743 -26.634   7.193  0.00  0.00    -0.349 OA
ATOM     38  C   LIG    1       24.526 -27.115   6.623  0.00  0.00    +0.248 C 
ATOM     39  C   LIG    1       23.851 -26.029   5.812  0.00  0.00    +0.070 C 
ATOM     40  O   LIG    1       24.788 -28.256   5.807  0.00  0.00    -0.343 OA
ATOM     41  O   LIG    1       26.560 -30.036   8.512  0.00  0.00    -0.341 OA
BRANCH  32  42
ATOM     42  O   LIG    1       27.271 -32.344   6.539  0.00  0.00    -0.384 OA
ATOM     43  H   LIG    1       27.570 -32.749   7.375  0.00  0.00    +0.210 HD
ENDBRANCH  32  42
BRANCH  33  44
ATOM     44  O   LIG    1       25.207 -30.845   4.716  0.00  0.00    -0.386 OA
ATOM     45  H   LIG    1       25.684 -31.620   4.403  0.00  0.00    +0.210 HD
ENDBRANCH  33  44
ENDBRANCH  30  31
ENDBRANCH   6  30
TORSDOF 8
ENDMDL
MODEL 4
REMARK VINA RESULT:      -6.0      1.454      2.338
REMARK  Name = *****
REMARK                            x       y       z     vdW  Elec       q    Type
REMARK                         _______ _______ _______ _____ _____    ______ ____
ROOT
ATOM      1  C   LIG    1       22.292 -30.239  12.386  0.00  0.00    +0.064 C 
ATOM      2  C   LIG    1       23.414 -31.024  13.137  0.00  0.00    +0.119 C 
ATOM      3  C   LIG    1       23.939 -32.285  12.447  0.00  0.00    +0.074 C 
ATOM      4  C   LIG    1       23.348 -33.438  13.237  0.00  0.00    +0.239 C 
ATOM      5  O   LIG    1       23.129 -32.927  14.539  0.00  0.00    -0.464 OA
ATOM      6  C   LIG    1       23.610 -32.374  10.969  0.00  0.00    +0.159 C 
ATOM      7  C   LIG    1       22.108 -32.210  10.797  0.00  0.00    -0.011 A 
ATOM      8  C   LIG    1       21.364 -33.120  10.021  0.00  0.00    +0.056 A 
ATOM      9  C   LIG    1       20.030 -32.847   9.809  0.00  0.00    +0.167 A 
ATOM     10  O   LIG    1       19.157 -33.620   9.108  0.00  0.00    -0.453 OA
ATOM     11  C   LIG    1       17.949 -32.833   9.216  0.00  0.00    +0.466 C 
ATOM     12  O   LIG    1       18.149 -31.576   9.895  0.00  0.00    -0.453 OA
ATOM     13  C   LIG    1       19.447 -31.700  10.282  0.00  0.00    +0.167 A 
ATOM     14  C   LIG    1       20.139 -30.806  11.072  0.00  0.00    +0.054 A 
ATOM     15  C   LIG    1       23.078 -31.564  14.510  0.00  0.00    +0.312 C 
ATOM     16  O   LIG    1       22.853 -30.894  15.500  0.00  0.00    -0.251 OA
ATOM     17  C   LIG    1       21.466 -31.107  11.427  0.00  0.00    -0.030 A 
ENDROOT
BRANCH   1  22
ATOM     18  C   LIG    1       21.410 -27.060  14.353  0.00  0.00    +0.165 A 
ATOM     19  C   LIG    1       20.054 -27.253  14.598  0.00  0.00    +0.201 A 
ATOM     20  C   LIG    1       19.416 -28.452  14.245  0.00  0.00    +0.165 A 
ATOM     21  C   LIG    1       20.141 -29.459  13.599  0.00  0.00    +0.053 A 
ATOM     22  C   LIG    1       21.494 -29.254  13.251  0.00  0.00    -0.032 A 
ATOM     23  C   LIG    1       22.113 -28.054  13.662  0.00  0.00    +0.053 A 
BRANCH  18  25
ATOM     24  C   LIG    1       23.424 -26.176  15.225  0.00  0.00    +0.277 C 
ATOM     25  O   LIG    1       22.142 -25.940  14.651  0.00  0.00    -0.491 OA
ENDBRANCH  18  25
BRANCH  19  26
ATOM     26  O   LIG    1       19.275 -26.263  15.148  0.00  0.00    -0.501 OA
ATOM     27  H   LIG    1       18.422 -26.696  15.351  0.00  0.00    +0.292 HD
ENDBRANCH  19  26
BRANCH  20  28
ATOM     28  O   LIG    1       18.082 -28.476  14.566  0.00  0.00    -0.491 OA
ATOM     29  C   LIG    1       17.300 -29.540  14.045  0.00  0.00    +0.277 C 
ENDBRANCH  20  28
ENDBRANCH   1  22
BRANCH   6  30
ATOM     30  O   LIG    1       24.221 -31.313  10.224  0.00  0.00    -0.340 OA
BRANCH  30  31
ATOM     31  C   LIG    1       25.470 -31.580   9.566  0.00  0.00    +0.282 C 
ATOM     32  C   LIG    1       25.751 -30.638   8.372  0.00  0.00    +0.201 C 
ATOM     33  C   LIG    1       26.413 -29.333   8.844  0.00  0.00    +0.179 C 
ATOM     34  C   LIG    1       26.021 -29.026  10.293  0.00  0.00    +0.183 C 
ATOM     35  C   LIG    1       26.489 -30.187  11.200  0.00  0.00    +0.178 C 
ATOM     36  C   LIG    1       27.829 -29.787  11.834  0.00  0.00    +0.197 C 
ATOM     37  O   LIG    1       27.748 -28.545  12.553  0.00  0.00    -0.349 OA
ATOM     38  C   LIG    1       26.637 -27.753  12.137  0.00  0.00    +0.248 C 
ATOM     39  C   LIG    1       26.767 -26.335  12.654  0.00  0.00    +0.070 C 
ATOM     40  O   LIG    1       26.543 -27.756  10.713  0.00  0.00    -0.343 OA
ATOM     41  O   LIG    1       26.546 -31.442  10.520  0.00  0.00    -0.341 OA
BRANCH  32  42
ATOM     42  O   LIG    1       26.592 -31.287   7.405  0.00  0.00    -0.384 OA
ATOM     43  H   LIG    1       27.508 -31.192   7.730  0.00  0.00    +0.210 HD
ENDBRANCH  32  42
BRANCH  33  44
ATOM     44  O   LIG    1       25.988 -28.264   7.974  0.00  0.00    -0.386 OA
ATOM     45  H   LIG    1       26.523 -28.348   7.178  0.00  0.00    +0.210 HD
ENDBRANCH  33  44
ENDBRANCH  30  31
ENDBRANCH   6  30
TORSDOF 8
ENDMDL
MODEL 5
REMARK VINA RESULT:      -5.8      2.302      8.344
REMARK  Name = *****
REMARK                            x       y       z     vdW  Elec       q    Type
REMARK                         _______ _______ _______ _____ _____    ______ ____
ROOT
ATOM      1  C   LIG    1       24.293 -30.204   9.793  0.00  0.00    +0.064 C 
ATOM      2  C   LIG    1       23.198 -31.252  10.167  0.00  0.00    +0.119 C 
ATOM      3  C   LIG    1       23.014 -31.540  11.658  0.00  0.00    +0.074 C 
ATOM      4  C   LIG    1       23.635 -32.909  11.870  0.00  0.00    +0.239 C 
ATOM      5  O   LIG    1       23.533 -33.565  10.620  0.00  0.00    -0.464 OA
ATOM      6  C   LIG    1       23.611 -30.492  12.578  0.00  0.00    +0.159 C 
ATOM      7  C   LIG    1       25.073 -30.298  12.207  0.00  0.00    -0.011 A 
ATOM      8  C   LIG    1       26.079 -30.329  13.192  0.00  0.00    +0.056 A 
ATOM      9  C   LIG    1       27.369 -30.029  12.806  0.00  0.00    +0.167 A 
ATOM     10  O   LIG    1       28.465 -30.031  13.611  0.00  0.00    -0.453 OA
ATOM     11  C   LIG    1       29.491 -29.633  12.673  0.00  0.00    +0.466 C 
ATOM     12  O   LIG    1       28.973 -29.317  11.365  0.00  0.00    -0.453 OA
ATOM     13  C   LIG    1       27.665 -29.653  11.521  0.00  0.00    +0.167 A 
ATOM     14  C   LIG    1       26.708 -29.644  10.528  0.00  0.00    +0.054 A 
ATOM     15  C   LIG    1       23.368 -32.652   9.619  0.00  0.00    +0.312 C 
ATOM     16  O   LIG    1       23.302 -32.969   8.447  0.00  0.00    -0.251 OA
ATOM     17  C   LIG    1       25.406 -30.071  10.842  0.00  0.00    -0.030 A 
ENDROOT
BRANCH   1  22
ATOM     18  C   LIG    1       25.868 -31.488   6.534  0.00  0.00    +0.165 A 
ATOM     19  C   LIG    1       25.422 -30.540   5.617  0.00  0.00    +0.201 A 
ATOM     20  C   LIG    1       24.707 -29.407   6.037  0.00  0.00    +0.165 A 
ATOM     21  C   LIG    1       24.399 -29.242   7.391  0.00  0.00    +0.053 A 
ATOM     22  C   LIG    1       24.755 -30.235   8.330  0.00  0.00    -0.032 A 
ATOM     23  C   LIG    1       25.512 -31.338   7.879  0.00  0.00    +0.053 A 
BRANCH  18  25
ATOM     24  C   LIG    1       27.382 -33.133   7.307  0.00  0.00    +0.277 C 
ATOM     25  O   LIG    1       26.572 -32.629   6.249  0.00  0.00    -0.491 OA
ENDBRANCH  18  25
BRANCH  19  26
ATOM     26  O   LIG    1       25.617 -30.697   4.267  0.00  0.00    -0.501 OA
ATOM     27  H   LIG    1       24.821 -30.315   3.849  0.00  0.00    +0.292 HD
ENDBRANCH  19  26
BRANCH  20  28
ATOM     28  O   LIG    1       24.352 -28.573   5.005  0.00  0.00    -0.491 OA
ATOM     29  C   LIG    1       24.348 -27.177   5.260  0.00  0.00    +0.277 C 
ENDBRANCH  20  28
ENDBRANCH   1  22
BRANCH   6  30
ATOM     30  O   LIG    1       22.977 -29.217  12.409  0.00  0.00    -0.340 OA
BRANCH  30  31
ATOM     31  C   LIG    1       22.916 -28.336  13.543  0.00  0.00    +0.282 C 
ATOM     32  C   LIG    1       22.103 -27.047  13.278  0.00  0.00    +0.201 C 
ATOM     33  C   LIG    1       20.604 -27.281  13.526  0.00  0.00    +0.179 C 
ATOM     34  C   LIG    1       20.247 -28.755  13.306  0.00  0.00    +0.183 C 
ATOM     35  C   LIG    1       21.063 -29.625  14.289  0.00  0.00    +0.178 C 
ATOM     36  C   LIG    1       20.174 -29.940  15.500  0.00  0.00    +0.197 C 
ATOM     37  O   LIG    1       18.938 -30.572  15.125  0.00  0.00    -0.349 OA
ATOM     38  C   LIG    1       18.608 -30.339  13.756  0.00  0.00    +0.248 C 
ATOM     39  C   LIG    1       17.167 -30.719  13.482  0.00  0.00    +0.070 C 
ATOM     40  O   LIG    1       18.832 -28.968  13.428  0.00  0.00    -0.343 OA
ATOM     41  O   LIG    1       22.314 -29.036  14.653  0.00  0.00    -0.341 OA
BRANCH  32  42
ATOM     42  O   LIG    1       22.572 -25.975  14.112  0.00  0.00    -0.384 OA
ATOM     43  H   LIG    1       23.409 -25.666  13.715  0.00  0.00    +0.210 HD
ENDBRANCH  32  42
BRANCH  33  44
ATOM     44  O   LIG    1       19.855 -26.445  12.620  0.00  0.00    -0.386 OA
ATOM     45  H   LIG    1       19.240 -27.034  12.172  0.00  0.00    +0.210 HD
ENDBRANCH  33  44
ENDBRANCH  30  31
ENDBRANCH   6  30
TORSDOF 8
ENDMDL
MODEL 6
REMARK VINA RESULT:      -5.7      2.216      8.288
REMARK  Name = *****
REMARK                            x       y       z     vdW  Elec       q    Type
REMARK                         _______ _______ _______ _____ _____    ______ ____
ROOT
ATOM      1  C   LIG    1       24.294 -30.445  10.164  0.00  0.00    +0.064 C 
ATOM      2  C   LIG    1       23.233 -31.463  10.688  0.00  0.00    +0.119 C 
ATOM      3  C   LIG    1       23.141 -31.627  12.207  0.00  0.00    +0.074 C 
ATOM      4  C   LIG    1       23.787 -32.970  12.494  0.00  0.00    +0.239 C 
ATOM      5  O   LIG    1       23.619 -33.729  11.312  0.00  0.00    -0.464 OA
ATOM      6  C   LIG    1       23.779 -30.502  12.999  0.00  0.00    +0.159 C 
ATOM      7  C   LIG    1       25.215 -30.332  12.527  0.00  0.00    -0.011 A 
ATOM      8  C   LIG    1       26.278 -30.275  13.449  0.00  0.00    +0.056 A 
ATOM      9  C   LIG    1       27.539 -30.001  12.964  0.00  0.00    +0.167 A 
ATOM     10  O   LIG    1       28.680 -29.930  13.700  0.00  0.00    -0.453 OA
ATOM     11  C   LIG    1       29.646 -29.606  12.674  0.00  0.00    +0.466 C 
ATOM     12  O   LIG    1       29.049 -29.404  11.376  0.00  0.00    -0.453 OA
ATOM     13  C   LIG    1       27.755 -29.733  11.637  0.00  0.00    +0.167 A 
ATOM     14  C   LIG    1       26.742 -29.812  10.705  0.00  0.00    +0.054 A 
ATOM     15  C   LIG    1       23.386 -32.904  10.250  0.00  0.00    +0.312 C 
ATOM     16  O   LIG    1       23.255 -33.317   9.114  0.00  0.00    -0.251 OA
ATOM     17  C   LIG    1       25.465 -30.218  11.131  0.00  0.00    -0.030 A 
ENDROOT
BRANCH   1  22
ATOM     18  C   LIG    1       24.474 -29.723   6.396  0.00  0.00    +0.165 A 
ATOM     19  C   LIG    1       25.484 -30.593   5.995  0.00  0.00    +0.201 A 
ATOM     20  C   LIG    1       26.049 -31.511   6.893  0.00  0.00    +0.165 A 
ATOM     21  C   LIG    1       25.624 -31.531   8.226  0.00  0.00    +0.053 A 
ATOM     22  C   LIG    1       24.670 -30.596   8.684  0.00  0.00    -0.032 A 
ATOM     23  C   LIG    1       24.091 -29.718   7.743  0.00  0.00    +0.053 A 
BRANCH  18  25
ATOM     24  C   LIG    1       24.400 -27.475   5.659  0.00  0.00    +0.277 C 
ATOM     25  O   LIG    1       23.846 -28.787   5.616  0.00  0.00    -0.491 OA
ENDBRANCH  18  25
BRANCH  19  26
ATOM     26  O   LIG    1       26.003 -30.555   4.723  0.00  0.00    -0.501 OA
ATOM     27  H   LIG    1       26.019 -29.607   4.484  0.00  0.00    +0.292 HD
ENDBRANCH  19  26
BRANCH  20  28
ATOM     28  O   LIG    1       27.025 -32.296   6.330  0.00  0.00    -0.491 OA
ATOM     29  C   LIG    1       26.734 -33.673   6.144  0.00  0.00    +0.277 C 
ENDBRANCH  20  28
ENDBRANCH   1  22
BRANCH   6  30
ATOM     30  O   LIG    1       23.124 -29.250  12.763  0.00  0.00    -0.340 OA
BRANCH  30  31
ATOM     31  C   LIG    1       22.896 -28.383  13.885  0.00  0.00    +0.282 C 
ATOM     32  C   LIG    1       22.069 -27.124  13.534  0.00  0.00    +0.201 C 
ATOM     33  C   LIG    1       20.561 -27.417  13.603  0.00  0.00    +0.179 C 
ATOM     34  C   LIG    1       20.291 -28.902  13.335  0.00  0.00    +0.183 C 
ATOM     35  C   LIG    1       21.021 -29.749  14.403  0.00  0.00    +0.178 C 
ATOM     36  C   LIG    1       20.009 -30.110  15.499  0.00  0.00    +0.197 C 
ATOM     37  O   LIG    1       18.851 -30.786  14.978  0.00  0.00    -0.349 OA
ATOM     38  C   LIG    1       18.674 -30.553  13.581  0.00  0.00    +0.248 C 
ATOM     39  C   LIG    1       17.292 -30.985  13.139  0.00  0.00    +0.070 C 
ATOM     40  O   LIG    1       18.882 -29.171  13.288  0.00  0.00    -0.343 OA
ATOM     41  O   LIG    1       22.195 -29.116  14.914  0.00  0.00    -0.341 OA
BRANCH  32  42
ATOM     42  O   LIG    1       22.394 -26.042  14.422  0.00  0.00    -0.384 OA
ATOM     43  H   LIG    1       22.820 -25.356  13.873  0.00  0.00    +0.210 HD
ENDBRANCH  32  42
BRANCH  33  44
ATOM     44  O   LIG    1       19.891 -26.602  12.619  0.00  0.00    -0.386 OA
ATOM     45  H   LIG    1       20.091 -25.691  12.856  0.00  0.00    +0.210 HD
ENDBRANCH  33  44
ENDBRANCH  30  31
ENDBRANCH   6  30
TORSDOF 8
ENDMDL
MODEL 7
REMARK VINA RESULT:      -5.4      2.207      3.521
REMARK  Name = *****
REMARK                            x       y       z     vdW  Elec       q    Type
REMARK                         _______ _______ _______ _____ _____    ______ ____
ROOT
ATOM      1  C   LIG    1       24.404 -30.090  11.166  0.00  0.00    +0.064 C 
ATOM      2  C   LIG    1       25.588 -31.082  11.393  0.00  0.00    +0.119 C 
ATOM      3  C   LIG    1       25.546 -32.384  10.588  0.00  0.00    +0.074 C 
ATOM      4  C   LIG    1       25.161 -33.453  11.595  0.00  0.00    +0.239 C 
ATOM      5  O   LIG    1       25.609 -32.968  12.847  0.00  0.00    -0.464 OA
ATOM      6  C   LIG    1       24.609 -32.354   9.396  0.00  0.00    +0.159 C 
ATOM      7  C   LIG    1       23.229 -31.933   9.875  0.00  0.00    -0.011 A 
ATOM      8  C   LIG    1       22.083 -32.672   9.522  0.00  0.00    +0.056 A 
ATOM      9  C   LIG    1       20.853 -32.170   9.891  0.00  0.00    +0.167 A 
ATOM     10  O   LIG    1       19.648 -32.755   9.656  0.00  0.00    -0.453 OA
ATOM     11  C   LIG    1       18.754 -31.782  10.242  0.00  0.00    +0.466 C 
ATOM     12  O   LIG    1       19.434 -30.606  10.727  0.00  0.00    -0.453 OA
ATOM     13  C   LIG    1       20.731 -30.962  10.528  0.00  0.00    +0.167 A 
ATOM     14  C   LIG    1       21.834 -30.231  10.916  0.00  0.00    +0.054 A 
ATOM     15  C   LIG    1       25.782 -31.615  12.796  0.00  0.00    +0.312 C 
ATOM     16  O   LIG    1       26.117 -30.960  13.763  0.00  0.00    -0.251 OA
ATOM     17  C   LIG    1       23.114 -30.765  10.681  0.00  0.00    -0.030 A 
ENDROOT
BRANCH   1  22
ATOM     18  C   LIG    1       25.211 -27.132  13.479  0.00  0.00    +0.165 A 
ATOM     19  C   LIG    1       23.961 -26.857  14.025  0.00  0.00    +0.201 A 
ATOM     20  C   LIG    1       22.856 -27.680  13.758  0.00  0.00    +0.165 A 
ATOM     21  C   LIG    1       22.998 -28.774  12.897  0.00  0.00    +0.053 A 
ATOM     22  C   LIG    1       24.231 -29.021  12.254  0.00  0.00    -0.032 A 
ATOM     23  C   LIG    1       25.330 -28.200  12.581  0.00  0.00    +0.053 A 
BRANCH  18  25
ATOM     24  C   LIG    1       26.322 -25.060  13.203  0.00  0.00    +0.277 C 
ATOM     25  O   LIG    1       26.360 -26.407  13.665  0.00  0.00    -0.491 OA
ENDBRANCH  18  25
BRANCH  19  26
ATOM     26  O   LIG    1       23.744 -25.745  14.803  0.00  0.00    -0.501 OA
ATOM     27  H   LIG    1       23.792 -24.990  14.185  0.00  0.00    +0.292 HD
ENDBRANCH  19  26
BRANCH  20  28
ATOM     28  O   LIG    1       21.705 -27.269  14.382  0.00  0.00    -0.491 OA
ATOM     29  C   LIG    1       20.504 -27.955  14.064  0.00  0.00    +0.277 C 
ENDBRANCH  20  28
ENDBRANCH   1  22
BRANCH   6  30
ATOM     30  O   LIG    1       25.016 -31.381   8.426  0.00  0.00    -0.340 OA
BRANCH  30  31
ATOM     31  C   LIG    1       24.009 -30.818   7.568  0.00  0.00    +0.282 C 
ATOM     32  C   LIG    1       24.508 -29.608   6.745  0.00  0.00    +0.201 C 
ATOM     33  C   LIG    1       25.190 -30.068   5.446  0.00  0.00    +0.179 C 
ATOM     34  C   LIG    1       25.775 -31.475   5.617  0.00  0.00    +0.183 C 
ATOM     35  C   LIG    1       24.633 -32.458   5.965  0.00  0.00    +0.178 C 
ATOM     36  C   LIG    1       24.199 -33.161   4.671  0.00  0.00    +0.197 C 
ATOM     37  O   LIG    1       25.292 -33.822   4.011  0.00  0.00    -0.349 OA
ATOM     38  C   LIG    1       26.559 -33.302   4.414  0.00  0.00    +0.248 C 
ATOM     39  C   LIG    1       27.651 -33.768   3.474  0.00  0.00    +0.070 C 
ATOM     40  O   LIG    1       26.509 -31.876   4.450  0.00  0.00    -0.343 OA
ATOM     41  O   LIG    1       23.547 -31.834   6.652  0.00  0.00    -0.341 OA
BRANCH  32  42
ATOM     42  O   LIG    1       23.417 -28.725   6.434  0.00  0.00    -0.384 OA
ATOM     43  H   LIG    1       23.776 -27.819   6.485  0.00  0.00    +0.210 HD
ENDBRANCH  32  42
BRANCH  33  44
ATOM     44  O   LIG    1       26.236 -29.129   5.121  0.00  0.00    -0.386 OA
ATOM     45  H   LIG    1       26.955 -29.657   4.759  0.00  0.00    +0.210 HD
ENDBRANCH  33  44
ENDBRANCH  30  31
ENDBRANCH   6  30
TORSDOF 8
ENDMDL
MODEL 8
REMARK VINA RESULT:      -5.4      1.319      2.949
REMARK  Name = *****
REMARK                            x       y       z     vdW  Elec       q    Type
REMARK                         _______ _______ _______ _____ _____    ______ ____
ROOT
ATOM      1  C   LIG    1       22.237 -30.290  11.864  0.00  0.00    +0.064 C 
ATOM      2  C   LIG    1       23.401 -31.035  12.590  0.00  0.00    +0.119 C 
ATOM      3  C   LIG    1       23.903 -32.320  11.927  0.00  0.00    +0.074 C 
ATOM      4  C   LIG    1       23.361 -33.444  12.792  0.00  0.00    +0.239 C 
ATOM      5  O   LIG    1       23.202 -32.881  14.081  0.00  0.00    -0.464 OA
ATOM      6  C   LIG    1       23.503 -32.473  10.472  0.00  0.00    +0.159 C 
ATOM      7  C   LIG    1       21.993 -32.326  10.367  0.00  0.00    -0.011 A 
ATOM      8  C   LIG    1       21.220 -33.273   9.666  0.00  0.00    +0.056 A 
ATOM      9  C   LIG    1       19.875 -33.018   9.509  0.00  0.00    +0.167 A 
ATOM     10  O   LIG    1       18.976 -33.825   8.884  0.00  0.00    -0.453 OA
ATOM     11  C   LIG    1       17.768 -33.043   9.019  0.00  0.00    +0.466 C 
ATOM     12  O   LIG    1       17.989 -31.757   9.635  0.00  0.00    -0.453 OA
ATOM     13  C   LIG    1       19.305 -31.856   9.963  0.00  0.00    +0.167 A 
ATOM     14  C   LIG    1       20.027 -30.926  10.681  0.00  0.00    +0.054 A 
ATOM     15  C   LIG    1       23.137 -31.521  13.999  0.00  0.00    +0.312 C 
ATOM     16  O   LIG    1       22.955 -30.812  14.970  0.00  0.00    -0.251 OA
ATOM     17  C   LIG    1       21.373 -31.203  10.982  0.00  0.00    -0.030 A 
ENDROOT
BRANCH   1  22
ATOM     18  C   LIG    1       19.443 -28.755  14.005  0.00  0.00    +0.165 A 
ATOM     19  C   LIG    1       20.076 -27.630  14.524  0.00  0.00    +0.201 A 
ATOM     20  C   LIG    1       21.369 -27.271  14.111  0.00  0.00    +0.165 A 
ATOM     21  C   LIG    1       22.054 -28.076  13.194  0.00  0.00    +0.053 A 
ATOM     22  C   LIG    1       21.474 -29.275  12.725  0.00  0.00    -0.032 A 
ATOM     23  C   LIG    1       20.155 -29.580  13.126  0.00  0.00    +0.053 A 
BRANCH  18  25
ATOM     24  C   LIG    1       17.745 -30.356  13.613  0.00  0.00    +0.277 C 
ATOM     25  O   LIG    1       18.189 -29.206  14.326  0.00  0.00    -0.491 OA
ENDBRANCH  18  25
BRANCH  19  26
ATOM     26  O   LIG    1       19.487 -26.855  15.493  0.00  0.00    -0.501 OA
ATOM     27  H   LIG    1       18.704 -27.363  15.782  0.00  0.00    +0.292 HD
ENDBRANCH  19  26
BRANCH  20  28
ATOM     28  O   LIG    1       21.839 -26.131  14.715  0.00  0.00    -0.491 OA
ATOM     29  C   LIG    1       23.245 -25.943  14.760  0.00  0.00    +0.277 C 
ENDBRANCH  20  28
ENDBRANCH   1  22
BRANCH   6  30
ATOM     30  O   LIG    1       24.068 -31.439   9.655  0.00  0.00    -0.340 OA
BRANCH  30  31
ATOM     31  C   LIG    1       25.290 -31.723   8.955  0.00  0.00    +0.282 C 
ATOM     32  C   LIG    1       25.587 -30.728   7.808  0.00  0.00    +0.201 C 
ATOM     33  C   LIG    1       26.316 -29.481   8.336  0.00  0.00    +0.179 C 
ATOM     34  C   LIG    1       25.969 -29.240   9.809  0.00  0.00    +0.183 C 
ATOM     35  C   LIG    1       26.403 -30.469  10.639  0.00  0.00    +0.178 C 
ATOM     36  C   LIG    1       27.773 -30.164  11.262  0.00  0.00    +0.197 C 
ATOM     37  O   LIG    1       27.762 -28.962  12.051  0.00  0.00    -0.349 OA
ATOM     38  C   LIG    1       26.678 -28.100  11.706  0.00  0.00    +0.248 C 
ATOM     39  C   LIG    1       26.883 -26.722  12.298  0.00  0.00    +0.070 C 
ATOM     40  O   LIG    1       26.555 -28.019  10.286  0.00  0.00    -0.343 OA
ATOM     41  O   LIG    1       26.390 -31.685   9.889  0.00  0.00    -0.341 OA
BRANCH  32  42
ATOM     42  O   LIG    1       26.378 -31.357   6.787  0.00  0.00    -0.384 OA
ATOM     43  H   LIG    1       27.207 -31.640   7.218  0.00  0.00    +0.210 HD
ENDBRANCH  32  42
BRANCH  33  44
ATOM     44  O   LIG    1       25.920 -28.347   7.537  0.00  0.00    -0.386 OA
ATOM     45  H   LIG    1       25.775 -28.692   6.651  0.00  0.00    +0.210 HD
ENDBRANCH  33  44
ENDBRANCH  30  31
ENDBRANCH   6  30
TORSDOF 8
ENDMDL
MODEL 9
REMARK VINA RESULT:      -5.3      2.095      5.871
REMARK  Name = *****
REMARK                            x       y       z     vdW  Elec       q    Type
REMARK                         _______ _______ _______ _____ _____    ______ ____
ROOT
ATOM      1  C   LIG    1       23.264 -30.590  11.605  0.00  0.00    +0.064 C 
ATOM      2  C   LIG    1       24.007 -31.330  12.761  0.00  0.00    +0.119 C 
ATOM      3  C   LIG    1       25.528 -31.436  12.633  0.00  0.00    +0.074 C 
ATOM      4  C   LIG    1       25.789 -32.884  12.260  0.00  0.00    +0.239 C 
ATOM      5  O   LIG    1       24.694 -33.610  12.786  0.00  0.00    -0.464 OA
ATOM      6  C   LIG    1       26.143 -30.468  11.640  0.00  0.00    +0.159 C 
ATOM      7  C   LIG    1       25.442 -30.638  10.301  0.00  0.00    -0.011 A 
ATOM      8  C   LIG    1       26.181 -30.804   9.114  0.00  0.00    +0.056 A 
ATOM      9  C   LIG    1       25.488 -30.835   7.922  0.00  0.00    +0.167 A 
ATOM     10  O   LIG    1       26.029 -31.008   6.686  0.00  0.00    -0.453 OA
ATOM     11  C   LIG    1       24.847 -30.934   5.858  0.00  0.00    +0.466 C 
ATOM     12  O   LIG    1       23.650 -30.630   6.603  0.00  0.00    -0.453 OA
ATOM     13  C   LIG    1       24.130 -30.651   7.876  0.00  0.00    +0.167 A 
ATOM     14  C   LIG    1       23.375 -30.519   9.022  0.00  0.00    +0.054 A 
ATOM     15  C   LIG    1       23.635 -32.777  13.005  0.00  0.00    +0.312 C 
ATOM     16  O   LIG    1       22.560 -33.174  13.411  0.00  0.00    -0.251 OA
ATOM     17  C   LIG    1       24.019 -30.614  10.268  0.00  0.00    -0.030 A 
ENDROOT
BRANCH   1  22
ATOM     18  C   LIG    1       19.932 -32.183  10.549  0.00  0.00    +0.165 A 
ATOM     19  C   LIG    1       19.052 -31.623  11.471  0.00  0.00    +0.201 A 
ATOM     20  C   LIG    1       19.479 -30.638  12.375  0.00  0.00    +0.165 A 
ATOM     21  C   LIG    1       20.819 -30.236  12.382  0.00  0.00    +0.053 A 
ATOM     22  C   LIG    1       21.755 -30.855  11.523  0.00  0.00    -0.032 A 
ATOM     23  C   LIG    1       21.280 -31.809  10.598  0.00  0.00    +0.053 A 
BRANCH  18  25
ATOM     24  C   LIG    1       20.755 -33.824   9.056  0.00  0.00    +0.277 C 
ATOM     25  O   LIG    1       19.636 -33.146   9.620  0.00  0.00    -0.491 OA
ENDBRANCH  18  25
BRANCH  19  26
ATOM     26  O   LIG    1       17.749 -32.046  11.569  0.00  0.00    -0.501 OA
ATOM     27  H   LIG    1       17.806 -32.999  11.775  0.00  0.00    +0.292 HD
ENDBRANCH  19  26
BRANCH  20  28
ATOM     28  O   LIG    1       18.482 -30.191  13.206  0.00  0.00    -0.491 OA
ATOM     29  C   LIG    1       18.869 -29.486  14.376  0.00  0.00    +0.277 C 
ENDBRANCH  20  28
ENDBRANCH   1  22
BRANCH   6  30
ATOM     30  O   LIG    1       25.939 -29.105  12.033  0.00  0.00    -0.340 OA
BRANCH  30  31
ATOM     31  C   LIG    1       26.602 -28.637  13.219  0.00  0.00    +0.282 C 
ATOM     32  C   LIG    1       26.926 -27.125  13.187  0.00  0.00    +0.201 C 
ATOM     33  C   LIG    1       25.726 -26.294  13.671  0.00  0.00    +0.179 C 
ATOM     34  C   LIG    1       24.415 -27.045  13.413  0.00  0.00    +0.183 C 
ATOM     35  C   LIG    1       24.442 -28.387  14.179  0.00  0.00    +0.178 C 
ATOM     36  C   LIG    1       23.682 -28.199  15.500  0.00  0.00    +0.197 C 
ATOM     37  O   LIG    1       22.339 -27.725  15.298  0.00  0.00    -0.349 OA
ATOM     38  C   LIG    1       22.174 -27.100  14.025  0.00  0.00    +0.248 C 
ATOM     39  C   LIG    1       20.874 -26.324  13.976  0.00  0.00    +0.070 C 
ATOM     40  O   LIG    1       23.279 -26.237  13.759  0.00  0.00    -0.343 OA
ATOM     41  O   LIG    1       25.763 -28.900  14.364  0.00  0.00    -0.341 OA
BRANCH  32  42
ATOM     42  O   LIG    1       28.075 -26.837  14.001  0.00  0.00    -0.384 OA
ATOM     43  H   LIG    1       28.345 -25.926  13.780  0.00  0.00    +0.210 HD
ENDBRANCH  32  42
BRANCH  33  44
ATOM     44  O   LIG    1       25.727 -25.035  12.966  0.00  0.00    -0.386 OA
ATOM     45  H   LIG    1       26.495 -25.063  12.386  0.00  0.00    +0.210 HD
ENDBRANCH  33  44
ENDBRANCH  30  31
ENDBRANCH   6  30
TORSDOF 8
ENDMDL
