MODEL 1
REMARK VINA RESULT:       1.9      0.000      0.000
REMARK  Name = *****
REMARK                            x       y       z     vdW  Elec       q    Type
REMARK                         _______ _______ _______ _____ _____    ______ ____
ROOT
ATOM      1  C   LIG    1       24.522 -13.686   3.408  0.00  0.00    +0.065 C 
ATOM      2  C   LIG    1       24.505 -15.218   3.500  0.00  0.00    +0.102 C 
ATOM      3  C   LIG    1       23.391 -15.749   4.419  0.00  0.00    +0.065 C 
ATOM      4  C   LIG    1       22.828 -14.930   5.336  0.00  0.00    +0.016 C 
ATOM      5  C   LIG    1       21.856 -15.354   6.408  0.00  0.00    +0.061 C 
ATOM      6  N   LIG    1       23.143 -13.585   5.327  0.00  0.00    -0.321 N 
ATOM      7  H   LIG    1       22.757 -13.012   6.072  0.00  0.00    +0.152 HD
ATOM      8  C   LIG    1       23.874 -12.946   4.336  0.00  0.00    +0.016 C 
ATOM      9  C   LIG    1       23.957 -11.447   4.468  0.00  0.00    +0.061 C 
ENDROOT
BRANCH   2  10
ATOM     10  C   LIG    1       25.883 -15.813   3.876  0.00  0.00    +0.042 A 
ATOM     11  C   LIG    1       26.862 -15.221   4.703  0.00  0.00    +0.277 A 
ATOM     12  C   LIG    1       28.070 -15.865   5.027  0.00  0.00    +0.084 A 
ATOM     13  C   LIG    1       28.329 -17.135   4.530  0.00  0.00    +0.007 A 
ATOM     14  C   LIG    1       27.404 -17.737   3.683  0.00  0.00    +0.001 A 
ATOM     15  C   LIG    1       26.211 -17.083   3.350  0.00  0.00    +0.011 A 
BRANCH  11  16
ATOM     16  N   LIG    1       26.736 -13.886   5.252  0.00  0.00    +0.080 N 
ATOM     17  O   LIG    1       27.449 -13.009   4.744  0.00  0.00    -0.576 OA
ATOM     18  O   LIG    1       26.008 -13.746   6.242  0.00  0.00    +0.042 OA
ENDBRANCH  11  16
ENDBRANCH   2  10
BRANCH   1  19
ATOM     19  C   LIG    1       25.250 -13.038   2.266  0.00  0.00    +0.337 C 
ATOM     20  O   LIG    1       25.011 -11.944   1.812  0.00  0.00    -0.245 OA
BRANCH  19  22
ATOM     21  C   LIG    1       27.562 -13.493   2.020  0.00  0.00    +0.280 C 
ATOM     22  O   LIG    1       26.209 -13.900   1.813  0.00  0.00    -0.465 OA
ENDBRANCH  19  22
ENDBRANCH   1  19
BRANCH   3  23
ATOM     23  C   LIG    1       22.868 -17.122   4.130  0.00  0.00    +0.338 C 
ATOM     24  O   LIG    1       21.687 -17.407   4.076  0.00  0.00    -0.245 OA
BRANCH  23  25
ATOM     25  O   LIG    1       23.893 -18.019   4.141  0.00  0.00    -0.461 OA
BRANCH  25  26
ATOM     26  C   LIG    1       23.641 -19.362   3.705  0.00  0.00    +0.235 C 
BRANCH  26  27
ATOM     27  C   LIG    1       23.916 -20.403   4.802  0.00  0.00    +0.021 C 
ATOM     28  C   LIG    1       23.006 -20.244   6.022  0.00  0.00    +0.010 C 
ATOM     29  C   LIG    1       25.379 -20.377   5.236  0.00  0.00    +0.010 C 
ENDBRANCH  26  27
ENDBRANCH  25  26
ENDBRANCH  23  25
ENDBRANCH   3  23
TORSDOF 8
ENDMDL
MODEL 2
REMARK VINA RESULT:       3.1      2.230      3.612
REMARK  Name = *****
REMARK                            x       y       z     vdW  Elec       q    Type
REMARK                         _______ _______ _______ _____ _____    ______ ____
ROOT
ATOM      1  C   LIG    1       25.816 -15.945   3.504  0.00  0.00    +0.065 C 
ATOM      2  C   LIG    1       25.986 -17.464   3.371  0.00  0.00    +0.102 C 
ATOM      3  C   LIG    1       24.661 -18.230   3.523  0.00  0.00    +0.065 C 
ATOM      4  C   LIG    1       23.606 -17.638   4.129  0.00  0.00    +0.016 C 
ATOM      5  C   LIG    1       22.312 -18.318   4.496  0.00  0.00    +0.061 C 
ATOM      6  N   LIG    1       23.680 -16.298   4.458  0.00  0.00    -0.321 N 
ATOM      7  H   LIG    1       22.899 -15.902   4.974  0.00  0.00    +0.152 HD
ATOM      8  C   LIG    1       24.695 -15.438   4.066  0.00  0.00    +0.016 C 
ATOM      9  C   LIG    1       24.477 -13.988   4.418  0.00  0.00    +0.061 C 
ENDROOT
BRANCH   2  10
ATOM     10  C   LIG    1       27.079 -18.031   4.309  0.00  0.00    +0.042 A 
ATOM     11  C   LIG    1       27.000 -19.208   5.084  0.00  0.00    +0.277 A 
ATOM     12  C   LIG    1       28.071 -19.669   5.872  0.00  0.00    +0.084 A 
ATOM     13  C   LIG    1       29.262 -18.958   5.901  0.00  0.00    +0.007 A 
ATOM     14  C   LIG    1       29.367 -17.774   5.178  0.00  0.00    +0.001 A 
ATOM     15  C   LIG    1       28.291 -17.312   4.409  0.00  0.00    +0.011 A 
BRANCH  11  16
ATOM     16  N   LIG    1       25.803 -20.019   5.177  0.00  0.00    +0.080 N 
ATOM     17  O   LIG    1       24.958 -19.666   6.013  0.00  0.00    -0.576 OA
ATOM     18  O   LIG    1       25.761 -21.050   4.494  0.00  0.00    +0.042 OA
ENDBRANCH  11  16
ENDBRANCH   2  10
BRANCH   1  19
ATOM     19  C   LIG    1       26.900 -15.047   2.983  0.00  0.00    +0.337 C 
ATOM     20  O   LIG    1       27.020 -14.682   1.838  0.00  0.00    -0.245 OA
BRANCH  19  22
ATOM     21  C   LIG    1       28.180 -13.375   4.069  0.00  0.00    +0.280 C 
ATOM     22  O   LIG    1       27.741 -14.734   4.014  0.00  0.00    -0.465 OA
ENDBRANCH  19  22
ENDBRANCH   1  19
BRANCH   3  23
ATOM     23  C   LIG    1       24.557 -19.554   2.831  0.00  0.00    +0.338 C 
ATOM     24  O   LIG    1       25.359 -19.964   2.014  0.00  0.00    -0.245 OA
BRANCH  23  25
ATOM     25  O   LIG    1       23.349 -20.123   3.100  0.00  0.00    -0.461 OA
BRANCH  25  26
ATOM     26  C   LIG    1       23.316 -21.429   3.694  0.00  0.00    +0.235 C 
BRANCH  26  27
ATOM     27  C   LIG    1       22.208 -21.572   4.749  0.00  0.00    +0.021 C 
ATOM     28  C   LIG    1       20.955 -20.757   4.418  0.00  0.00    +0.010 C 
ATOM     29  C   LIG    1       22.716 -21.202   6.140  0.00  0.00    +0.010 C 
ENDBRANCH  26  27
ENDBRANCH  25  26
ENDBRANCH  23  25
ENDBRANCH   3  23
TORSDOF 8
ENDMDL
