MODEL 1
REMARK VINA RESULT:      -6.8      0.000      0.000
REMARK  Name = *****
REMARK                            x       y       z     vdW  Elec       q    Type
REMARK                         _______ _______ _______ _____ _____    ______ ____
ROOT
ATOM      1  C   LIG    1       26.073 -26.190   6.076  0.00  0.00    +0.169 C 
ATOM      2  C   LIG    1       26.189 -26.986   4.846  0.00  0.00    +0.084 C 
ATOM      3  C   LIG    1       25.165 -28.016   4.606  0.00  0.00    +0.042 C 
ATOM      4  C   LIG    1       24.253 -28.248   5.749  0.00  0.00    +0.084 C 
ATOM      5  C   LIG    1       25.218 -28.524   6.932  0.00  0.00    +0.169 C 
ATOM      6  C   LIG    1       26.211 -27.308   7.170  0.00  0.00    +0.175 C 
ENDROOT
BRANCH   2   7
ATOM      7  N   LIG    1       27.603 -27.311   4.760  0.00  0.00    -0.325 NA
ATOM      8  H   LIG    1       27.556 -27.830   3.929  0.00  0.00    +0.118 HD
ATOM      9  H   LIG    1       27.896 -28.058   5.356  0.00  0.00    +0.118 HD
ENDBRANCH   2   7
BRANCH   4  10
ATOM     10  N   LIG    1       23.204 -29.233   5.457  0.00  0.00    -0.325 NA
ATOM     11  H   LIG    1       23.022 -29.721   6.338  0.00  0.00    +0.118 HD
ATOM     12  H   LIG    1       23.484 -30.000   4.851  0.00  0.00    +0.118 HD
ENDBRANCH   4  10
BRANCH   6  13
ATOM     13  O   LIG    1       26.173 -26.685   8.437  0.00  0.00    -0.387 OA
ATOM     14  H   LIG    1       26.812 -27.196   8.974  0.00  0.00    +0.210 HD
ENDBRANCH   6  13
BRANCH   1  15
ATOM     15  O   LIG    1       24.891 -25.443   5.966  0.00  0.00    -0.342 OA
BRANCH  15  18
ATOM     16  C   LIG    1       26.075 -22.403   6.564  0.00  0.00    +0.138 C 
ATOM     17  O   LIG    1       25.746 -23.587   7.307  0.00  0.00    -0.345 OA
ATOM     18  C   LIG    1       24.600 -24.338   6.880  0.00  0.00    +0.268 C 
ATOM     19  C   LIG    1       23.385 -23.309   6.737  0.00  0.00    +0.107 C 
ATOM     20  C   LIG    1       23.673 -22.128   5.764  0.00  0.00    +0.026 C 
ATOM     21  C   LIG    1       25.190 -22.104   5.368  0.00  0.00    +0.035 C 
BRANCH  19  22
ATOM     22  N   LIG    1       22.013 -23.830   6.671  0.00  0.00    -0.323 NA
ATOM     23  H   LIG    1       21.388 -23.412   7.354  0.00  0.00    +0.119 HD
ATOM     24  H   LIG    1       21.589 -23.664   5.760  0.00  0.00    +0.119 HD
ENDBRANCH  19  22
BRANCH  16  25
ATOM     25  C   LIG    1       26.031 -21.069   7.320  0.00  0.00    +0.079 C 
ATOM     26  C   LIG    1       25.810 -21.242   8.796  0.00  0.00    +0.026 C 
BRANCH  25  28
ATOM     27  C   LIG    1       28.500 -21.097   7.323  0.00  0.00    +0.101 C 
ATOM     28  N   LIG    1       27.297 -20.397   6.983  0.00  0.00    -0.314 NA
ATOM     29  H   LIG    1       27.301 -20.019   6.039  0.00  0.00    +0.122 HD
ENDBRANCH  25  28
ENDBRANCH  16  25
ENDBRANCH  15  18
ENDBRANCH   1  15
BRANCH   5  30
ATOM     30  O   LIG    1       25.864 -29.836   6.755  0.00  0.00    -0.341 OA
BRANCH  30  31
ATOM     31  C   LIG    1       25.631 -31.053   7.550  0.00  0.00    +0.281 C 
ATOM     32  C   LIG    1       26.617 -31.371   8.836  0.00  0.00    +0.190 C 
ATOM     33  C   LIG    1       25.981 -32.409   9.821  0.00  0.00    +0.121 C 
ATOM     34  C   LIG    1       24.419 -32.493  10.045  0.00  0.00    +0.104 C 
ATOM     35  C   LIG    1       23.912 -31.496  11.253  0.00  0.00    +0.045 C 
ATOM     36  C   LIG    1       23.766 -32.461   8.578  0.00  0.00    +0.199 C 
ATOM     37  O   LIG    1       24.235 -31.400   7.689  0.00  0.00    -0.346 OA
BRANCH  33  38
ATOM     38  N   LIG    1       26.586 -33.705   9.495  0.00  0.00    -0.311 NA
ATOM     39  H   LIG    1       25.840 -34.266   9.088  0.00  0.00    +0.122 HD
ATOM     40  C   LIG    1       27.664 -33.617   8.526  0.00  0.00    +0.101 C 
ENDBRANCH  33  38
BRANCH  32  41
ATOM     41  O   LIG    1       27.211 -30.452   9.801  0.00  0.00    -0.385 OA
ATOM     42  H   LIG    1       28.057 -30.054   9.545  0.00  0.00    +0.210 HD
ENDBRANCH  32  41
BRANCH  34  43
ATOM     43  O   LIG    1       24.077 -33.761  10.641  0.00  0.00    -0.385 OA
ATOM     44  H   LIG    1       23.120 -33.867  10.488  0.00  0.00    +0.210 HD
ENDBRANCH  34  43
ENDBRANCH  30  31
ENDBRANCH   5  30
TORSDOF 13
ENDMDL
MODEL 2
REMARK VINA RESULT:      -5.4      1.345      2.328
REMARK  Name = *****
REMARK                            x       y       z     vdW  Elec       q    Type
REMARK                         _______ _______ _______ _____ _____    ______ ____
ROOT
ATOM      1  C   LIG    1       26.392 -26.171   6.454  0.00  0.00    +0.169 C 
ATOM      2  C   LIG    1       26.433 -26.731   5.095  0.00  0.00    +0.084 C 
ATOM      3  C   LIG    1       25.262 -27.503   4.645  0.00  0.00    +0.042 C 
ATOM      4  C   LIG    1       24.270 -27.782   5.708  0.00  0.00    +0.084 C 
ATOM      5  C   LIG    1       25.116 -28.438   6.831  0.00  0.00    +0.169 C 
ATOM      6  C   LIG    1       26.286 -27.481   7.314  0.00  0.00    +0.175 C 
ENDROOT
BRANCH   2   7
ATOM      7  N   LIG    1       27.774 -27.275   4.970  0.00  0.00    -0.325 NA
ATOM      8  H   LIG    1       27.579 -28.160   5.346  0.00  0.00    +0.118 HD
ATOM      9  H   LIG    1       28.413 -26.978   5.680  0.00  0.00    +0.118 HD
ENDBRANCH   2   7
BRANCH   4  10
ATOM     10  N   LIG    1       23.086 -28.496   5.215  0.00  0.00    -0.325 NA
ATOM     11  H   LIG    1       23.418 -29.111   4.467  0.00  0.00    +0.118 HD
ATOM     12  H   LIG    1       22.406 -27.922   4.722  0.00  0.00    +0.118 HD
ENDBRANCH   4  10
BRANCH   6  13
ATOM     13  O   LIG    1       26.292 -27.108   8.677  0.00  0.00    -0.387 OA
ATOM     14  H   LIG    1       26.516 -27.936   9.149  0.00  0.00    +0.210 HD
ENDBRANCH   6  13
BRANCH   1  15
ATOM     15  O   LIG    1       25.360 -25.223   6.471  0.00  0.00    -0.342 OA
BRANCH  15  18
ATOM     16  C   LIG    1       23.835 -22.562   5.207  0.00  0.00    +0.138 C 
ATOM     17  O   LIG    1       25.122 -23.193   5.130  0.00  0.00    -0.345 OA
ATOM     18  C   LIG    1       25.636 -23.792   6.329  0.00  0.00    +0.268 C 
ATOM     19  C   LIG    1       25.520 -22.702   7.492  0.00  0.00    +0.107 C 
ATOM     20  C   LIG    1       24.074 -22.169   7.711  0.00  0.00    +0.026 C 
ATOM     21  C   LIG    1       23.134 -22.646   6.550  0.00  0.00    +0.035 C 
BRANCH  19  22
ATOM     22  N   LIG    1       26.291 -22.894   8.729  0.00  0.00    -0.323 NA
ATOM     23  H   LIG    1       26.802 -23.771   8.754  0.00  0.00    +0.119 HD
ATOM     24  H   LIG    1       26.984 -22.159   8.859  0.00  0.00    +0.119 HD
ENDBRANCH  19  22
BRANCH  16  25
ATOM     25  C   LIG    1       23.776 -21.056   4.923  0.00  0.00    +0.079 C 
ATOM     26  C   LIG    1       24.361 -20.691   3.588  0.00  0.00    +0.026 C 
BRANCH  25  28
ATOM     27  C   LIG    1       21.998 -19.357   4.700  0.00  0.00    +0.101 C 
ATOM     28  N   LIG    1       22.356 -20.694   5.069  0.00  0.00    -0.314 NA
ATOM     29  H   LIG    1       21.731 -21.400   4.688  0.00  0.00    +0.122 HD
ENDBRANCH  25  28
ENDBRANCH  16  25
ENDBRANCH  15  18
ENDBRANCH   1  15
BRANCH   5  30
ATOM     30  O   LIG    1       25.540 -29.786   6.414  0.00  0.00    -0.341 OA
BRANCH  30  31
ATOM     31  C   LIG    1       25.557 -31.005   7.240  0.00  0.00    +0.281 C 
ATOM     32  C   LIG    1       26.701 -31.158   8.420  0.00  0.00    +0.190 C 
ATOM     33  C   LIG    1       26.316 -32.249   9.475  0.00  0.00    +0.121 C 
ATOM     34  C   LIG    1       24.810 -32.537   9.861  0.00  0.00    +0.104 C 
ATOM     35  C   LIG    1       24.297 -31.590  11.105  0.00  0.00    +0.045 C 
ATOM     36  C   LIG    1       24.014 -32.627   8.469  0.00  0.00    +0.199 C 
ATOM     37  O   LIG    1       24.242 -31.533   7.526  0.00  0.00    -0.346 OA
BRANCH  33  38
ATOM     38  N   LIG    1       27.055 -33.458   9.101  0.00  0.00    -0.311 NA
ATOM     39  H   LIG    1       26.354 -34.186   8.974  0.00  0.00    +0.122 HD
ATOM     40  C   LIG    1       27.798 -33.326   7.860  0.00  0.00    +0.101 C 
ENDBRANCH  33  38
BRANCH  32  41
ATOM     41  O   LIG    1       27.259 -30.145   9.310  0.00  0.00    -0.385 OA
ATOM     42  H   LIG    1       27.947 -30.448   9.922  0.00  0.00    +0.210 HD
ENDBRANCH  32  41
BRANCH  34  43
ATOM     43  O   LIG    1       24.706 -33.825  10.500  0.00  0.00    -0.385 OA
ATOM     44  H   LIG    1       24.545 -33.632  11.443  0.00  0.00    +0.210 HD
ENDBRANCH  34  43
ENDBRANCH  30  31
ENDBRANCH   5  30
TORSDOF 13
ENDMDL
MODEL 3
REMARK VINA RESULT:      -5.4      1.854      9.277
REMARK  Name = *****
REMARK                            x       y       z     vdW  Elec       q    Type
REMARK                         _______ _______ _______ _____ _____    ______ ____
ROOT
ATOM      1  C   LIG    1       24.901 -29.924   6.743  0.00  0.00    +0.169 C 
ATOM      2  C   LIG    1       24.613 -29.432   5.388  0.00  0.00    +0.084 C 
ATOM      3  C   LIG    1       25.458 -28.344   4.867  0.00  0.00    +0.042 C 
ATOM      4  C   LIG    1       26.373 -27.750   5.868  0.00  0.00    +0.084 C 
ATOM      5  C   LIG    1       25.429 -27.365   7.038  0.00  0.00    +0.169 C 
ATOM      6  C   LIG    1       24.643 -28.628   7.592  0.00  0.00    +0.175 C 
ENDROOT
BRANCH   2   7
ATOM      7  N   LIG    1       23.164 -29.333   5.342  0.00  0.00    -0.325 NA
ATOM      8  H   LIG    1       23.020 -30.011   4.648  0.00  0.00    +0.118 HD
ATOM      9  H   LIG    1       22.815 -28.551   4.824  0.00  0.00    +0.118 HD
ENDBRANCH   2   7
BRANCH   4  10
ATOM     10  N   LIG    1       27.248 -26.715   5.304  0.00  0.00    -0.325 NA
ATOM     11  H   LIG    1       28.022 -27.213   4.856  0.00  0.00    +0.118 HD
ATOM     12  H   LIG    1       27.740 -26.142   5.986  0.00  0.00    +0.118 HD
ENDBRANCH   4  10
BRANCH   6  13
ATOM     13  O   LIG    1       24.829 -28.955   8.954  0.00  0.00    -0.387 OA
ATOM     14  H   LIG    1       24.171 -29.660   9.122  0.00  0.00    +0.210 HD
ENDBRANCH   6  13
BRANCH   1  15
ATOM     15  O   LIG    1       26.176 -30.505   6.701  0.00  0.00    -0.342 OA
BRANCH  15  18
ATOM     16  C   LIG    1       24.653 -32.485   8.881  0.00  0.00    +0.138 C 
ATOM     17  O   LIG    1       25.931 -31.850   8.727  0.00  0.00    -0.345 OA
ATOM     18  C   LIG    1       26.466 -31.758   7.398  0.00  0.00    +0.268 C 
ATOM     19  C   LIG    1       26.391 -33.220   6.755  0.00  0.00    +0.107 C 
ATOM     20  C   LIG    1       24.957 -33.825   6.737  0.00  0.00    +0.026 C 
ATOM     21  C   LIG    1       23.984 -32.950   7.601  0.00  0.00    +0.035 C 
BRANCH  19  22
ATOM     22  N   LIG    1       27.189 -33.513   5.556  0.00  0.00    -0.323 NA
ATOM     23  H   LIG    1       27.198 -34.497   5.308  0.00  0.00    +0.119 HD
ATOM     24  H   LIG    1       26.839 -33.017   4.738  0.00  0.00    +0.119 HD
ENDBRANCH  19  22
BRANCH  16  25
ATOM     25  C   LIG    1       24.605 -33.760   9.733  0.00  0.00    +0.079 C 
ATOM     26  C   LIG    1       25.682 -33.803  10.780  0.00  0.00    +0.026 C 
BRANCH  25  28
ATOM     27  C   LIG    1       22.983 -32.961  11.415  0.00  0.00    +0.101 C 
ATOM     28  N   LIG    1       23.240 -33.802  10.284  0.00  0.00    -0.314 NA
ATOM     29  H   LIG    1       22.525 -33.740   9.563  0.00  0.00    +0.122 HD
ENDBRANCH  25  28
ENDBRANCH  16  25
ENDBRANCH  15  18
ENDBRANCH   1  15
BRANCH   5  30
ATOM     30  O   LIG    1       24.585 -26.224   6.644  0.00  0.00    -0.341 OA
BRANCH  30  31
ATOM     31  C   LIG    1       25.036 -24.865   6.299  0.00  0.00    +0.281 C 
ATOM     32  C   LIG    1       23.908 -23.716   5.932  0.00  0.00    +0.190 C 
ATOM     33  C   LIG    1       24.491 -22.266   6.039  0.00  0.00    +0.121 C 
ATOM     34  C   LIG    1       25.611 -21.897   7.092  0.00  0.00    +0.104 C 
ATOM     35  C   LIG    1       24.975 -21.419   8.532  0.00  0.00    +0.045 C 
ATOM     36  C   LIG    1       26.710 -23.063   6.985  0.00  0.00    +0.199 C 
ATOM     37  O   LIG    1       26.200 -24.433   7.037  0.00  0.00    -0.346 OA
BRANCH  33  38
ATOM     38  N   LIG    1       24.828 -21.860   4.672  0.00  0.00    -0.311 NA
ATOM     39  H   LIG    1       24.874 -22.719   4.128  0.00  0.00    +0.122 HD
ATOM     40  C   LIG    1       23.837 -20.991   4.061  0.00  0.00    +0.101 C 
ENDBRANCH  33  38
BRANCH  32  41
ATOM     41  O   LIG    1       22.588 -23.492   6.511  0.00  0.00    -0.385 OA
ATOM     42  H   LIG    1       21.833 -23.766   5.967  0.00  0.00    +0.210 HD
ENDBRANCH  32  41
BRANCH  34  43
ATOM     43  O   LIG    1       26.254 -20.664   6.709  0.00  0.00    -0.385 OA
ATOM     44  H   LIG    1       27.134 -20.693   7.127  0.00  0.00    +0.210 HD
ENDBRANCH  34  43
ENDBRANCH  30  31
ENDBRANCH   5  30
TORSDOF 13
ENDMDL
MODEL 4
REMARK VINA RESULT:      -5.3      1.742      9.141
REMARK  Name = *****
REMARK                            x       y       z     vdW  Elec       q    Type
REMARK                         _______ _______ _______ _____ _____    ______ ____
ROOT
ATOM      1  C   LIG    1       24.909 -29.927   6.969  0.00  0.00    +0.169 C 
ATOM      2  C   LIG    1       24.663 -29.624   5.551  0.00  0.00    +0.084 C 
ATOM      3  C   LIG    1       25.443 -28.531   4.947  0.00  0.00    +0.042 C 
ATOM      4  C   LIG    1       26.241 -27.743   5.913  0.00  0.00    +0.084 C 
ATOM      5  C   LIG    1       25.197 -27.314   6.979  0.00  0.00    +0.169 C 
ATOM      6  C   LIG    1       24.490 -28.571   7.641  0.00  0.00    +0.175 C 
ENDROOT
BRANCH   2   7
ATOM      7  N   LIG    1       23.217 -29.664   5.421  0.00  0.00    -0.325 NA
ATOM      8  H   LIG    1       23.030 -30.078   6.289  0.00  0.00    +0.118 HD
ATOM      9  H   LIG    1       22.870 -30.410   4.852  0.00  0.00    +0.118 HD
ENDBRANCH   2   7
BRANCH   4  10
ATOM     10  N   LIG    1       27.057 -26.704   5.274  0.00  0.00    -0.325 NA
ATOM     11  H   LIG    1       26.445 -26.244   4.593  0.00  0.00    +0.118 HD
ATOM     12  H   LIG    1       27.806 -27.046   4.677  0.00  0.00    +0.118 HD
ENDBRANCH   4  10
BRANCH   6  13
ATOM     13  O   LIG    1       24.620 -28.720   9.040  0.00  0.00    -0.387 OA
ATOM     14  H   LIG    1       25.505 -29.121   9.156  0.00  0.00    +0.210 HD
ENDBRANCH   6  13
BRANCH   1  15
ATOM     15  O   LIG    1       26.229 -30.389   7.062  0.00  0.00    -0.342 OA
BRANCH  15  18
ATOM     16  C   LIG    1       24.735 -32.202   9.403  0.00  0.00    +0.138 C 
ATOM     17  O   LIG    1       25.887 -31.354   9.282  0.00  0.00    -0.345 OA
ATOM     18  C   LIG    1       26.615 -31.402   8.046  0.00  0.00    +0.268 C 
ATOM     19  C   LIG    1       26.911 -32.941   7.729  0.00  0.00    +0.107 C 
ATOM     20  C   LIG    1       25.631 -33.824   7.657  0.00  0.00    +0.026 C 
ATOM     21  C   LIG    1       24.386 -33.026   8.178  0.00  0.00    +0.035 C 
BRANCH  19  22
ATOM     22  N   LIG    1       27.940 -33.279   6.736  0.00  0.00    -0.323 NA
ATOM     23  H   LIG    1       28.809 -32.771   6.865  0.00  0.00    +0.119 HD
ATOM     24  H   LIG    1       28.183 -34.268   6.766  0.00  0.00    +0.119 HD
ENDBRANCH  19  22
BRANCH  16  25
ATOM     25  C   LIG    1       24.771 -33.277  10.497  0.00  0.00    +0.079 C 
ATOM     26  C   LIG    1       25.295 -32.760  11.806  0.00  0.00    +0.026 C 
BRANCH  25  28
ATOM     27  C   LIG    1       22.635 -33.424  11.728  0.00  0.00    +0.101 C 
ATOM     28  N   LIG    1       23.394 -33.794  10.571  0.00  0.00    -0.314 NA
ATOM     29  H   LIG    1       22.885 -33.677   9.698  0.00  0.00    +0.122 HD
ENDBRANCH  25  28
ENDBRANCH  16  25
ENDBRANCH  15  18
ENDBRANCH   1  15
BRANCH   5  30
ATOM     30  O   LIG    1       24.285 -26.308   6.408  0.00  0.00    -0.341 OA
BRANCH  30  31
ATOM     31  C   LIG    1       24.099 -24.920   6.862  0.00  0.00    +0.281 C 
ATOM     32  C   LIG    1       25.400 -23.903   6.883  0.00  0.00    +0.190 C 
ATOM     33  C   LIG    1       24.968 -22.399   6.941  0.00  0.00    +0.121 C 
ATOM     34  C   LIG    1       23.639 -21.888   6.255  0.00  0.00    +0.104 C 
ATOM     35  C   LIG    1       23.881 -21.442   4.690  0.00  0.00    +0.045 C 
ATOM     36  C   LIG    1       22.500 -22.938   6.680  0.00  0.00    +0.199 C 
ATOM     37  O   LIG    1       22.824 -24.351   6.489  0.00  0.00    -0.346 OA
BRANCH  33  38
ATOM     38  N   LIG    1       25.083 -21.995   8.346  0.00  0.00    -0.311 NA
ATOM     39  H   LIG    1       25.274 -22.849   8.866  0.00  0.00    +0.122 HD
ATOM     40  C   LIG    1       26.166 -21.061   8.596  0.00  0.00    +0.101 C 
ENDBRANCH  33  38
BRANCH  32  41
ATOM     41  O   LIG    1       26.514 -23.801   5.947  0.00  0.00    -0.385 OA
ATOM     42  H   LIG    1       26.808 -22.902   5.732  0.00  0.00    +0.210 HD
ENDBRANCH  32  41
BRANCH  34  43
ATOM     43  O   LIG    1       23.267 -20.606   6.801  0.00  0.00    -0.385 OA
ATOM     44  H   LIG    1       23.318 -20.714   7.769  0.00  0.00    +0.210 HD
ENDBRANCH  34  43
ENDBRANCH  30  31
ENDBRANCH   5  30
TORSDOF 13
ENDMDL
MODEL 5
REMARK VINA RESULT:      -5.2      4.718      8.822
REMARK  Name = *****
REMARK                            x       y       z     vdW  Elec       q    Type
REMARK                         _______ _______ _______ _____ _____    ______ ____
ROOT
ATOM      1  C   LIG    1       28.788 -19.782   8.370  0.00  0.00    +0.169 C 
ATOM      2  C   LIG    1       29.568 -20.312   7.241  0.00  0.00    +0.084 C 
ATOM      3  C   LIG    1       29.071 -20.033   5.884  0.00  0.00    +0.042 C 
ATOM      4  C   LIG    1       27.726 -19.415   5.841  0.00  0.00    +0.084 C 
ATOM      5  C   LIG    1       26.856 -20.382   6.690  0.00  0.00    +0.169 C 
ATOM      6  C   LIG    1       27.422 -20.530   8.166  0.00  0.00    +0.175 C 
ENDROOT
BRANCH   2   7
ATOM      7  N   LIG    1       29.909 -21.666   7.644  0.00  0.00    -0.325 NA
ATOM      8  H   LIG    1       30.508 -21.424   8.382  0.00  0.00    +0.118 HD
ATOM      9  H   LIG    1       30.596 -22.111   7.069  0.00  0.00    +0.118 HD
ENDBRANCH   2   7
BRANCH   4  10
ATOM     10  N   LIG    1       27.285 -19.090   4.479  0.00  0.00    -0.325 NA
ATOM     11  H   LIG    1       26.719 -18.241   4.561  0.00  0.00    +0.118 HD
ATOM     12  H   LIG    1       26.619 -19.742   4.071  0.00  0.00    +0.118 HD
ENDBRANCH   4  10
BRANCH   6  13
ATOM     13  O   LIG    1       26.562 -20.163   9.225  0.00  0.00    -0.387 OA
ATOM     14  H   LIG    1       26.629 -20.907   9.856  0.00  0.00    +0.210 HD
ENDBRANCH   6  13
BRANCH   1  15
ATOM     15  O   LIG    1       28.854 -18.385   8.288  0.00  0.00    -0.342 OA
BRANCH  15  18
ATOM     16  C   LIG    1       30.661 -17.121  10.765  0.00  0.00    +0.138 C 
ATOM     17  O   LIG    1       30.151 -16.699   9.491  0.00  0.00    -0.345 OA
ATOM     18  C   LIG    1       30.123 -17.671   8.436  0.00  0.00    +0.268 C 
ATOM     19  C   LIG    1       31.576 -18.333   8.362  0.00  0.00    +0.107 C 
ATOM     20  C   LIG    1       32.042 -18.976   9.701  0.00  0.00    +0.026 C 
ATOM     21  C   LIG    1       31.071 -18.578  10.866  0.00  0.00    +0.035 C 
BRANCH  19  22
ATOM     22  N   LIG    1       31.955 -19.089   7.160  0.00  0.00    -0.323 NA
ATOM     23  H   LIG    1       32.927 -18.966   6.895  0.00  0.00    +0.119 HD
ATOM     24  H   LIG    1       31.820 -20.091   7.287  0.00  0.00    +0.119 HD
ENDBRANCH  19  22
BRANCH  16  25
ATOM     25  C   LIG    1       31.918 -16.411  11.285  0.00  0.00    +0.079 C 
ATOM     26  C   LIG    1       32.558 -15.527  10.253  0.00  0.00    +0.026 C 
BRANCH  25  28
ATOM     27  C   LIG    1       32.246 -15.918  13.683  0.00  0.00    +0.101 C 
ATOM     28  N   LIG    1       31.479 -15.693  12.494  0.00  0.00    -0.314 NA
ATOM     29  H   LIG    1       31.286 -14.710  12.316  0.00  0.00    +0.122 HD
ENDBRANCH  25  28
ENDBRANCH  16  25
ENDBRANCH  15  18
ENDBRANCH   1  15
BRANCH   5  30
ATOM     30  O   LIG    1       26.661 -21.647   5.962  0.00  0.00    -0.341 OA
BRANCH  30  31
ATOM     31  C   LIG    1       25.768 -22.756   6.337  0.00  0.00    +0.281 C 
ATOM     32  C   LIG    1       24.463 -23.091   5.383  0.00  0.00    +0.190 C 
ATOM     33  C   LIG    1       23.900 -24.530   5.642  0.00  0.00    +0.121 C 
ATOM     34  C   LIG    1       24.843 -25.729   6.057  0.00  0.00    +0.104 C 
ATOM     35  C   LIG    1       25.440 -26.529   4.748  0.00  0.00    +0.045 C 
ATOM     36  C   LIG    1       25.794 -25.154   7.216  0.00  0.00    +0.199 C 
ATOM     37  O   LIG    1       26.454 -23.881   6.933  0.00  0.00    -0.346 OA
BRANCH  33  38
ATOM     38  N   LIG    1       22.752 -24.364   6.538  0.00  0.00    -0.311 NA
ATOM     39  H   LIG    1       23.002 -24.839   7.403  0.00  0.00    +0.122 HD
ATOM     40  C   LIG    1       22.454 -22.978   6.854  0.00  0.00    +0.101 C 
ENDBRANCH  33  38
BRANCH  32  41
ATOM     41  O   LIG    1       24.335 -23.038   3.931  0.00  0.00    -0.385 OA
ATOM     42  H   LIG    1       24.294 -23.892   3.475  0.00  0.00    +0.210 HD
ENDBRANCH  32  41
BRANCH  34  43
ATOM     43  O   LIG    1       24.058 -26.793   6.633  0.00  0.00    -0.385 OA
ATOM     44  H   LIG    1       23.817 -26.480   7.525  0.00  0.00    +0.210 HD
ENDBRANCH  34  43
ENDBRANCH  30  31
ENDBRANCH   5  30
TORSDOF 13
ENDMDL
MODEL 6
REMARK VINA RESULT:      -5.2      2.409      3.690
REMARK  Name = *****
REMARK                            x       y       z     vdW  Elec       q    Type
REMARK                         _______ _______ _______ _____ _____    ______ ____
ROOT
ATOM      1  C   LIG    1       25.268 -24.651   6.890  0.00  0.00    +0.169 C 
ATOM      2  C   LIG    1       26.234 -25.754   7.006  0.00  0.00    +0.084 C 
ATOM      3  C   LIG    1       26.448 -26.595   5.816  0.00  0.00    +0.042 C 
ATOM      4  C   LIG    1       25.502 -26.335   4.707  0.00  0.00    +0.084 C 
ATOM      5  C   LIG    1       24.110 -26.465   5.380  0.00  0.00    +0.169 C 
ATOM      6  C   LIG    1       23.947 -25.443   6.584  0.00  0.00    +0.175 C 
ENDROOT
BRANCH   2   7
ATOM      7  N   LIG    1       25.943 -26.354   8.296  0.00  0.00    -0.325 NA
ATOM      8  H   LIG    1       26.605 -27.075   8.244  0.00  0.00    +0.118 HD
ATOM      9  H   LIG    1       25.129 -26.934   8.313  0.00  0.00    +0.118 HD
ENDBRANCH   2   7
BRANCH   4  10
ATOM     10  N   LIG    1       25.781 -27.142   3.513  0.00  0.00    -0.325 NA
ATOM     11  H   LIG    1       26.379 -26.564   2.915  0.00  0.00    +0.118 HD
ATOM     12  H   LIG    1       24.983 -27.308   2.904  0.00  0.00    +0.118 HD
ENDBRANCH   4  10
BRANCH   6  13
ATOM     13  O   LIG    1       22.890 -24.510   6.496  0.00  0.00    -0.387 OA
ATOM     14  H   LIG    1       23.195 -23.866   5.826  0.00  0.00    +0.210 HD
ENDBRANCH   6  13
BRANCH   1  15
ATOM     15  O   LIG    1       25.791 -23.750   5.953  0.00  0.00    -0.342 OA
BRANCH  15  18
ATOM     16  C   LIG    1       24.124 -21.117   4.818  0.00  0.00    +0.138 C 
ATOM     17  O   LIG    1       25.490 -21.504   5.035  0.00  0.00    -0.345 OA
ATOM     18  C   LIG    1       25.772 -22.305   6.192  0.00  0.00    +0.268 C 
ATOM     19  C   LIG    1       25.101 -21.579   7.447  0.00  0.00    +0.107 C 
ATOM     20  C   LIG    1       23.570 -21.345   7.292  0.00  0.00    +0.026 C 
ATOM     21  C   LIG    1       23.117 -21.645   5.821  0.00  0.00    +0.035 C 
BRANCH  19  22
ATOM     22  N   LIG    1       25.523 -21.962   8.802  0.00  0.00    -0.323 NA
ATOM     23  H   LIG    1       25.745 -21.168   9.395  0.00  0.00    +0.119 HD
ATOM     24  H   LIG    1       24.798 -22.486   9.289  0.00  0.00    +0.119 HD
ENDBRANCH  19  22
BRANCH  16  25
ATOM     25  C   LIG    1       23.814 -19.614   4.833  0.00  0.00    +0.079 C 
ATOM     26  C   LIG    1       24.562 -18.853   3.775  0.00  0.00    +0.026 C 
BRANCH  25  28
ATOM     27  C   LIG    1       21.820 -18.252   4.317  0.00  0.00    +0.101 C 
ATOM     28  N   LIG    1       22.350 -19.525   4.706  0.00  0.00    -0.314 NA
ATOM     29  H   LIG    1       21.953 -20.304   4.186  0.00  0.00    +0.122 HD
ENDBRANCH  25  28
ENDBRANCH  16  25
ENDBRANCH  15  18
ENDBRANCH   1  15
BRANCH   5  30
ATOM     30  O   LIG    1       23.847 -27.875   5.714  0.00  0.00    -0.341 OA
BRANCH  30  31
ATOM     31  C   LIG    1       24.832 -28.885   6.137  0.00  0.00    +0.281 C 
ATOM     32  C   LIG    1       24.723 -29.523   7.656  0.00  0.00    +0.190 C 
ATOM     33  C   LIG    1       25.519 -30.865   7.788  0.00  0.00    +0.121 C 
ATOM     34  C   LIG    1       25.670 -31.865   6.573  0.00  0.00    +0.104 C 
ATOM     35  C   LIG    1       24.439 -32.956   6.513  0.00  0.00    +0.045 C 
ATOM     36  C   LIG    1       26.073 -30.957   5.311  0.00  0.00    +0.199 C 
ATOM     37  O   LIG    1       25.244 -29.776   5.077  0.00  0.00    -0.346 OA
BRANCH  33  38
ATOM     38  N   LIG    1       26.800 -30.520   8.413  0.00  0.00    -0.311 NA
ATOM     39  H   LIG    1       27.003 -29.565   8.123  0.00  0.00    +0.122 HD
ATOM     40  C   LIG    1       26.769 -30.555   9.864  0.00  0.00    +0.101 C 
ENDBRANCH  33  38
BRANCH  32  41
ATOM     41  O   LIG    1       23.539 -29.864   8.438  0.00  0.00    -0.385 OA
ATOM     42  H   LIG    1       23.640 -29.824   9.402  0.00  0.00    +0.210 HD
ENDBRANCH  32  41
BRANCH  34  43
ATOM     43  O   LIG    1       26.764 -32.772   6.819  0.00  0.00    -0.385 OA
ATOM     44  H   LIG    1       27.282 -32.778   5.993  0.00  0.00    +0.210 HD
ENDBRANCH  34  43
ENDBRANCH  30  31
ENDBRANCH   5  30
TORSDOF 13
ENDMDL
MODEL 7
REMARK VINA RESULT:      -5.1      2.514      4.216
REMARK  Name = *****
REMARK                            x       y       z     vdW  Elec       q    Type
REMARK                         _______ _______ _______ _____ _____    ______ ____
ROOT
ATOM      1  C   LIG    1       24.707 -23.704   6.280  0.00  0.00    +0.169 C 
ATOM      2  C   LIG    1       26.056 -24.151   6.656  0.00  0.00    +0.084 C 
ATOM      3  C   LIG    1       26.600 -25.326   5.954  0.00  0.00    +0.042 C 
ATOM      4  C   LIG    1       25.624 -26.027   5.089  0.00  0.00    +0.084 C 
ATOM      5  C   LIG    1       24.432 -26.307   6.043  0.00  0.00    +0.169 C 
ATOM      6  C   LIG    1       23.855 -24.966   6.665  0.00  0.00    +0.175 C 
ENDROOT
BRANCH   2   7
ATOM      7  N   LIG    1       26.067 -24.083   8.107  0.00  0.00    -0.325 NA
ATOM      8  H   LIG    1       25.258 -24.617   8.257  0.00  0.00    +0.118 HD
ATOM      9  H   LIG    1       25.720 -23.225   8.486  0.00  0.00    +0.118 HD
ENDBRANCH   2   7
BRANCH   4  10
ATOM     10  N   LIG    1       26.212 -27.153   4.354  0.00  0.00    -0.325 NA
ATOM     11  H   LIG    1       26.316 -26.835   3.386  0.00  0.00    +0.118 HD
ATOM     12  H   LIG    1       25.606 -27.962   4.239  0.00  0.00    +0.118 HD
ENDBRANCH   4  10
BRANCH   6  13
ATOM     13  O   LIG    1       22.498 -24.670   6.409  0.00  0.00    -0.387 OA
ATOM     14  H   LIG    1       22.525 -23.808   5.947  0.00  0.00    +0.210 HD
ENDBRANCH   6  13
BRANCH   1  15
ATOM     15  O   LIG    1       24.779 -23.273   4.948  0.00  0.00    -0.342 OA
BRANCH  15  18
ATOM     16  C   LIG    1       22.693 -20.695   4.899  0.00  0.00    +0.138 C 
ATOM     17  O   LIG    1       23.641 -21.319   4.019  0.00  0.00    -0.345 OA
ATOM     18  C   LIG    1       24.837 -21.850   4.609  0.00  0.00    +0.268 C 
ATOM     19  C   LIG    1       25.466 -20.701   5.524  0.00  0.00    +0.107 C 
ATOM     20  C   LIG    1       24.495 -20.168   6.618  0.00  0.00    +0.026 C 
ATOM     21  C   LIG    1       23.045 -20.712   6.374  0.00  0.00    +0.035 C 
BRANCH  19  22
ATOM     22  N   LIG    1       26.865 -20.821   5.959  0.00  0.00    -0.323 NA
ATOM     23  H   LIG    1       27.035 -20.439   6.884  0.00  0.00    +0.119 HD
ATOM     24  H   LIG    1       27.167 -21.793   5.993  0.00  0.00    +0.119 HD
ENDBRANCH  19  22
BRANCH  16  25
ATOM     25  C   LIG    1       22.402 -19.206   4.669  0.00  0.00    +0.079 C 
ATOM     26  C   LIG    1       23.369 -18.562   3.717  0.00  0.00    +0.026 C 
BRANCH  25  28
ATOM     27  C   LIG    1       20.675 -18.137   3.264  0.00  0.00    +0.101 C 
ATOM     28  N   LIG    1       21.001 -19.155   4.219  0.00  0.00    -0.314 NA
ATOM     29  H   LIG    1       20.635 -20.072   3.974  0.00  0.00    +0.122 HD
ENDBRANCH  25  28
ENDBRANCH  16  25
ENDBRANCH  15  18
ENDBRANCH   1  15
BRANCH   5  30
ATOM     30  O   LIG    1       24.808 -27.342   7.022  0.00  0.00    -0.341 OA
BRANCH  30  31
ATOM     31  C   LIG    1       24.305 -28.724   7.089  0.00  0.00    +0.281 C 
ATOM     32  C   LIG    1       24.789 -29.809   5.942  0.00  0.00    +0.190 C 
ATOM     33  C   LIG    1       24.552 -31.289   6.397  0.00  0.00    +0.121 C 
ATOM     34  C   LIG    1       24.655 -31.718   7.915  0.00  0.00    +0.104 C 
ATOM     35  C   LIG    1       26.185 -32.157   8.333  0.00  0.00    +0.045 C 
ATOM     36  C   LIG    1       23.825 -30.615   8.736  0.00  0.00    +0.199 C 
ATOM     37  O   LIG    1       24.141 -29.219   8.437  0.00  0.00    -0.346 OA
BRANCH  33  38
ATOM     38  N   LIG    1       23.303 -31.717   5.761  0.00  0.00    -0.311 NA
ATOM     39  H   LIG    1       23.087 -31.006   5.064  0.00  0.00    +0.122 HD
ATOM     40  C   LIG    1       23.403 -32.997   5.084  0.00  0.00    +0.101 C 
ENDBRANCH  33  38
BRANCH  32  41
ATOM     41  O   LIG    1       26.088 -29.958   5.294  0.00  0.00    -0.385 OA
ATOM     42  H   LIG    1       26.282 -29.330   4.581  0.00  0.00    +0.210 HD
ENDBRANCH  32  41
BRANCH  34  43
ATOM     43  O   LIG    1       23.996 -32.986   8.110  0.00  0.00    -0.385 OA
ATOM     44  H   LIG    1       23.053 -32.817   7.925  0.00  0.00    +0.210 HD
ENDBRANCH  34  43
ENDBRANCH  30  31
ENDBRANCH   5  30
TORSDOF 13
ENDMDL
MODEL 8
REMARK VINA RESULT:      -5.0      3.840      9.893
REMARK  Name = *****
REMARK                            x       y       z     vdW  Elec       q    Type
REMARK                         _______ _______ _______ _____ _____    ______ ____
ROOT
ATOM      1  C   LIG    1       25.670 -22.333   6.671  0.00  0.00    +0.169 C 
ATOM      2  C   LIG    1       24.972 -21.060   6.905  0.00  0.00    +0.084 C 
ATOM      3  C   LIG    1       25.363 -19.910   6.073  0.00  0.00    +0.042 C 
ATOM      4  C   LIG    1       26.562 -20.142   5.236  0.00  0.00    +0.084 C 
ATOM      5  C   LIG    1       27.627 -20.627   6.255  0.00  0.00    +0.169 C 
ATOM      6  C   LIG    1       27.147 -21.931   7.022  0.00  0.00    +0.175 C 
ENDROOT
BRANCH   2   7
ATOM      7  N   LIG    1       24.910 -20.944   8.352  0.00  0.00    -0.325 NA
ATOM      8  H   LIG    1       25.847 -20.689   8.491  0.00  0.00    +0.118 HD
ATOM      9  H   LIG    1       24.945 -21.815   8.842  0.00  0.00    +0.118 HD
ENDBRANCH   2   7
BRANCH   4  10
ATOM     10  N   LIG    1       26.888 -19.002   4.371  0.00  0.00    -0.325 NA
ATOM     11  H   LIG    1       27.644 -18.497   4.843  0.00  0.00    +0.118 HD
ATOM     12  H   LIG    1       26.171 -18.283   4.309  0.00  0.00    +0.118 HD
ENDBRANCH   4  10
BRANCH   6  13
ATOM     13  O   LIG    1       27.954 -23.085   6.897  0.00  0.00    -0.387 OA
ATOM     14  H   LIG    1       27.828 -23.557   7.745  0.00  0.00    +0.210 HD
ENDBRANCH   6  13
BRANCH   1  15
ATOM     15  O   LIG    1       25.334 -22.748   5.375  0.00  0.00    -0.342 OA
BRANCH  15  18
ATOM     16  C   LIG    1       25.949 -26.004   5.523  0.00  0.00    +0.138 C 
ATOM     17  O   LIG    1       25.383 -25.065   4.596  0.00  0.00    -0.345 OA
ATOM     18  C   LIG    1       24.599 -23.992   5.140  0.00  0.00    +0.268 C 
ATOM     19  C   LIG    1       23.529 -24.643   6.134  0.00  0.00    +0.107 C 
ATOM     20  C   LIG    1       24.166 -25.499   7.268  0.00  0.00    +0.026 C 
ATOM     21  C   LIG    1       25.692 -25.725   6.992  0.00  0.00    +0.035 C 
BRANCH  19  22
ATOM     22  N   LIG    1       22.368 -23.845   6.553  0.00  0.00    -0.323 NA
ATOM     23  H   LIG    1       22.065 -23.175   5.854  0.00  0.00    +0.119 HD
ATOM     24  H   LIG    1       21.560 -24.432   6.753  0.00  0.00    +0.119 HD
ENDBRANCH  19  22
BRANCH  16  25
ATOM     25  C   LIG    1       25.494 -27.464   5.403  0.00  0.00    +0.079 C 
ATOM     26  C   LIG    1       26.102 -28.171   4.226  0.00  0.00    +0.026 C 
BRANCH  25  28
ATOM     27  C   LIG    1       25.073 -29.237   7.070  0.00  0.00    +0.101 C 
ATOM     28  N   LIG    1       25.826 -28.076   6.701  0.00  0.00    -0.314 NA
ATOM     29  H   LIG    1       26.829 -28.184   6.838  0.00  0.00    +0.122 HD
ENDBRANCH  25  28
ENDBRANCH  16  25
ENDBRANCH  15  18
ENDBRANCH   1  15
BRANCH   5  30
ATOM     30  O   LIG    1       28.040 -19.508   7.117  0.00  0.00    -0.341 OA
BRANCH  30  31
ATOM     31  C   LIG    1       29.127 -19.507   8.111  0.00  0.00    +0.281 C 
ATOM     32  C   LIG    1       30.663 -19.857   7.618  0.00  0.00    +0.190 C 
ATOM     33  C   LIG    1       31.736 -19.379   8.654  0.00  0.00    +0.121 C 
ATOM     34  C   LIG    1       31.517 -18.089   9.541  0.00  0.00    +0.104 C 
ATOM     35  C   LIG    1       32.070 -16.727   8.800  0.00  0.00    +0.045 C 
ATOM     36  C   LIG    1       30.023 -18.205  10.116  0.00  0.00    +0.199 C 
ATOM     37  O   LIG    1       28.978 -18.500   9.137  0.00  0.00    -0.346 OA
BRANCH  33  38
ATOM     38  N   LIG    1       32.102 -20.562   9.438  0.00  0.00    -0.311 NA
ATOM     39  H   LIG    1       31.853 -20.345  10.402  0.00  0.00    +0.122 HD
ATOM     40  C   LIG    1       31.387 -21.764   9.047  0.00  0.00    +0.101 C 
ENDBRANCH  33  38
BRANCH  32  41
ATOM     41  O   LIG    1       31.345 -19.500   6.378  0.00  0.00    -0.385 OA
ATOM     42  H   LIG    1       32.294 -19.692   6.344  0.00  0.00    +0.210 HD
ENDBRANCH  32  41
BRANCH  34  43
ATOM     43  O   LIG    1       32.416 -18.112  10.668  0.00  0.00    -0.385 OA
ATOM     44  H   LIG    1       32.538 -19.057  10.880  0.00  0.00    +0.210 HD
ENDBRANCH  34  43
ENDBRANCH  30  31
ENDBRANCH   5  30
TORSDOF 13
ENDMDL
MODEL 9
REMARK VINA RESULT:      -4.9      1.749      8.634
REMARK  Name = *****
REMARK                            x       y       z     vdW  Elec       q    Type
REMARK                         _______ _______ _______ _____ _____    ______ ____
ROOT
ATOM      1  C   LIG    1       25.182 -28.672   6.738  0.00  0.00    +0.169 C 
ATOM      2  C   LIG    1       24.780 -28.159   5.420  0.00  0.00    +0.084 C 
ATOM      3  C   LIG    1       25.846 -27.678   4.526  0.00  0.00    +0.042 C 
ATOM      4  C   LIG    1       27.181 -27.591   5.160  0.00  0.00    +0.084 C 
ATOM      5  C   LIG    1       26.926 -26.730   6.425  0.00  0.00    +0.169 C 
ATOM      6  C   LIG    1       25.835 -27.391   7.370  0.00  0.00    +0.175 C 
ENDROOT
BRANCH   2   7
ATOM      7  N   LIG    1       23.614 -27.338   5.694  0.00  0.00    -0.325 NA
ATOM      8  H   LIG    1       23.103 -28.015   6.185  0.00  0.00    +0.118 HD
ATOM      9  H   LIG    1       22.982 -27.240   4.925  0.00  0.00    +0.118 HD
ENDBRANCH   2   7
BRANCH   4  10
ATOM     10  N   LIG    1       28.234 -27.171   4.227  0.00  0.00    -0.325 NA
ATOM     11  H   LIG    1       28.797 -28.006   4.042  0.00  0.00    +0.118 HD
ATOM     12  H   LIG    1       28.930 -26.537   4.613  0.00  0.00    +0.118 HD
ENDBRANCH   4  10
BRANCH   6  13
ATOM     13  O   LIG    1       26.234 -27.710   8.688  0.00  0.00    -0.387 OA
ATOM     14  H   LIG    1       25.397 -27.938   9.141  0.00  0.00    +0.210 HD
ENDBRANCH   6  13
BRANCH   1  15
ATOM     15  O   LIG    1       25.949 -29.823   6.509  0.00  0.00    -0.342 OA
BRANCH  15  18
ATOM     16  C   LIG    1       25.675 -31.219   9.505  0.00  0.00    +0.138 C 
ATOM     17  O   LIG    1       26.271 -31.524   8.235  0.00  0.00    -0.345 OA
ATOM     18  C   LIG    1       25.556 -31.122   7.057  0.00  0.00    +0.268 C 
ATOM     19  C   LIG    1       24.056 -31.652   7.209  0.00  0.00    +0.107 C 
ATOM     20  C   LIG    1       23.339 -31.147   8.496  0.00  0.00    +0.026 C 
ATOM     21  C   LIG    1       24.366 -30.455   9.458  0.00  0.00    +0.035 C 
BRANCH  19  22
ATOM     22  N   LIG    1       23.197 -31.712   6.019  0.00  0.00    -0.323 NA
ATOM     23  H   LIG    1       23.700 -31.946   5.169  0.00  0.00    +0.119 HD
ATOM     24  H   LIG    1       22.464 -32.414   6.117  0.00  0.00    +0.119 HD
ENDBRANCH  19  22
BRANCH  16  25
ATOM     25  C   LIG    1       25.307 -32.405  10.406  0.00  0.00    +0.079 C 
ATOM     26  C   LIG    1       25.804 -33.718   9.875  0.00  0.00    +0.026 C 
BRANCH  25  28
ATOM     27  C   LIG    1       24.907 -32.030  12.814  0.00  0.00    +0.101 C 
ATOM     28  N   LIG    1       25.846 -32.059  11.733  0.00  0.00    -0.314 NA
ATOM     29  H   LIG    1       26.701 -32.564  11.953  0.00  0.00    +0.122 HD
ENDBRANCH  25  28
ENDBRANCH  16  25
ENDBRANCH  15  18
ENDBRANCH   1  15
BRANCH   5  30
ATOM     30  O   LIG    1       26.656 -25.336   6.034  0.00  0.00    -0.341 OA
BRANCH  30  31
ATOM     31  C   LIG    1       25.828 -24.357   6.758  0.00  0.00    +0.281 C 
ATOM     32  C   LIG    1       26.435 -22.847   7.040  0.00  0.00    +0.190 C 
ATOM     33  C   LIG    1       25.309 -21.817   7.391  0.00  0.00    +0.121 C 
ATOM     34  C   LIG    1       23.858 -21.930   6.773  0.00  0.00    +0.104 C 
ATOM     35  C   LIG    1       23.729 -21.122   5.345  0.00  0.00    +0.045 C 
ATOM     36  C   LIG    1       23.439 -23.472   6.926  0.00  0.00    +0.199 C 
ATOM     37  O   LIG    1       24.417 -24.454   6.460  0.00  0.00    -0.346 OA
BRANCH  33  38
ATOM     38  N   LIG    1       25.304 -21.699   8.852  0.00  0.00    -0.311 NA
ATOM     39  H   LIG    1       25.827 -22.501   9.199  0.00  0.00    +0.122 HD
ATOM     40  C   LIG    1       25.951 -20.494   9.341  0.00  0.00    +0.101 C 
ENDBRANCH  33  38
BRANCH  32  41
ATOM     41  O   LIG    1       27.275 -22.010   6.191  0.00  0.00    -0.385 OA
ATOM     42  H   LIG    1       28.202 -21.922   6.462  0.00  0.00    +0.210 HD
ENDBRANCH  32  41
BRANCH  34  43
ATOM     43  O   LIG    1       22.931 -21.152   7.557  0.00  0.00    -0.385 OA
ATOM     44  H   LIG    1       22.078 -21.219   7.088  0.00  0.00    +0.210 HD
ENDBRANCH  34  43
ENDBRANCH  30  31
ENDBRANCH   5  30
TORSDOF 13
ENDMDL
