MODEL 1
REMARK VINA RESULT:      -9.3      0.000      0.000
REMARK  Name = *****
REMARK                            x       y       z     vdW  Elec       q    Type
REMARK                         _______ _______ _______ _____ _____    ______ ____
ROOT
ATOM      1  O   LIG    1       24.161 -21.145   8.025  0.00  0.00    -0.252 OA
ATOM      2  C   LIG    1       24.547 -22.082   7.337  0.00  0.00    +0.306 C 
ATOM      3  N   LIG    1       23.897 -22.622   6.216  0.00  0.00    -0.272 N 
ATOM      4  C   LIG    1       24.880 -23.355   5.428  0.00  0.00    +0.152 C 
ATOM      5  C   LIG    1       24.414 -24.581   4.672  0.00  0.00    +0.302 C 
ATOM      6  S   LIG    1       24.138 -25.891   5.903  0.00  0.00    -0.004 S 
ATOM      7  C   LIG    1       25.455 -25.190   7.021  0.00  0.00    +0.230 C 
ATOM      8  C   LIG    1       26.580 -26.227   7.026  0.00  0.00    +0.064 C 
ATOM      9  C   LIG    1       26.689 -26.764   5.608  0.00  0.00    +0.059 C 
ATOM     10  C   LIG    1       25.275 -27.136   5.199  0.00  0.00    +0.278 C 
ATOM     11  C   LIG    1       25.897 -23.807   6.476  0.00  0.00    +0.155 C 
ATOM     12  N   LIG    1       25.765 -22.755   7.473  0.00  0.00    -0.271 N 
ENDROOT
BRANCH   3  13
ATOM     13  C   LIG    1       22.754 -21.961   5.620  0.00  0.00    +0.145 C 
BRANCH  13  14
ATOM     14  C   LIG    1       23.105 -20.666   4.926  0.00  0.00    -0.030 A 
ATOM     15  C   LIG    1       22.255 -19.553   5.007  0.00  0.00    +0.005 A 
ATOM     16  C   LIG    1       22.609 -18.341   4.409  0.00  0.00    +0.000 A 
ATOM     17  C   LIG    1       23.812 -18.228   3.714  0.00  0.00    +0.000 A 
ATOM     18  C   LIG    1       24.657 -19.329   3.610  0.00  0.00    +0.000 A 
ATOM     19  C   LIG    1       24.304 -20.540   4.208  0.00  0.00    +0.005 A 
ENDBRANCH  13  14
ENDBRANCH   3  13
BRANCH  12  20
ATOM     20  C   LIG    1       26.839 -22.314   8.338  0.00  0.00    +0.145 C 
BRANCH  20  21
ATOM     21  C   LIG    1       27.779 -21.349   7.646  0.00  0.00    -0.030 A 
ATOM     22  C   LIG    1       27.346 -20.561   6.568  0.00  0.00    +0.005 A 
ATOM     23  C   LIG    1       28.222 -19.675   5.936  0.00  0.00    +0.000 A 
ATOM     24  C   LIG    1       29.538 -19.559   6.378  0.00  0.00    +0.000 A 
ATOM     25  C   LIG    1       29.979 -20.328   7.454  0.00  0.00    +0.000 A 
ATOM     26  C   LIG    1       29.105 -21.216   8.085  0.00  0.00    +0.005 A 
ENDBRANCH  20  21
ENDBRANCH  12  20
TORSDOF 4
ENDMDL
MODEL 2
REMARK VINA RESULT:      -8.2      2.163      5.257
REMARK  Name = *****
REMARK                            x       y       z     vdW  Elec       q    Type
REMARK                         _______ _______ _______ _____ _____    ______ ____
ROOT
ATOM      1  O   LIG    1       28.821 -21.884   6.939  0.00  0.00    -0.252 OA
ATOM      2  C   LIG    1       27.806 -21.290   6.600  0.00  0.00    +0.306 C 
ATOM      3  N   LIG    1       26.482 -21.663   6.880  0.00  0.00    -0.272 N 
ATOM      4  C   LIG    1       25.635 -20.485   6.740  0.00  0.00    +0.152 C 
ATOM      5  C   LIG    1       24.218 -20.683   6.247  0.00  0.00    +0.302 C 
ATOM      6  S   LIG    1       24.320 -21.059   4.470  0.00  0.00    -0.004 S 
ATOM      7  C   LIG    1       25.877 -20.047   4.293  0.00  0.00    +0.230 C 
ATOM      8  C   LIG    1       25.488 -18.850   3.423  0.00  0.00    +0.064 C 
ATOM      9  C   LIG    1       24.093 -18.426   3.857  0.00  0.00    +0.059 C 
ATOM     10  C   LIG    1       23.262 -19.697   3.867  0.00  0.00    +0.278 C 
ATOM     11  C   LIG    1       26.381 -19.644   5.703  0.00  0.00    +0.155 C 
ATOM     12  N   LIG    1       27.756 -20.060   5.935  0.00  0.00    -0.271 N 
ENDROOT
BRANCH   3  13
ATOM     13  C   LIG    1       26.184 -22.732   7.812  0.00  0.00    +0.145 C 
BRANCH  13  14
ATOM     14  C   LIG    1       25.506 -23.918   7.168  0.00  0.00    -0.030 A 
ATOM     15  C   LIG    1       24.122 -23.919   6.942  0.00  0.00    +0.005 A 
ATOM     16  C   LIG    1       23.506 -24.995   6.296  0.00  0.00    +0.000 A 
ATOM     17  C   LIG    1       24.264 -26.087   5.878  0.00  0.00    +0.000 A 
ATOM     18  C   LIG    1       25.636 -26.108   6.112  0.00  0.00    +0.000 A 
ATOM     19  C   LIG    1       26.252 -25.033   6.756  0.00  0.00    +0.005 A 
ENDBRANCH  13  14
ENDBRANCH   3  13
BRANCH  12  20
ATOM     20  C   LIG    1       28.911 -19.214   5.716  0.00  0.00    +0.145 C 
BRANCH  20  21
ATOM     21  C   LIG    1       29.722 -19.006   6.977  0.00  0.00    -0.030 A 
ATOM     22  C   LIG    1       29.125 -18.530   8.155  0.00  0.00    +0.005 A 
ATOM     23  C   LIG    1       29.884 -18.341   9.313  0.00  0.00    +0.000 A 
ATOM     24  C   LIG    1       31.246 -18.633   9.310  0.00  0.00    +0.000 A 
ATOM     25  C   LIG    1       31.850 -19.116   8.151  0.00  0.00    +0.000 A 
ATOM     26  C   LIG    1       31.093 -19.303   6.993  0.00  0.00    +0.005 A 
ENDBRANCH  20  21
ENDBRANCH  12  20
TORSDOF 4
ENDMDL
MODEL 3
REMARK VINA RESULT:      -7.8      1.674      4.972
REMARK  Name = *****
REMARK                            x       y       z     vdW  Elec       q    Type
REMARK                         _______ _______ _______ _____ _____    ______ ____
ROOT
ATOM      1  O   LIG    1       25.820 -23.356   8.184  0.00  0.00    -0.252 OA
ATOM      2  C   LIG    1       25.248 -22.606   7.404  0.00  0.00    +0.306 C 
ATOM      3  N   LIG    1       24.194 -22.940   6.539  0.00  0.00    -0.272 N 
ATOM      4  C   LIG    1       23.502 -21.713   6.167  0.00  0.00    +0.152 C 
ATOM      5  C   LIG    1       22.891 -21.633   4.784  0.00  0.00    +0.302 C 
ATOM      6  S   LIG    1       24.263 -21.445   3.606  0.00  0.00    -0.004 S 
ATOM      7  C   LIG    1       25.300 -20.557   4.876  0.00  0.00    +0.230 C 
ATOM      8  C   LIG    1       25.432 -19.122   4.363  0.00  0.00    +0.064 C 
ATOM      9  C   LIG    1       24.086 -18.743   3.765  0.00  0.00    +0.059 C 
ATOM     10  C   LIG    1       23.715 -19.883   2.834  0.00  0.00    +0.278 C 
ATOM     11  C   LIG    1       24.601 -20.654   6.257  0.00  0.00    +0.155 C 
ATOM     12  N   LIG    1       25.469 -21.231   7.273  0.00  0.00    -0.271 N 
ENDROOT
BRANCH   3  13
ATOM     13  C   LIG    1       23.518 -24.218   6.639  0.00  0.00    +0.145 C 
BRANCH  13  14
ATOM     14  C   LIG    1       24.308 -25.362   6.047  0.00  0.00    -0.030 A 
ATOM     15  C   LIG    1       24.335 -26.617   6.673  0.00  0.00    +0.005 A 
ATOM     16  C   LIG    1       25.023 -27.687   6.095  0.00  0.00    +0.000 A 
ATOM     17  C   LIG    1       25.702 -27.514   4.890  0.00  0.00    +0.000 A 
ATOM     18  C   LIG    1       25.700 -26.269   4.268  0.00  0.00    +0.000 A 
ATOM     19  C   LIG    1       25.011 -25.200   4.844  0.00  0.00    +0.005 A 
ENDBRANCH  13  14
ENDBRANCH   3  13
BRANCH  12  20
ATOM     20  C   LIG    1       26.283 -20.454   8.185  0.00  0.00    +0.145 C 
BRANCH  20  21
ATOM     21  C   LIG    1       27.724 -20.356   7.732  0.00  0.00    -0.030 A 
ATOM     22  C   LIG    1       28.100 -19.504   6.681  0.00  0.00    +0.005 A 
ATOM     23  C   LIG    1       29.433 -19.423   6.272  0.00  0.00    +0.000 A 
ATOM     24  C   LIG    1       30.409 -20.185   6.911  0.00  0.00    +0.000 A 
ATOM     25  C   LIG    1       30.052 -21.027   7.962  0.00  0.00    +0.000 A 
ATOM     26  C   LIG    1       28.719 -21.111   8.372  0.00  0.00    +0.005 A 
ENDBRANCH  20  21
ENDBRANCH  12  20
TORSDOF 4
ENDMDL
MODEL 4
REMARK VINA RESULT:      -7.0      6.710      9.823
REMARK  Name = *****
REMARK                            x       y       z     vdW  Elec       q    Type
REMARK                         _______ _______ _______ _____ _____    ______ ____
ROOT
ATOM      1  O   LIG    1       22.518 -30.222   9.629  0.00  0.00    -0.252 OA
ATOM      2  C   LIG    1       23.492 -30.239  10.369  0.00  0.00    +0.306 C 
ATOM      3  N   LIG    1       23.479 -30.264  11.773  0.00  0.00    -0.272 N 
ATOM      4  C   LIG    1       24.769 -30.762  12.233  0.00  0.00    +0.152 C 
ATOM      5  C   LIG    1       25.313 -30.224  13.540  0.00  0.00    +0.302 C 
ATOM      6  S   LIG    1       25.865 -28.520  13.225  0.00  0.00    -0.004 S 
ATOM      7  C   LIG    1       26.266 -28.923  11.449  0.00  0.00    +0.230 C 
ATOM      8  C   LIG    1       27.788 -28.817  11.340  0.00  0.00    +0.064 C 
ATOM      9  C   LIG    1       28.362 -29.394  12.625  0.00  0.00    +0.059 C 
ATOM     10  C   LIG    1       27.602 -28.720  13.753  0.00  0.00    +0.278 C 
ATOM     11  C   LIG    1       25.723 -30.337  11.116  0.00  0.00    +0.155 C 
ATOM     12  N   LIG    1       24.829 -30.327   9.968  0.00  0.00    -0.271 N 
ENDROOT
BRANCH   3  13
ATOM     13  C   LIG    1       22.249 -30.484  12.508  0.00  0.00    +0.145 C 
BRANCH  13  14
ATOM     14  C   LIG    1       21.593 -29.206  12.973  0.00  0.00    -0.030 A 
ATOM     15  C   LIG    1       22.248 -27.972  12.841  0.00  0.00    +0.005 A 
ATOM     16  C   LIG    1       21.616 -26.785  13.223  0.00  0.00    +0.000 A 
ATOM     17  C   LIG    1       20.326 -26.817  13.750  0.00  0.00    +0.000 A 
ATOM     18  C   LIG    1       19.671 -28.036  13.903  0.00  0.00    +0.000 A 
ATOM     19  C   LIG    1       20.302 -29.221  13.521  0.00  0.00    +0.005 A 
ENDBRANCH  13  14
ENDBRANCH   3  13
BRANCH  12  20
ATOM     20  C   LIG    1       25.248 -30.603   8.609  0.00  0.00    +0.145 C 
BRANCH  20  21
ATOM     21  C   LIG    1       25.171 -29.379   7.721  0.00  0.00    -0.030 A 
ATOM     22  C   LIG    1       25.956 -28.244   7.980  0.00  0.00    +0.005 A 
ATOM     23  C   LIG    1       25.876 -27.119   7.153  0.00  0.00    +0.000 A 
ATOM     24  C   LIG    1       25.018 -27.118   6.056  0.00  0.00    +0.000 A 
ATOM     25  C   LIG    1       24.242 -28.242   5.781  0.00  0.00    +0.000 A 
ATOM     26  C   LIG    1       24.318 -29.365   6.607  0.00  0.00    +0.005 A 
ENDBRANCH  20  21
ENDBRANCH  12  20
TORSDOF 4
ENDMDL
MODEL 5
REMARK VINA RESULT:      -7.0      5.751      8.818
REMARK  Name = *****
REMARK                            x       y       z     vdW  Elec       q    Type
REMARK                         _______ _______ _______ _____ _____    ______ ____
ROOT
ATOM      1  O   LIG    1       26.523 -28.612  11.286  0.00  0.00    -0.252 OA
ATOM      2  C   LIG    1       25.756 -29.215  10.546  0.00  0.00    +0.306 C 
ATOM      3  N   LIG    1       24.645 -29.981  10.934  0.00  0.00    -0.272 N 
ATOM      4  C   LIG    1       23.755 -30.107   9.787  0.00  0.00    +0.152 C 
ATOM      5  C   LIG    1       22.954 -31.384   9.647  0.00  0.00    +0.302 C 
ATOM      6  S   LIG    1       24.115 -32.687   9.134  0.00  0.00    -0.004 S 
ATOM      7  C   LIG    1       25.193 -31.449   8.249  0.00  0.00    +0.230 C 
ATOM      8  C   LIG    1       25.065 -31.788   6.762  0.00  0.00    +0.064 C 
ATOM      9  C   LIG    1       23.612 -32.165   6.520  0.00  0.00    +0.059 C 
ATOM     10  C   LIG    1       23.268 -33.183   7.594  0.00  0.00    +0.278 C 
ATOM     11  C   LIG    1       24.709 -30.018   8.596  0.00  0.00    +0.155 C 
ATOM     12  N   LIG    1       25.776 -29.196   9.148  0.00  0.00    -0.271 N 
ENDROOT
BRANCH   3  13
ATOM     13  C   LIG    1       24.161 -29.963  12.300  0.00  0.00    +0.145 C 
BRANCH  13  14
ATOM     14  C   LIG    1       23.258 -28.790  12.601  0.00  0.00    -0.030 A 
ATOM     15  C   LIG    1       21.870 -28.889  12.428  0.00  0.00    +0.005 A 
ATOM     16  C   LIG    1       21.032 -27.819  12.757  0.00  0.00    +0.000 A 
ATOM     17  C   LIG    1       21.573 -26.635  13.255  0.00  0.00    +0.000 A 
ATOM     18  C   LIG    1       22.951 -26.516  13.413  0.00  0.00    +0.000 A 
ATOM     19  C   LIG    1       23.787 -27.584  13.085  0.00  0.00    +0.005 A 
ENDBRANCH  13  14
ENDBRANCH   3  13
BRANCH  12  20
ATOM     20  C   LIG    1       26.600 -28.298   8.365  0.00  0.00    +0.145 C 
BRANCH  20  21
ATOM     21  C   LIG    1       25.794 -27.506   7.357  0.00  0.00    -0.030 A 
ATOM     22  C   LIG    1       25.868 -26.105   7.307  0.00  0.00    +0.005 A 
ATOM     23  C   LIG    1       25.119 -25.385   6.373  0.00  0.00    +0.000 A 
ATOM     24  C   LIG    1       24.294 -26.056   5.472  0.00  0.00    +0.000 A 
ATOM     25  C   LIG    1       24.220 -27.447   5.503  0.00  0.00    +0.000 A 
ATOM     26  C   LIG    1       24.966 -28.168   6.438  0.00  0.00    +0.005 A 
ENDBRANCH  20  21
ENDBRANCH  12  20
TORSDOF 4
ENDMDL
MODEL 6
REMARK VINA RESULT:      -6.6      2.510      6.019
REMARK  Name = *****
REMARK                            x       y       z     vdW  Elec       q    Type
REMARK                         _______ _______ _______ _____ _____    ______ ____
ROOT
ATOM      1  O   LIG    1       24.079 -20.260   5.684  0.00  0.00    -0.252 OA
ATOM      2  C   LIG    1       25.286 -20.352   5.864  0.00  0.00    +0.306 C 
ATOM      3  N   LIG    1       25.930 -21.025   6.915  0.00  0.00    -0.272 N 
ATOM      4  C   LIG    1       27.299 -21.307   6.506  0.00  0.00    +0.152 C 
ATOM      5  C   LIG    1       28.373 -21.308   7.573  0.00  0.00    +0.302 C 
ATOM      6  S   LIG    1       28.664 -19.574   8.037  0.00  0.00    -0.004 S 
ATOM      7  C   LIG    1       28.203 -18.986   6.329  0.00  0.00    +0.230 C 
ATOM      8  C   LIG    1       29.495 -18.432   5.725  0.00  0.00    +0.064 C 
ATOM      9  C   LIG    1       30.618 -19.357   6.168  0.00  0.00    +0.059 C 
ATOM     10  C   LIG    1       30.452 -19.515   7.669  0.00  0.00    +0.278 C 
ATOM     11  C   LIG    1       27.610 -20.173   5.528  0.00  0.00    +0.155 C 
ATOM     12  N   LIG    1       26.284 -19.878   5.006  0.00  0.00    -0.271 N 
ENDROOT
BRANCH   3  13
ATOM     13  C   LIG    1       25.191 -21.884   7.819  0.00  0.00    +0.145 C 
BRANCH  13  14
ATOM     14  C   LIG    1       24.918 -23.257   7.251  0.00  0.00    -0.030 A 
ATOM     15  C   LIG    1       23.635 -23.607   6.804  0.00  0.00    +0.005 A 
ATOM     16  C   LIG    1       23.397 -24.859   6.230  0.00  0.00    +0.000 A 
ATOM     17  C   LIG    1       24.436 -25.780   6.105  0.00  0.00    +0.000 A 
ATOM     18  C   LIG    1       25.710 -25.453   6.562  0.00  0.00    +0.000 A 
ATOM     19  C   LIG    1       25.948 -24.202   7.134  0.00  0.00    +0.005 A 
ENDBRANCH  13  14
ENDBRANCH   3  13
BRANCH  12  20
ATOM     20  C   LIG    1       26.029 -19.370   3.674  0.00  0.00    +0.145 C 
BRANCH  20  21
ATOM     21  C   LIG    1       25.866 -17.865   3.651  0.00  0.00    -0.030 A 
ATOM     22  C   LIG    1       26.976 -17.016   3.510  0.00  0.00    +0.005 A 
ATOM     23  C   LIG    1       26.813 -15.628   3.491  0.00  0.00    +0.000 A 
ATOM     24  C   LIG    1       25.542 -15.072   3.604  0.00  0.00    +0.000 A 
ATOM     25  C   LIG    1       24.430 -15.902   3.734  0.00  0.00    +0.000 A 
ATOM     26  C   LIG    1       24.591 -17.289   3.755  0.00  0.00    +0.005 A 
ENDBRANCH  20  21
ENDBRANCH  12  20
TORSDOF 4
ENDMDL
MODEL 7
REMARK VINA RESULT:      -6.6      5.840      9.789
REMARK  Name = *****
REMARK                            x       y       z     vdW  Elec       q    Type
REMARK                         _______ _______ _______ _____ _____    ______ ____
ROOT
ATOM      1  O   LIG    1       26.936 -31.656   8.922  0.00  0.00    -0.252 OA
ATOM      2  C   LIG    1       26.276 -30.769   8.396  0.00  0.00    +0.306 C 
ATOM      3  N   LIG    1       25.421 -30.903   7.291  0.00  0.00    -0.272 N 
ATOM      4  C   LIG    1       24.491 -29.781   7.295  0.00  0.00    +0.152 C 
ATOM      5  C   LIG    1       24.013 -29.251   5.960  0.00  0.00    +0.302 C 
ATOM      6  S   LIG    1       25.405 -28.346   5.217  0.00  0.00    -0.004 S 
ATOM      7  C   LIG    1       26.071 -27.888   6.898  0.00  0.00    +0.230 C 
ATOM      8  C   LIG    1       25.900 -26.372   7.005  0.00  0.00    +0.064 C 
ATOM      9  C   LIG    1       24.565 -26.033   6.360  0.00  0.00    +0.059 C 
ATOM     10  C   LIG    1       24.571 -26.734   5.012  0.00  0.00    +0.278 C 
ATOM     11  C   LIG    1       25.288 -28.672   7.983  0.00  0.00    +0.155 C 
ATOM     12  N   LIG    1       26.169 -29.449   8.843  0.00  0.00    -0.271 N 
ENDROOT
BRANCH   3  13
ATOM     13  C   LIG    1       25.067 -32.209   6.769  0.00  0.00    +0.145 C 
BRANCH  13  14
ATOM     14  C   LIG    1       25.902 -32.624   5.581  0.00  0.00    -0.030 A 
ATOM     15  C   LIG    1       27.061 -33.397   5.752  0.00  0.00    +0.005 A 
ATOM     16  C   LIG    1       27.802 -33.825   4.647  0.00  0.00    +0.000 A 
ATOM     17  C   LIG    1       27.399 -33.479   3.358  0.00  0.00    +0.000 A 
ATOM     18  C   LIG    1       26.262 -32.697   3.175  0.00  0.00    +0.000 A 
ATOM     19  C   LIG    1       25.521 -32.270   4.279  0.00  0.00    +0.005 A 
ENDBRANCH  13  14
ENDBRANCH   3  13
BRANCH  12  20
ATOM     20  C   LIG    1       26.681 -28.983  10.116  0.00  0.00    +0.145 C 
BRANCH  20  21
ATOM     21  C   LIG    1       25.596 -28.862  11.165  0.00  0.00    -0.030 A 
ATOM     22  C   LIG    1       24.471 -29.701  11.147  0.00  0.00    +0.005 A 
ATOM     23  C   LIG    1       23.476 -29.580  12.121  0.00  0.00    +0.000 A 
ATOM     24  C   LIG    1       23.597 -28.625  13.128  0.00  0.00    +0.000 A 
ATOM     25  C   LIG    1       24.714 -27.793  13.165  0.00  0.00    +0.000 A 
ATOM     26  C   LIG    1       25.708 -27.912  12.191  0.00  0.00    +0.005 A 
ENDBRANCH  20  21
ENDBRANCH  12  20
TORSDOF 4
ENDMDL
MODEL 8
REMARK VINA RESULT:      -6.6      1.771      4.942
REMARK  Name = *****
REMARK                            x       y       z     vdW  Elec       q    Type
REMARK                         _______ _______ _______ _____ _____    ______ ____
ROOT
ATOM      1  O   LIG    1       23.630 -24.439   6.232  0.00  0.00    -0.252 OA
ATOM      2  C   LIG    1       24.409 -23.631   6.721  0.00  0.00    +0.306 C 
ATOM      3  N   LIG    1       24.235 -22.241   6.803  0.00  0.00    -0.272 N 
ATOM      4  C   LIG    1       25.112 -21.731   7.849  0.00  0.00    +0.152 C 
ATOM      5  C   LIG    1       25.694 -20.344   7.675  0.00  0.00    +0.302 C 
ATOM      6  S   LIG    1       26.975 -20.462   6.390  0.00  0.00    -0.004 S 
ATOM      7  C   LIG    1       27.344 -22.231   6.847  0.00  0.00    +0.230 C 
ATOM      8  C   LIG    1       28.757 -22.214   7.433  0.00  0.00    +0.064 C 
ATOM      9  C   LIG    1       28.873 -20.948   8.267  0.00  0.00    +0.059 C 
ATOM     10  C   LIG    1       28.375 -19.823   7.376  0.00  0.00    +0.278 C 
ATOM     11  C   LIG    1       26.270 -22.730   7.848  0.00  0.00    +0.155 C 
ATOM     12  N   LIG    1       25.603 -23.937   7.383  0.00  0.00    -0.271 N 
ENDROOT
BRANCH   3  13
ATOM     13  C   LIG    1       22.964 -21.623   6.479  0.00  0.00    +0.145 C 
BRANCH  13  14
ATOM     14  C   LIG    1       23.069 -20.564   5.407  0.00  0.00    -0.030 A 
ATOM     15  C   LIG    1       22.279 -19.405   5.462  0.00  0.00    +0.005 A 
ATOM     16  C   LIG    1       22.417 -18.403   4.498  0.00  0.00    +0.000 A 
ATOM     17  C   LIG    1       23.338 -18.549   3.462  0.00  0.00    +0.000 A 
ATOM     18  C   LIG    1       24.115 -19.702   3.385  0.00  0.00    +0.000 A 
ATOM     19  C   LIG    1       23.978 -20.703   4.349  0.00  0.00    +0.005 A 
ENDBRANCH  13  14
ENDBRANCH   3  13
BRANCH  12  20
ATOM     20  C   LIG    1       25.999 -25.280   7.754  0.00  0.00    +0.145 C 
BRANCH  20  21
ATOM     21  C   LIG    1       25.683 -26.294   6.675  0.00  0.00    -0.030 A 
ATOM     22  C   LIG    1       26.321 -26.249   5.426  0.00  0.00    +0.005 A 
ATOM     23  C   LIG    1       26.020 -27.191   4.438  0.00  0.00    +0.000 A 
ATOM     24  C   LIG    1       25.085 -28.192   4.689  0.00  0.00    +0.000 A 
ATOM     25  C   LIG    1       24.451 -28.255   5.928  0.00  0.00    +0.000 A 
ATOM     26  C   LIG    1       24.749 -27.313   6.916  0.00  0.00    +0.005 A 
ENDBRANCH  20  21
ENDBRANCH  12  20
TORSDOF 4
ENDMDL
MODEL 9
REMARK VINA RESULT:      -6.5      7.041      9.790
REMARK  Name = *****
REMARK                            x       y       z     vdW  Elec       q    Type
REMARK                         _______ _______ _______ _____ _____    ______ ____
ROOT
ATOM      1  O   LIG    1       26.685 -30.606  11.571  0.00  0.00    -0.252 OA
ATOM      2  C   LIG    1       25.478 -30.410  11.513  0.00  0.00    +0.306 C 
ATOM      3  N   LIG    1       24.668 -29.860  12.518  0.00  0.00    -0.272 N 
ATOM      4  C   LIG    1       23.448 -29.357  11.898  0.00  0.00    +0.152 C 
ATOM      5  C   LIG    1       22.166 -29.418  12.702  0.00  0.00    +0.302 C 
ATOM      6  S   LIG    1       21.653 -31.162  12.754  0.00  0.00    -0.004 S 
ATOM      7  C   LIG    1       22.439 -31.497  11.096  0.00  0.00    +0.230 C 
ATOM      8  C   LIG    1       21.277 -31.788  10.145  0.00  0.00    +0.064 C 
ATOM      9  C   LIG    1       20.154 -30.832  10.517  0.00  0.00    +0.059 C 
ATOM     10  C   LIG    1       19.992 -30.954  12.022  0.00  0.00    +0.278 C 
ATOM     11  C   LIG    1       23.281 -30.264  10.678  0.00  0.00    +0.155 C 
ATOM     12  N   LIG    1       24.665 -30.614  10.393  0.00  0.00    -0.271 N 
ENDROOT
BRANCH   3  13
ATOM     13  C   LIG    1       25.246 -29.258  13.703  0.00  0.00    +0.145 C 
BRANCH  13  14
ATOM     14  C   LIG    1       25.360 -27.754  13.616  0.00  0.00    -0.030 A 
ATOM     15  C   LIG    1       24.420 -26.925  14.247  0.00  0.00    +0.005 A 
ATOM     16  C   LIG    1       24.558 -25.534  14.210  0.00  0.00    +0.000 A 
ATOM     17  C   LIG    1       25.631 -24.955  13.534  0.00  0.00    +0.000 A 
ATOM     18  C   LIG    1       26.560 -25.765  12.888  0.00  0.00    +0.000 A 
ATOM     19  C   LIG    1       26.423 -27.154  12.926  0.00  0.00    +0.005 A 
ENDBRANCH  13  14
ENDBRANCH   3  13
BRANCH  12  20
ATOM     20  C   LIG    1       25.173 -30.911   9.070  0.00  0.00    +0.145 C 
BRANCH  20  21
ATOM     21  C   LIG    1       25.154 -29.702   8.159  0.00  0.00    -0.030 A 
ATOM     22  C   LIG    1       24.294 -29.640   7.051  0.00  0.00    +0.005 A 
ATOM     23  C   LIG    1       24.287 -28.518   6.218  0.00  0.00    +0.000 A 
ATOM     24  C   LIG    1       25.131 -27.443   6.484  0.00  0.00    +0.000 A 
ATOM     25  C   LIG    1       25.982 -27.487   7.587  0.00  0.00    +0.000 A 
ATOM     26  C   LIG    1       25.993 -28.608   8.420  0.00  0.00    +0.005 A 
ENDBRANCH  20  21
ENDBRANCH  12  20
TORSDOF 4
ENDMDL
