MODEL 1
REMARK VINA RESULT:      -6.5      0.000      0.000
REMARK  Name = *****
REMARK                            x       y       z     vdW  Elec       q    Type
REMARK                         _______ _______ _______ _____ _____    ______ ____
ROOT
ATOM      1  C   LIG    1       24.760 -21.250   5.901  0.00  0.00    +0.024 C 
ATOM      2  C   LIG    1       23.485 -20.407   6.103  0.00  0.00    +0.028 C 
ATOM      3  C   LIG    1       24.685 -22.767   6.412  0.00  0.00    -0.014 C 
ATOM      4  C   LIG    1       24.996 -23.836   5.329  0.00  0.00    +0.013 C 
ATOM      5  C   LIG    1       23.324 -23.171   7.011  0.00  0.00    +0.013 C 
ATOM      6  C   LIG    1       25.852 -22.820   7.465  0.00  0.00    -0.003 C 
ATOM      7  C   LIG    1       26.906 -21.896   6.845  0.00  0.00    +0.009 C 
ATOM      8  C   LIG    1       25.517 -22.039   8.747  0.00  0.00    +0.004 C 
ATOM      9  C   LIG    1       25.580 -20.582   8.286  0.00  0.00    +0.005 C 
ATOM     10  C   LIG    1       25.946 -20.702   6.792  0.00  0.00    +0.010 C 
ENDROOT
BRANCH   1  12
ATOM     11  C   LIG    1       25.116 -19.827   3.877  0.00  0.00    +0.101 C 
ATOM     12  N   LIG    1       25.237 -21.138   4.498  0.00  0.00    -0.313 NA
ATOM     13  H   LIG    1       26.214 -21.425   4.443  0.00  0.00    +0.122 HD
ENDBRANCH   1  12
TORSDOF 1
ENDMDL
MODEL 2
REMARK VINA RESULT:      -6.4      1.391      3.402
REMARK  Name = *****
REMARK                            x       y       z     vdW  Elec       q    Type
REMARK                         _______ _______ _______ _____ _____    ______ ____
ROOT
ATOM      1  C   LIG    1       24.799 -22.602   5.833  0.00  0.00    +0.024 C 
ATOM      2  C   LIG    1       25.818 -23.198   6.824  0.00  0.00    +0.028 C 
ATOM      3  C   LIG    1       24.989 -21.049   5.482  0.00  0.00    -0.014 C 
ATOM      4  C   LIG    1       25.154 -20.739   3.969  0.00  0.00    +0.013 C 
ATOM      5  C   LIG    1       26.193 -20.382   6.173  0.00  0.00    +0.013 C 
ATOM      6  C   LIG    1       23.612 -20.437   5.933  0.00  0.00    -0.003 C 
ATOM      7  C   LIG    1       22.619 -21.552   5.588  0.00  0.00    +0.009 C 
ATOM      8  C   LIG    1       23.465 -20.397   7.464  0.00  0.00    +0.004 C 
ATOM      9  C   LIG    1       23.284 -21.872   7.828  0.00  0.00    +0.005 C 
ATOM     10  C   LIG    1       23.347 -22.582   6.460  0.00  0.00    +0.010 C 
ENDROOT
BRANCH   1  12
ATOM     11  C   LIG    1       24.975 -24.874   4.806  0.00  0.00    +0.101 C 
ATOM     12  N   LIG    1       24.695 -23.457   4.622  0.00  0.00    -0.313 NA
ATOM     13  H   LIG    1       23.762 -23.369   4.219  0.00  0.00    +0.122 HD
ENDBRANCH   1  12
TORSDOF 1
ENDMDL
MODEL 3
REMARK VINA RESULT:      -6.0      1.378      3.598
REMARK  Name = *****
REMARK                            x       y       z     vdW  Elec       q    Type
REMARK                         _______ _______ _______ _____ _____    ______ ____
ROOT
ATOM      1  C   LIG    1       24.172 -22.368   5.821  0.00  0.00    +0.024 C 
ATOM      2  C   LIG    1       23.249 -23.128   6.794  0.00  0.00    +0.028 C 
ATOM      3  C   LIG    1       24.800 -21.001   6.374  0.00  0.00    -0.014 C 
ATOM      4  C   LIG    1       26.351 -20.935   6.339  0.00  0.00    +0.013 C 
ATOM      5  C   LIG    1       24.405 -20.659   7.823  0.00  0.00    +0.013 C 
ATOM      6  C   LIG    1       24.267 -19.948   5.334  0.00  0.00    -0.003 C 
ATOM      7  C   LIG    1       24.279 -20.737   4.021  0.00  0.00    +0.009 C 
ATOM      8  C   LIG    1       22.759 -19.687   5.489  0.00  0.00    +0.004 C 
ATOM      9  C   LIG    1       22.133 -20.982   4.968  0.00  0.00    +0.005 C 
ATOM     10  C   LIG    1       23.359 -21.832   4.575  0.00  0.00    +0.010 C 
ENDROOT
BRANCH   1  12
ATOM     11  C   LIG    1       25.256 -24.621   5.837  0.00  0.00    +0.101 C 
ATOM     12  N   LIG    1       25.197 -23.286   5.258  0.00  0.00    -0.313 NA
ATOM     13  H   LIG    1       25.057 -23.383   4.253  0.00  0.00    +0.122 HD
ENDBRANCH   1  12
TORSDOF 1
ENDMDL
MODEL 4
REMARK VINA RESULT:      -5.9      1.282      3.218
REMARK  Name = *****
REMARK                            x       y       z     vdW  Elec       q    Type
REMARK                         _______ _______ _______ _____ _____    ______ ____
ROOT
ATOM      1  C   LIG    1       24.733 -22.491   6.629  0.00  0.00    +0.024 C 
ATOM      2  C   LIG    1       25.132 -23.580   5.613  0.00  0.00    +0.028 C 
ATOM      3  C   LIG    1       24.717 -20.987   6.074  0.00  0.00    -0.014 C 
ATOM      4  C   LIG    1       23.363 -20.246   6.239  0.00  0.00    +0.013 C 
ATOM      5  C   LIG    1       25.081 -20.854   4.583  0.00  0.00    +0.013 C 
ATOM      6  C   LIG    1       25.753 -20.276   7.019  0.00  0.00    -0.003 C 
ATOM      7  C   LIG    1       25.523 -20.979   8.361  0.00  0.00    +0.009 C 
ATOM      8  C   LIG    1       27.201 -20.704   6.725  0.00  0.00    +0.004 C 
ATOM      9  C   LIG    1       27.244 -22.143   7.244  0.00  0.00    +0.005 C 
ATOM     10  C   LIG    1       25.813 -22.366   7.776  0.00  0.00    +0.010 C 
ENDROOT
BRANCH   1  12
ATOM     11  C   LIG    1       22.682 -23.919   6.692  0.00  0.00    +0.101 C 
ATOM     12  N   LIG    1       23.468 -22.864   7.315  0.00  0.00    -0.313 NA
ATOM     13  H   LIG    1       23.668 -23.144   8.275  0.00  0.00    +0.122 HD
ENDBRANCH   1  12
TORSDOF 1
ENDMDL
MODEL 5
REMARK VINA RESULT:      -5.8      1.375      2.825
REMARK  Name = *****
REMARK                            x       y       z     vdW  Elec       q    Type
REMARK                         _______ _______ _______ _____ _____    ______ ____
ROOT
ATOM      1  C   LIG    1       25.100 -21.106   6.015  0.00  0.00    +0.024 C 
ATOM      2  C   LIG    1       25.380 -20.820   4.526  0.00  0.00    +0.028 C 
ATOM      3  C   LIG    1       24.840 -22.641   6.396  0.00  0.00    -0.014 C 
ATOM      4  C   LIG    1       25.791 -23.212   7.483  0.00  0.00    +0.013 C 
ATOM      5  C   LIG    1       24.937 -23.618   5.209  0.00  0.00    +0.013 C 
ATOM      6  C   LIG    1       23.399 -22.586   7.023  0.00  0.00    -0.003 C 
ATOM      7  C   LIG    1       23.398 -21.235   7.745  0.00  0.00    +0.009 C 
ATOM      8  C   LIG    1       22.312 -22.337   5.964  0.00  0.00    +0.004 C 
ATOM      9  C   LIG    1       22.538 -20.874   5.579  0.00  0.00    +0.005 C 
ATOM     10  C   LIG    1       23.730 -20.458   6.466  0.00  0.00    +0.010 C 
ENDROOT
BRANCH   1  12
ATOM     11  C   LIG    1       27.429 -20.225   6.239  0.00  0.00    +0.101 C 
ATOM     12  N   LIG    1       26.138 -20.469   6.867  0.00  0.00    -0.313 NA
ATOM     13  H   LIG    1       25.789 -19.581   7.227  0.00  0.00    +0.122 HD
ENDBRANCH   1  12
TORSDOF 1
ENDMDL
MODEL 6
REMARK VINA RESULT:      -5.8      1.349      2.663
REMARK  Name = *****
REMARK                            x       y       z     vdW  Elec       q    Type
REMARK                         _______ _______ _______ _____ _____    ______ ____
ROOT
ATOM      1  C   LIG    1       24.607 -22.440   5.801  0.00  0.00    +0.024 C 
ATOM      2  C   LIG    1       24.709 -21.745   4.428  0.00  0.00    +0.028 C 
ATOM      3  C   LIG    1       23.783 -21.649   6.926  0.00  0.00    -0.014 C 
ATOM      4  C   LIG    1       22.598 -22.442   7.542  0.00  0.00    +0.013 C 
ATOM      5  C   LIG    1       23.184 -20.311   6.455  0.00  0.00    +0.013 C 
ATOM      6  C   LIG    1       24.858 -21.469   8.059  0.00  0.00    -0.003 C 
ATOM      7  C   LIG    1       25.667 -22.767   7.964  0.00  0.00    +0.009 C 
ATOM      8  C   LIG    1       25.938 -20.441   7.680  0.00  0.00    +0.004 C 
ATOM      9  C   LIG    1       26.742 -21.171   6.602  0.00  0.00    +0.005 C 
ATOM     10  C   LIG    1       26.026 -22.533   6.493  0.00  0.00    +0.010 C 
ENDROOT
BRANCH   1  12
ATOM     11  C   LIG    1       25.109 -24.766   5.036  0.00  0.00    +0.101 C 
ATOM     12  N   LIG    1       24.154 -23.846   5.637  0.00  0.00    -0.313 NA
ATOM     13  H   LIG    1       23.876 -24.225   6.542  0.00  0.00    +0.122 HD
ENDBRANCH   1  12
TORSDOF 1
ENDMDL
MODEL 7
REMARK VINA RESULT:      -5.8      1.051      1.107
REMARK  Name = *****
REMARK                            x       y       z     vdW  Elec       q    Type
REMARK                         _______ _______ _______ _____ _____    ______ ____
ROOT
ATOM      1  C   LIG    1       24.583 -21.514   5.882  0.00  0.00    +0.024 C 
ATOM      2  C   LIG    1       23.788 -20.200   5.751  0.00  0.00    +0.028 C 
ATOM      3  C   LIG    1       24.114 -22.502   7.054  0.00  0.00    -0.014 C 
ATOM      4  C   LIG    1       23.732 -23.933   6.585  0.00  0.00    +0.013 C 
ATOM      5  C   LIG    1       22.907 -21.999   7.867  0.00  0.00    +0.013 C 
ATOM      6  C   LIG    1       25.420 -22.632   7.920  0.00  0.00    -0.003 C 
ATOM      7  C   LIG    1       26.530 -22.590   6.864  0.00  0.00    +0.009 C 
ATOM      8  C   LIG    1       25.732 -21.343   8.701  0.00  0.00    +0.004 C 
ATOM      9  C   LIG    1       26.182 -20.378   7.602  0.00  0.00    +0.005 C 
ATOM     10  C   LIG    1       26.075 -21.230   6.321  0.00  0.00    +0.010 C 
ENDROOT
BRANCH   1  12
ATOM     11  C   LIG    1       24.190 -21.444   3.414  0.00  0.00    +0.101 C 
ATOM     12  N   LIG    1       24.681 -22.192   4.563  0.00  0.00    -0.313 NA
ATOM     13  H   LIG    1       25.651 -22.450   4.380  0.00  0.00    +0.122 HD
ENDBRANCH   1  12
TORSDOF 1
ENDMDL
MODEL 8
REMARK VINA RESULT:      -5.7      1.135      3.031
REMARK  Name = *****
REMARK                            x       y       z     vdW  Elec       q    Type
REMARK                         _______ _______ _______ _____ _____    ______ ____
ROOT
ATOM      1  C   LIG    1       24.627 -21.182   5.985  0.00  0.00    +0.024 C 
ATOM      2  C   LIG    1       25.236 -20.748   4.637  0.00  0.00    +0.028 C 
ATOM      3  C   LIG    1       25.670 -21.444   7.173  0.00  0.00    -0.014 C 
ATOM      4  C   LIG    1       25.421 -20.605   8.456  0.00  0.00    +0.013 C 
ATOM      5  C   LIG    1       27.142 -21.193   6.796  0.00  0.00    +0.013 C 
ATOM      6  C   LIG    1       25.384 -22.946   7.540  0.00  0.00    -0.003 C 
ATOM      7  C   LIG    1       23.871 -23.061   7.330  0.00  0.00    +0.009 C 
ATOM      8  C   LIG    1       25.889 -23.917   6.458  0.00  0.00    +0.004 C 
ATOM      9  C   LIG    1       24.909 -23.685   5.307  0.00  0.00    +0.005 C 
ATOM     10  C   LIG    1       23.957 -22.609   5.867  0.00  0.00    +0.010 C 
ENDROOT
BRANCH   1  12
ATOM     11  C   LIG    1       22.655 -19.805   5.304  0.00  0.00    +0.101 C 
ATOM     12  N   LIG    1       23.528 -20.260   6.376  0.00  0.00    -0.313 NA
ATOM     13  H   LIG    1       22.949 -20.701   7.090  0.00  0.00    +0.122 HD
ENDBRANCH   1  12
TORSDOF 1
ENDMDL
MODEL 9
REMARK VINA RESULT:      -5.7      1.201      2.772
REMARK  Name = *****
REMARK                            x       y       z     vdW  Elec       q    Type
REMARK                         _______ _______ _______ _____ _____    ______ ____
ROOT
ATOM      1  C   LIG    1       25.605 -21.039   6.426  0.00  0.00    +0.024 C 
ATOM      2  C   LIG    1       26.014 -20.582   7.840  0.00  0.00    +0.028 C 
ATOM      3  C   LIG    1       24.056 -20.857   6.052  0.00  0.00    -0.014 C 
ATOM      4  C   LIG    1       23.788 -20.004   4.782  0.00  0.00    +0.013 C 
ATOM      5  C   LIG    1       23.203 -20.221   7.165  0.00  0.00    +0.013 C 
ATOM      6  C   LIG    1       23.622 -22.332   5.720  0.00  0.00    -0.003 C 
ATOM      7  C   LIG    1       24.875 -22.911   5.057  0.00  0.00    +0.009 C 
ATOM      8  C   LIG    1       23.540 -23.213   6.978  0.00  0.00    +0.004 C 
ATOM      9  C   LIG    1       25.010 -23.401   7.359  0.00  0.00    +0.005 C 
ATOM     10  C   LIG    1       25.759 -22.605   6.271  0.00  0.00    +0.010 C 
ENDROOT
BRANCH   1  12
ATOM     11  C   LIG    1       27.814 -20.000   5.888  0.00  0.00    +0.101 C 
ATOM     12  N   LIG    1       26.515 -20.449   5.409  0.00  0.00    -0.313 NA
ATOM     13  H   LIG    1       26.670 -21.121   4.657  0.00  0.00    +0.122 HD
ENDBRANCH   1  12
TORSDOF 1
ENDMDL
