MODEL 1
REMARK VINA RESULT:      -6.2      0.000      0.000
REMARK  Name = *****
REMARK                            x       y       z     vdW  Elec       q    Type
REMARK                         _______ _______ _______ _____ _____    ______ ____
ROOT
ATOM      1  C   LIG    1       25.281 -22.179   6.153  0.00  0.00    +0.157 C 
ATOM      2  C   LIG    1       24.038 -21.638   6.889  0.00  0.00    +0.196 C 
ATOM      3  C   LIG    1       23.266 -20.720   6.011  0.00  0.00    +0.068 C 
ATOM      4  C   LIG    1       23.822 -20.041   4.998  0.00  0.00    +0.204 C 
ATOM      5  O   LIG    1       25.161 -20.107   4.664  0.00  0.00    -0.477 OA
ATOM      6  C   LIG    1       26.020 -21.065   5.355  0.00  0.00    +0.228 C 
ENDROOT
BRANCH   1   9
ATOM      7  C   LIG    1       24.874 -25.630   4.514  0.00  0.00    +0.109 C 
ATOM      8  C   LIG    1       25.270 -24.632   5.569  0.00  0.00    +0.210 C 
ATOM      9  N   LIG    1       24.952 -23.324   5.253  0.00  0.00    -0.305 N 
ATOM     10  H   LIG    1       24.549 -23.131   4.346  0.00  0.00    +0.149 HD
ATOM     11  O   LIG    1       25.835 -24.975   6.602  0.00  0.00    -0.276 OA
ENDBRANCH   1   9
BRANCH   2  12
ATOM     12  N   LIG    1       24.351 -20.921   8.127  0.00  0.00    -0.268 N 
ATOM     13  H   LIG    1       24.214 -19.909   8.013  0.00  0.00    +0.259 HD
BRANCH  12  14
ATOM     14  C   LIG    1       25.444 -21.184   8.880  0.00  0.00    +0.377 C 
ATOM     15  N   LIG    1       26.152 -20.356   9.556  0.00  0.00    -0.130 NA
ATOM     16  H   LIG    1       25.783 -19.416   9.434  0.00  0.00    +0.306 HD
BRANCH  14  17
ATOM     17  N   LIG    1       25.825 -22.476   8.877  0.00  0.00    -0.289 N 
ATOM     18  H   LIG    1       25.474 -22.904   9.731  0.00  0.00    +0.255 HD
ATOM     19  H   LIG    1       26.830 -22.596   8.842  0.00  0.00    +0.255 HD
ENDBRANCH  14  17
ENDBRANCH  12  14
ENDBRANCH   2  12
BRANCH   4  20
ATOM     20  C   LIG    1       22.934 -19.168   4.169  0.00  0.00    +0.372 C 
ATOM     21  O   LIG    1       21.699 -19.173   4.205  0.00  0.00    -0.242 OA
BRANCH  20  22
ATOM     22  O   LIG    1       23.641 -18.386   3.331  0.00  0.00    -0.475 OA
ATOM     23  H   LIG    1       23.883 -18.881   2.519  0.00  0.00    +0.295 HD
ENDBRANCH  20  22
ENDBRANCH   4  20
BRANCH   6  24
ATOM     24  C   LIG    1       27.110 -20.291   6.152  0.00  0.00    +0.188 C 
BRANCH  24  25
ATOM     25  O   LIG    1       27.800 -21.187   7.042  0.00  0.00    -0.385 OA
ATOM     26  H   LIG    1       28.569 -21.544   6.557  0.00  0.00    +0.210 HD
ENDBRANCH  24  25
BRANCH  24  27
ATOM     27  C   LIG    1       28.125 -19.507   5.278  0.00  0.00    +0.172 C 
BRANCH  27  28
ATOM     28  O   LIG    1       27.472 -18.510   4.494  0.00  0.00    -0.387 OA
ATOM     29  H   LIG    1       27.597 -17.659   4.961  0.00  0.00    +0.210 HD
ENDBRANCH  27  28
BRANCH  27  30
ATOM     30  C   LIG    1       29.271 -18.872   6.074  0.00  0.00    +0.190 C 
BRANCH  30  31
ATOM     31  O   LIG    1       29.988 -18.010   5.189  0.00  0.00    -0.392 OA
ATOM     32  H   LIG    1       29.991 -18.433   4.313  0.00  0.00    +0.209 HD
ENDBRANCH  30  31
ENDBRANCH  27  30
ENDBRANCH  24  27
ENDBRANCH   6  24
TORSDOF 12
ENDMDL
MODEL 2
REMARK VINA RESULT:      -6.0      7.393     10.632
REMARK  Name = *****
REMARK                            x       y       z     vdW  Elec       q    Type
REMARK                         _______ _______ _______ _____ _____    ______ ____
ROOT
ATOM      1  C   LIG    1       24.413 -31.398   7.505  0.00  0.00    +0.157 C 
ATOM      2  C   LIG    1       25.854 -31.945   7.561  0.00  0.00    +0.196 C 
ATOM      3  C   LIG    1       26.625 -31.279   8.644  0.00  0.00    +0.068 C 
ATOM      4  C   LIG    1       26.330 -30.056   9.103  0.00  0.00    +0.204 C 
ATOM      5  O   LIG    1       25.294 -29.278   8.623  0.00  0.00    -0.477 OA
ATOM      6  C   LIG    1       24.368 -29.849   7.648  0.00  0.00    +0.228 C 
ENDROOT
BRANCH   1   9
ATOM      7  C   LIG    1       21.885 -33.591   9.391  0.00  0.00    +0.109 C 
ATOM      8  C   LIG    1       22.720 -33.121   8.230  0.00  0.00    +0.210 C 
ATOM      9  N   LIG    1       23.526 -32.035   8.522  0.00  0.00    -0.305 N 
ATOM     10  H   LIG    1       23.453 -31.613   9.439  0.00  0.00    +0.149 HD
ATOM     11  O   LIG    1       22.662 -33.661   7.132  0.00  0.00    -0.276 OA
ENDBRANCH   1   9
BRANCH   2  12
ATOM     12  N   LIG    1       26.597 -31.779   6.310  0.00  0.00    -0.268 N 
ATOM     13  H   LIG    1       26.864 -30.798   6.165  0.00  0.00    +0.259 HD
BRANCH  12  14
ATOM     14  C   LIG    1       26.229 -32.362   5.146  0.00  0.00    +0.377 C 
ATOM     15  N   LIG    1       25.498 -31.869   4.215  0.00  0.00    -0.130 NA
ATOM     16  H   LIG    1       25.192 -30.937   4.482  0.00  0.00    +0.306 HD
BRANCH  14  17
ATOM     17  N   LIG    1       26.677 -33.624   4.989  0.00  0.00    -0.289 N 
ATOM     18  H   LIG    1       26.331 -34.174   5.772  0.00  0.00    +0.255 HD
ATOM     19  H   LIG    1       27.687 -33.688   4.966  0.00  0.00    +0.255 HD
ENDBRANCH  14  17
ENDBRANCH  12  14
ENDBRANCH   2  12
BRANCH   4  20
ATOM     20  C   LIG    1       27.165 -29.504  10.214  0.00  0.00    +0.372 C 
ATOM     21  O   LIG    1       28.094 -30.101  10.768  0.00  0.00    -0.242 OA
BRANCH  20  22
ATOM     22  O   LIG    1       26.761 -28.272  10.581  0.00  0.00    -0.475 OA
ATOM     23  H   LIG    1       25.994 -27.986  10.041  0.00  0.00    +0.295 HD
ENDBRANCH  20  22
ENDBRANCH   4  20
BRANCH   6  24
ATOM     24  C   LIG    1       24.479 -29.055   6.314  0.00  0.00    +0.188 C 
BRANCH  24  25
ATOM     25  O   LIG    1       23.282 -29.232   5.534  0.00  0.00    -0.385 OA
ATOM     26  H   LIG    1       23.537 -29.686   4.709  0.00  0.00    +0.210 HD
ENDBRANCH  24  25
BRANCH  24  27
ATOM     27  C   LIG    1       24.801 -27.546   6.476  0.00  0.00    +0.172 C 
BRANCH  27  28
ATOM     28  O   LIG    1       26.187 -27.339   6.743  0.00  0.00    -0.387 OA
ATOM     29  H   LIG    1       26.626 -27.228   5.875  0.00  0.00    +0.210 HD
ENDBRANCH  27  28
BRANCH  27  30
ATOM     30  C   LIG    1       24.369 -26.686   5.283  0.00  0.00    +0.190 C 
BRANCH  30  31
ATOM     31  O   LIG    1       23.652 -25.562   5.794  0.00  0.00    -0.392 OA
ATOM     32  H   LIG    1       24.206 -25.154   6.481  0.00  0.00    +0.209 HD
ENDBRANCH  30  31
ENDBRANCH  27  30
ENDBRANCH  24  27
ENDBRANCH   6  24
TORSDOF 12
ENDMDL
MODEL 3
REMARK VINA RESULT:      -5.8      6.605      9.658
REMARK  Name = *****
REMARK                            x       y       z     vdW  Elec       q    Type
REMARK                         _______ _______ _______ _____ _____    ______ ____
ROOT
ATOM      1  C   LIG    1       26.005 -30.512   8.032  0.00  0.00    +0.157 C 
ATOM      2  C   LIG    1       26.136 -30.354   9.561  0.00  0.00    +0.196 C 
ATOM      3  C   LIG    1       24.810 -30.498  10.218  0.00  0.00    +0.068 C 
ATOM      4  C   LIG    1       23.654 -30.240   9.591  0.00  0.00    +0.204 C 
ATOM      5  O   LIG    1       23.563 -29.809   8.282  0.00  0.00    -0.477 OA
ATOM      6  C   LIG    1       24.774 -29.746   7.468  0.00  0.00    +0.228 C 
ENDROOT
BRANCH   1   9
ATOM      7  C   LIG    1       25.993 -33.825   6.086  0.00  0.00    +0.109 C 
ATOM      8  C   LIG    1       26.101 -32.338   6.295  0.00  0.00    +0.210 C 
ATOM      9  N   LIG    1       25.957 -31.944   7.613  0.00  0.00    -0.305 N 
ATOM     10  H   LIG    1       25.736 -32.648   8.305  0.00  0.00    +0.149 HD
ATOM     11  O   LIG    1       26.287 -31.567   5.361  0.00  0.00    -0.276 OA
ENDBRANCH   1   9
BRANCH   2  12
ATOM     12  N   LIG    1       26.709 -29.072   9.975  0.00  0.00    -0.268 N 
ATOM     13  H   LIG    1       27.022 -28.528   9.162  0.00  0.00    +0.259 HD
BRANCH  12  14
ATOM     14  C   LIG    1       27.569 -28.944  11.011  0.00  0.00    +0.377 C 
ATOM     15  N   LIG    1       28.512 -29.742  11.355  0.00  0.00    -0.130 NA
ATOM     16  H   LIG    1       28.522 -30.543  10.730  0.00  0.00    +0.306 HD
BRANCH  14  17
ATOM     17  N   LIG    1       27.368 -27.849  11.770  0.00  0.00    -0.289 N 
ATOM     18  H   LIG    1       27.560 -27.033  11.193  0.00  0.00    +0.255 HD
ATOM     19  H   LIG    1       27.962 -27.816  12.589  0.00  0.00    +0.255 HD
ENDBRANCH  14  17
ENDBRANCH  12  14
ENDBRANCH   2  12
BRANCH   4  20
ATOM     20  C   LIG    1       22.383 -30.447  10.352  0.00  0.00    +0.372 C 
ATOM     21  O   LIG    1       21.410 -31.092   9.947  0.00  0.00    -0.242 OA
BRANCH  20  22
ATOM     22  O   LIG    1       22.397 -29.806  11.537  0.00  0.00    -0.475 OA
ATOM     23  H   LIG    1       23.141 -30.125  12.092  0.00  0.00    +0.295 HD
ENDBRANCH  20  22
ENDBRANCH   4  20
BRANCH   6  24
ATOM     24  C   LIG    1       25.041 -28.266   7.064  0.00  0.00    +0.188 C 
BRANCH  24  25
ATOM     25  O   LIG    1       26.378 -27.887   7.435  0.00  0.00    -0.385 OA
ATOM     26  H   LIG    1       26.923 -28.698   7.428  0.00  0.00    +0.210 HD
ENDBRANCH  24  25
BRANCH  24  27
ATOM     27  C   LIG    1       24.780 -27.940   5.570  0.00  0.00    +0.172 C 
BRANCH  27  28
ATOM     28  O   LIG    1       23.635 -28.636   5.079  0.00  0.00    -0.387 OA
ATOM     29  H   LIG    1       23.928 -29.548   4.878  0.00  0.00    +0.210 HD
ENDBRANCH  27  28
BRANCH  27  30
ATOM     30  C   LIG    1       24.642 -26.442   5.275  0.00  0.00    +0.190 C 
BRANCH  30  31
ATOM     31  O   LIG    1       25.957 -25.897   5.168  0.00  0.00    -0.392 OA
ATOM     32  H   LIG    1       25.916 -24.979   5.489  0.00  0.00    +0.209 HD
ENDBRANCH  30  31
ENDBRANCH  27  30
ENDBRANCH  24  27
ENDBRANCH   6  24
TORSDOF 12
ENDMDL
MODEL 4
REMARK VINA RESULT:      -5.6      8.740     11.280
REMARK  Name = *****
REMARK                            x       y       z     vdW  Elec       q    Type
REMARK                         _______ _______ _______ _____ _____    ______ ____
ROOT
ATOM      1  C   LIG    1       25.611 -30.954   8.014  0.00  0.00    +0.157 C 
ATOM      2  C   LIG    1       25.833 -29.465   7.677  0.00  0.00    +0.196 C 
ATOM      3  C   LIG    1       26.502 -28.767   8.806  0.00  0.00    +0.068 C 
ATOM      4  C   LIG    1       26.415 -29.185  10.076  0.00  0.00    +0.204 C 
ATOM      5  O   LIG    1       25.695 -30.293  10.479  0.00  0.00    -0.477 OA
ATOM      6  C   LIG    1       25.091 -31.155   9.467  0.00  0.00    +0.228 C 
ENDROOT
BRANCH   1   9
ATOM      7  C   LIG    1       28.353 -33.244   6.599  0.00  0.00    +0.109 C 
ATOM      8  C   LIG    1       27.070 -32.456   6.608  0.00  0.00    +0.210 C 
ATOM      9  N   LIG    1       26.838 -31.774   7.789  0.00  0.00    -0.305 N 
ATOM     10  H   LIG    1       27.489 -31.899   8.553  0.00  0.00    +0.149 HD
ATOM     11  O   LIG    1       26.311 -32.448   5.646  0.00  0.00    -0.276 OA
ENDBRANCH   1   9
BRANCH   2  12
ATOM     12  N   LIG    1       24.600 -28.741   7.365  0.00  0.00    -0.268 N 
ATOM     13  H   LIG    1       23.903 -28.858   8.111  0.00  0.00    +0.259 HD
BRANCH  12  14
ATOM     14  C   LIG    1       24.016 -28.760   6.145  0.00  0.00    +0.377 C 
ATOM     15  N   LIG    1       23.357 -29.717   5.602  0.00  0.00    -0.130 NA
ATOM     16  H   LIG    1       23.342 -30.516   6.230  0.00  0.00    +0.306 HD
BRANCH  14  17
ATOM     17  N   LIG    1       24.192 -27.634   5.426  0.00  0.00    -0.289 N 
ATOM     18  H   LIG    1       23.661 -27.733   4.562  0.00  0.00    +0.255 HD
ATOM     19  H   LIG    1       25.161 -27.456   5.193  0.00  0.00    +0.255 HD
ENDBRANCH  14  17
ENDBRANCH  12  14
ENDBRANCH   2  12
BRANCH   4  20
ATOM     20  C   LIG    1       27.155 -28.411  11.121  0.00  0.00    +0.372 C 
ATOM     21  O   LIG    1       26.712 -27.426  11.721  0.00  0.00    -0.242 OA
BRANCH  20  22
ATOM     22  O   LIG    1       28.399 -28.890  11.313  0.00  0.00    -0.475 OA
ATOM     23  H   LIG    1       28.966 -28.215  11.745  0.00  0.00    +0.295 HD
ENDBRANCH  20  22
ENDBRANCH   4  20
BRANCH   6  24
ATOM     24  C   LIG    1       23.542 -31.123   9.628  0.00  0.00    +0.188 C 
BRANCH  24  25
ATOM     25  O   LIG    1       22.910 -31.356   8.356  0.00  0.00    -0.385 OA
ATOM     26  H   LIG    1       22.085 -30.835   8.341  0.00  0.00    +0.210 HD
ENDBRANCH  24  25
BRANCH  24  27
ATOM     27  C   LIG    1       22.977 -32.090  10.700  0.00  0.00    +0.172 C 
BRANCH  27  28
ATOM     28  O   LIG    1       23.479 -31.776  11.998  0.00  0.00    -0.387 OA
ATOM     29  H   LIG    1       23.060 -30.931  12.263  0.00  0.00    +0.210 HD
ENDBRANCH  27  28
BRANCH  27  30
ATOM     30  C   LIG    1       21.446 -32.151  10.738  0.00  0.00    +0.190 C 
BRANCH  30  31
ATOM     31  O   LIG    1       20.949 -30.929  10.190  0.00  0.00    -0.392 OA
ATOM     32  H   LIG    1       20.121 -31.137   9.724  0.00  0.00    +0.209 HD
ENDBRANCH  30  31
ENDBRANCH  27  30
ENDBRANCH  24  27
ENDBRANCH   6  24
TORSDOF 12
ENDMDL
MODEL 5
REMARK VINA RESULT:      -5.4      8.618     11.383
REMARK  Name = *****
REMARK                            x       y       z     vdW  Elec       q    Type
REMARK                         _______ _______ _______ _____ _____    ______ ____
ROOT
ATOM      1  C   LIG    1       25.782 -30.884   8.625  0.00  0.00    +0.157 C 
ATOM      2  C   LIG    1       24.575 -29.945   8.415  0.00  0.00    +0.196 C 
ATOM      3  C   LIG    1       23.387 -30.447   9.154  0.00  0.00    +0.068 C 
ATOM      4  C   LIG    1       23.214 -31.738   9.467  0.00  0.00    +0.204 C 
ATOM      5  O   LIG    1       24.105 -32.740   9.135  0.00  0.00    -0.477 OA
ATOM      6  C   LIG    1       25.382 -32.384   8.522  0.00  0.00    +0.228 C 
ENDROOT
BRANCH   1   9
ATOM      7  C   LIG    1       27.779 -29.383  11.544  0.00  0.00    +0.109 C 
ATOM      8  C   LIG    1       27.111 -29.425  10.195  0.00  0.00    +0.210 C 
ATOM      9  N   LIG    1       26.482 -30.625   9.918  0.00  0.00    -0.305 N 
ATOM     10  H   LIG    1       26.565 -31.379  10.587  0.00  0.00    +0.149 HD
ATOM     11  O   LIG    1       27.149 -28.472   9.426  0.00  0.00    -0.276 OA
ENDBRANCH   1   9
BRANCH   2  12
ATOM     12  N   LIG    1       24.197 -29.776   7.011  0.00  0.00    -0.268 N 
ATOM     13  H   LIG    1       24.212 -30.675   6.513  0.00  0.00    +0.259 HD
BRANCH  12  14
ATOM     14  C   LIG    1       24.668 -28.777   6.231  0.00  0.00    +0.377 C 
ATOM     15  N   LIG    1       25.641 -27.978   6.475  0.00  0.00    -0.130 NA
ATOM     16  H   LIG    1       26.027 -28.186   7.393  0.00  0.00    +0.306 HD
BRANCH  14  17
ATOM     17  N   LIG    1       23.994 -28.607   5.076  0.00  0.00    -0.289 N 
ATOM     18  H   LIG    1       23.000 -28.649   5.289  0.00  0.00    +0.255 HD
ATOM     19  H   LIG    1       24.208 -29.312   4.382  0.00  0.00    +0.255 HD
ENDBRANCH  14  17
ENDBRANCH  12  14
ENDBRANCH   2  12
BRANCH   4  20
ATOM     20  C   LIG    1       21.988 -32.115  10.235  0.00  0.00    +0.372 C 
ATOM     21  O   LIG    1       21.858 -33.147  10.903  0.00  0.00    -0.242 OA
BRANCH  20  22
ATOM     22  O   LIG    1       21.003 -31.208  10.086  0.00  0.00    -0.475 OA
ATOM     23  H   LIG    1       20.143 -31.582  10.373  0.00  0.00    +0.295 HD
ENDBRANCH  20  22
ENDBRANCH   4  20
BRANCH   6  24
ATOM     24  C   LIG    1       25.448 -32.991   7.090  0.00  0.00    +0.188 C 
BRANCH  24  25
ATOM     25  O   LIG    1       24.146 -32.953   6.477  0.00  0.00    -0.385 OA
ATOM     26  H   LIG    1       24.058 -32.088   6.034  0.00  0.00    +0.210 HD
ENDBRANCH  24  25
BRANCH  24  27
ATOM     27  C   LIG    1       26.505 -32.348   6.155  0.00  0.00    +0.172 C 
BRANCH  27  28
ATOM     28  O   LIG    1       27.800 -32.905   6.376  0.00  0.00    -0.387 OA
ATOM     29  H   LIG    1       28.388 -32.527   5.690  0.00  0.00    +0.210 HD
ENDBRANCH  27  28
BRANCH  27  30
ATOM     30  C   LIG    1       26.153 -32.432   4.666  0.00  0.00    +0.190 C 
BRANCH  30  31
ATOM     31  O   LIG    1       25.172 -31.429   4.394  0.00  0.00    -0.392 OA
ATOM     32  H   LIG    1       25.587 -30.566   4.564  0.00  0.00    +0.209 HD
ENDBRANCH  30  31
ENDBRANCH  27  30
ENDBRANCH  24  27
ENDBRANCH   6  24
TORSDOF 12
ENDMDL
MODEL 6
REMARK VINA RESULT:      -5.4      8.047     10.552
REMARK  Name = *****
REMARK                            x       y       z     vdW  Elec       q    Type
REMARK                         _______ _______ _______ _____ _____    ______ ____
ROOT
ATOM      1  C   LIG    1       24.542 -29.977   8.916  0.00  0.00    +0.157 C 
ATOM      2  C   LIG    1       24.677 -29.475   7.463  0.00  0.00    +0.196 C 
ATOM      3  C   LIG    1       25.237 -30.540   6.590  0.00  0.00    +0.068 C 
ATOM      4  C   LIG    1       26.007 -31.533   7.055  0.00  0.00    +0.204 C 
ATOM      5  O   LIG    1       26.373 -31.674   8.380  0.00  0.00    -0.477 OA
ATOM      6  C   LIG    1       25.794 -30.778   9.377  0.00  0.00    +0.228 C 
ENDROOT
BRANCH   1   9
ATOM      7  C   LIG    1       21.338 -31.603  10.275  0.00  0.00    +0.109 C 
ATOM      8  C   LIG    1       22.523 -30.674  10.256  0.00  0.00    +0.210 C 
ATOM      9  N   LIG    1       23.307 -30.788   9.121  0.00  0.00    -0.305 N 
ATOM     10  H   LIG    1       23.073 -31.501   8.443  0.00  0.00    +0.149 HD
ATOM     11  O   LIG    1       22.756 -29.906  11.181  0.00  0.00    -0.276 OA
ENDBRANCH   1   9
BRANCH   2  12
ATOM     12  N   LIG    1       25.523 -28.288   7.325  0.00  0.00    -0.268 N 
ATOM     13  H   LIG    1       25.521 -27.730   8.188  0.00  0.00    +0.259 HD
BRANCH  12  14
ATOM     14  C   LIG    1       25.514 -27.493   6.231  0.00  0.00    +0.377 C 
ATOM     15  N   LIG    1       26.491 -27.223   5.446  0.00  0.00    -0.130 NA
ATOM     16  H   LIG    1       27.331 -27.690   5.777  0.00  0.00    +0.306 HD
BRANCH  14  17
ATOM     17  N   LIG    1       24.327 -26.906   5.977  0.00  0.00    -0.289 N 
ATOM     18  H   LIG    1       23.729 -27.599   5.531  0.00  0.00    +0.255 HD
ATOM     19  H   LIG    1       24.403 -26.101   5.369  0.00  0.00    +0.255 HD
ENDBRANCH  14  17
ENDBRANCH  12  14
ENDBRANCH   2  12
BRANCH   4  20
ATOM     20  C   LIG    1       26.489 -32.561   6.080  0.00  0.00    +0.372 C 
ATOM     21  O   LIG    1       25.795 -33.091   5.206  0.00  0.00    -0.242 OA
BRANCH  20  22
ATOM     22  O   LIG    1       27.780 -32.883   6.288  0.00  0.00    -0.475 OA
ATOM     23  H   LIG    1       28.200 -33.183   5.453  0.00  0.00    +0.295 HD
ENDBRANCH  20  22
ENDBRANCH   4  20
BRANCH   6  24
ATOM     24  C   LIG    1       26.929 -29.926  10.017  0.00  0.00    +0.188 C 
BRANCH  24  25
ATOM     25  O   LIG    1       27.376 -28.922   9.089  0.00  0.00    -0.385 OA
ATOM     26  H   LIG    1       28.340 -29.031   8.984  0.00  0.00    +0.210 HD
ENDBRANCH  24  25
BRANCH  24  27
ATOM     27  C   LIG    1       26.571 -29.281  11.382  0.00  0.00    +0.172 C 
BRANCH  27  28
ATOM     28  O   LIG    1       25.665 -30.100  12.120  0.00  0.00    -0.387 OA
ATOM     29  H   LIG    1       25.732 -31.001  11.743  0.00  0.00    +0.210 HD
ENDBRANCH  27  28
BRANCH  27  30
ATOM     30  C   LIG    1       27.789 -28.945  12.249  0.00  0.00    +0.190 C 
BRANCH  30  31
ATOM     31  O   LIG    1       28.960 -29.252  11.492  0.00  0.00    -0.392 OA
ATOM     32  H   LIG    1       29.326 -30.080  11.850  0.00  0.00    +0.209 HD
ENDBRANCH  30  31
ENDBRANCH  27  30
ENDBRANCH  24  27
ENDBRANCH   6  24
TORSDOF 12
ENDMDL
MODEL 7
REMARK VINA RESULT:      -5.3      7.941     10.909
REMARK  Name = *****
REMARK                            x       y       z     vdW  Elec       q    Type
REMARK                         _______ _______ _______ _____ _____    ______ ____
ROOT
ATOM      1  C   LIG    1       23.812 -30.978   8.941  0.00  0.00    +0.157 C 
ATOM      2  C   LIG    1       24.804 -31.916   9.659  0.00  0.00    +0.196 C 
ATOM      3  C   LIG    1       25.861 -31.132  10.350  0.00  0.00    +0.068 C 
ATOM      4  C   LIG    1       26.226 -29.902   9.964  0.00  0.00    +0.204 C 
ATOM      5  O   LIG    1       25.676 -29.234   8.887  0.00  0.00    -0.477 OA
ATOM      6  C   LIG    1       24.537 -29.824   8.190  0.00  0.00    +0.228 C 
ENDROOT
BRANCH   1   9
ATOM      7  C   LIG    1       20.739 -30.377  11.169  0.00  0.00    +0.109 C 
ATOM      8  C   LIG    1       21.659 -31.132  10.246  0.00  0.00    +0.210 C 
ATOM      9  N   LIG    1       22.785 -30.422   9.871  0.00  0.00    -0.305 N 
ATOM     10  H   LIG    1       22.876 -29.463  10.181  0.00  0.00    +0.149 HD
ATOM     11  O   LIG    1       21.401 -32.268   9.865  0.00  0.00    -0.276 OA
ENDBRANCH   1   9
BRANCH   2  12
ATOM     12  N   LIG    1       25.461 -32.873   8.767  0.00  0.00    -0.268 N 
ATOM     13  H   LIG    1       25.024 -33.801   8.832  0.00  0.00    +0.259 HD
BRANCH  12  14
ATOM     14  C   LIG    1       26.805 -32.974   8.647  0.00  0.00    +0.377 C 
ATOM     15  N   LIG    1       27.619 -33.603   9.413  0.00  0.00    -0.130 NA
ATOM     16  H   LIG    1       27.104 -34.026  10.180  0.00  0.00    +0.306 HD
BRANCH  14  17
ATOM     17  N   LIG    1       27.323 -32.296   7.604  0.00  0.00    -0.289 N 
ATOM     18  H   LIG    1       28.241 -32.690   7.405  0.00  0.00    +0.255 HD
ATOM     19  H   LIG    1       27.427 -31.305   7.783  0.00  0.00    +0.255 HD
ENDBRANCH  14  17
ENDBRANCH  12  14
ENDBRANCH   2  12
BRANCH   4  20
ATOM     20  C   LIG    1       27.285 -29.204  10.756  0.00  0.00    +0.372 C 
ATOM     21  O   LIG    1       27.211 -28.043  11.173  0.00  0.00    -0.242 OA
BRANCH  20  22
ATOM     22  O   LIG    1       28.370 -29.981  10.937  0.00  0.00    -0.475 OA
ATOM     23  H   LIG    1       28.145 -30.767  11.481  0.00  0.00    +0.295 HD
ENDBRANCH  20  22
ENDBRANCH   4  20
BRANCH   6  24
ATOM     24  C   LIG    1       24.945 -30.142   6.721  0.00  0.00    +0.188 C 
BRANCH  24  25
ATOM     25  O   LIG    1       24.500 -31.462   6.361  0.00  0.00    -0.385 OA
ATOM     26  H   LIG    1       25.043 -32.100   6.862  0.00  0.00    +0.210 HD
ENDBRANCH  24  25
BRANCH  24  27
ATOM     27  C   LIG    1       24.470 -29.104   5.671  0.00  0.00    +0.172 C 
BRANCH  27  28
ATOM     28  O   LIG    1       23.117 -29.341   5.284  0.00  0.00    -0.387 OA
ATOM     29  H   LIG    1       23.143 -29.666   4.361  0.00  0.00    +0.210 HD
ENDBRANCH  27  28
BRANCH  27  30
ATOM     30  C   LIG    1       24.632 -27.647   6.119  0.00  0.00    +0.190 C 
BRANCH  30  31
ATOM     31  O   LIG    1       26.015 -27.432   6.405  0.00  0.00    -0.392 OA
ATOM     32  H   LIG    1       26.064 -26.764   7.110  0.00  0.00    +0.209 HD
ENDBRANCH  30  31
ENDBRANCH  27  30
ENDBRANCH  24  27
ENDBRANCH   6  24
TORSDOF 12
ENDMDL
MODEL 8
REMARK VINA RESULT:      -5.3      7.369      9.802
REMARK  Name = *****
REMARK                            x       y       z     vdW  Elec       q    Type
REMARK                         _______ _______ _______ _____ _____    ______ ____
ROOT
ATOM      1  C   LIG    1       25.757 -30.683   8.855  0.00  0.00    +0.157 C 
ATOM      2  C   LIG    1       24.350 -30.399   8.289  0.00  0.00    +0.196 C 
ATOM      3  C   LIG    1       24.387 -29.250   7.346  0.00  0.00    +0.068 C 
ATOM      4  C   LIG    1       25.318 -28.288   7.407  0.00  0.00    +0.204 C 
ATOM      5  O   LIG    1       26.331 -28.249   8.345  0.00  0.00    -0.477 OA
ATOM      6  C   LIG    1       26.502 -29.377   9.256  0.00  0.00    +0.228 C 
ENDROOT
BRANCH   1   9
ATOM      7  C   LIG    1       28.018 -33.310   7.197  0.00  0.00    +0.109 C 
ATOM      8  C   LIG    1       27.197 -32.674   8.287  0.00  0.00    +0.210 C 
ATOM      9  N   LIG    1       26.594 -31.486   7.916  0.00  0.00    -0.305 N 
ATOM     10  H   LIG    1       26.791 -31.112   6.997  0.00  0.00    +0.149 HD
ATOM     11  O   LIG    1       27.098 -33.180   9.399  0.00  0.00    -0.276 OA
ENDBRANCH   1   9
BRANCH   2  12
ATOM     12  N   LIG    1       23.348 -30.109   9.316  0.00  0.00    -0.268 N 
ATOM     13  H   LIG    1       23.663 -29.355   9.937  0.00  0.00    +0.259 HD
BRANCH  12  14
ATOM     14  C   LIG    1       22.694 -31.071  10.007  0.00  0.00    +0.377 C 
ATOM     15  N   LIG    1       21.924 -31.987   9.546  0.00  0.00    -0.130 NA
ATOM     16  H   LIG    1       21.842 -31.884   8.538  0.00  0.00    +0.306 HD
BRANCH  14  17
ATOM     17  N   LIG    1       22.872 -31.015  11.342  0.00  0.00    -0.289 N 
ATOM     18  H   LIG    1       22.139 -30.422  11.727  0.00  0.00    +0.255 HD
ATOM     19  H   LIG    1       23.771 -30.636  11.610  0.00  0.00    +0.255 HD
ENDBRANCH  14  17
ENDBRANCH  12  14
ENDBRANCH   2  12
BRANCH   4  20
ATOM     20  C   LIG    1       25.264 -27.196   6.385  0.00  0.00    +0.372 C 
ATOM     21  O   LIG    1       24.256 -26.544   6.096  0.00  0.00    -0.242 OA
BRANCH  20  22
ATOM     22  O   LIG    1       26.451 -27.023   5.773  0.00  0.00    -0.475 OA
ATOM     23  H   LIG    1       26.709 -27.834   5.284  0.00  0.00    +0.295 HD
ENDBRANCH  20  22
ENDBRANCH   4  20
BRANCH   6  24
ATOM     24  C   LIG    1       26.259 -28.895  10.716  0.00  0.00    +0.188 C 
BRANCH  24  25
ATOM     25  O   LIG    1       25.707 -29.966  11.503  0.00  0.00    -0.385 OA
ATOM     26  H   LIG    1       25.202 -29.560  12.234  0.00  0.00    +0.210 HD
ENDBRANCH  24  25
BRANCH  24  27
ATOM     27  C   LIG    1       27.503 -28.292  11.420  0.00  0.00    +0.172 C 
BRANCH  27  28
ATOM     28  O   LIG    1       27.149 -27.165  12.221  0.00  0.00    -0.387 OA
ATOM     29  H   LIG    1       27.569 -27.300  13.095  0.00  0.00    +0.210 HD
ENDBRANCH  27  28
BRANCH  27  30
ATOM     30  C   LIG    1       28.290 -29.300  12.264  0.00  0.00    +0.190 C 
BRANCH  30  31
ATOM     31  O   LIG    1       29.626 -29.340  11.760  0.00  0.00    -0.392 OA
ATOM     32  H   LIG    1       29.616 -28.920  10.883  0.00  0.00    +0.209 HD
ENDBRANCH  30  31
ENDBRANCH  27  30
ENDBRANCH  24  27
ENDBRANCH   6  24
TORSDOF 12
ENDMDL
MODEL 9
REMARK VINA RESULT:      -5.3      2.521      5.030
REMARK  Name = *****
REMARK                            x       y       z     vdW  Elec       q    Type
REMARK                         _______ _______ _______ _____ _____    ______ ____
ROOT
ATOM      1  C   LIG    1       24.644 -22.243   5.383  0.00  0.00    +0.157 C 
ATOM      2  C   LIG    1       25.798 -21.286   5.018  0.00  0.00    +0.196 C 
ATOM      3  C   LIG    1       26.514 -20.838   6.242  0.00  0.00    +0.068 C 
ATOM      4  C   LIG    1       25.937 -20.800   7.451  0.00  0.00    +0.204 C 
ATOM      5  O   LIG    1       24.625 -21.159   7.694  0.00  0.00    -0.477 OA
ATOM      6  C   LIG    1       23.835 -21.742   6.614  0.00  0.00    +0.228 C 
ENDROOT
BRANCH   1   9
ATOM      7  C   LIG    1       24.997 -25.945   6.347  0.00  0.00    +0.109 C 
ATOM      8  C   LIG    1       24.316 -24.612   6.181  0.00  0.00    +0.210 C 
ATOM      9  N   LIG    1       25.118 -23.640   5.611  0.00  0.00    -0.305 N 
ATOM     10  H   LIG    1       26.083 -23.866   5.413  0.00  0.00    +0.149 HD
ATOM     11  O   LIG    1       23.159 -24.430   6.540  0.00  0.00    -0.276 OA
ENDBRANCH   1   9
BRANCH   2  12
ATOM     12  N   LIG    1       25.367 -20.094   4.285  0.00  0.00    -0.268 N 
ATOM     13  H   LIG    1       24.814 -20.349   3.457  0.00  0.00    +0.259 HD
BRANCH  12  14
ATOM     14  C   LIG    1       26.183 -19.048   4.025  0.00  0.00    +0.377 C 
ATOM     15  N   LIG    1       27.334 -18.800   4.534  0.00  0.00    -0.130 NA
ATOM     16  H   LIG    1       27.564 -19.520   5.215  0.00  0.00    +0.306 HD
BRANCH  14  17
ATOM     17  N   LIG    1       25.686 -18.160   3.141  0.00  0.00    -0.289 N 
ATOM     18  H   LIG    1       25.505 -18.658   2.272  0.00  0.00    +0.255 HD
ATOM     19  H   LIG    1       26.316 -17.391   2.950  0.00  0.00    +0.255 HD
ENDBRANCH  14  17
ENDBRANCH  12  14
ENDBRANCH   2  12
BRANCH   4  20
ATOM     20  C   LIG    1       26.770 -20.354   8.611  0.00  0.00    +0.372 C 
ATOM     21  O   LIG    1       27.964 -20.043   8.549  0.00  0.00    -0.242 OA
BRANCH  20  22
ATOM     22  O   LIG    1       26.073 -20.367   9.763  0.00  0.00    -0.475 OA
ATOM     23  H   LIG    1       26.484 -19.767  10.422  0.00  0.00    +0.295 HD
ENDBRANCH  20  22
ENDBRANCH   4  20
BRANCH   6  24
ATOM     24  C   LIG    1       22.643 -20.795   6.285  0.00  0.00    +0.188 C 
BRANCH  24  25
ATOM     25  O   LIG    1       22.986 -19.438   6.616  0.00  0.00    -0.385 OA
ATOM     26  H   LIG    1       23.575 -19.468   7.394  0.00  0.00    +0.210 HD
ENDBRANCH  24  25
BRANCH  24  27
ATOM     27  C   LIG    1       22.124 -20.882   4.826  0.00  0.00    +0.172 C 
BRANCH  27  28
ATOM     28  O   LIG    1       21.060 -21.826   4.710  0.00  0.00    -0.387 OA
ATOM     29  H   LIG    1       20.759 -22.021   5.621  0.00  0.00    +0.210 HD
ENDBRANCH  27  28
BRANCH  27  30
ATOM     30  C   LIG    1       21.687 -19.535   4.240  0.00  0.00    +0.190 C 
BRANCH  30  31
ATOM     31  O   LIG    1       22.867 -18.781   3.957  0.00  0.00    -0.392 OA
ATOM     32  H   LIG    1       22.909 -18.056   4.604  0.00  0.00    +0.209 HD
ENDBRANCH  30  31
ENDBRANCH  27  30
ENDBRANCH  24  27
ENDBRANCH   6  24
TORSDOF 12
ENDMDL
