MODEL 1
REMARK VINA RESULT:       3.2      0.000      0.000
REMARK  Name = *****
REMARK                            x       y       z     vdW  Elec       q    Type
REMARK                         _______ _______ _______ _____ _____    ______ ____
ROOT
ATOM      1  C   LIG    1       25.192 -13.885   6.088  0.00  0.00    +0.105 C 
ATOM      2  N   LIG    1       25.127 -13.599   4.612  0.00  0.00    -0.299 NA
ATOM      3  C   LIG    1       23.770 -14.200   4.247  0.00  0.00    +0.093 C 
ATOM      4  C   LIG    1       24.299 -13.568   3.094  0.00  0.00    +0.096 C 
ATOM      5  C   LIG    1       25.811 -14.775   3.114  0.00  0.00    +0.075 C 
ATOM      6  C   LIG    1       27.122 -14.664   4.433  0.00  0.00    +0.253 C 
ATOM      7  O   LIG    1       27.911 -15.819   4.022  0.00  0.00    -0.476 OA
ATOM      8  C   LIG    1       26.892 -16.755   3.718  0.00  0.00    +0.167 A 
ATOM      9  C   LIG    1       26.914 -18.103   3.973  0.00  0.00    +0.159 A 
ATOM     10  C   LIG    1       25.700 -18.804   3.906  0.00  0.00    +0.049 A 
ATOM     11  C   LIG    1       24.466 -18.106   3.814  0.00  0.00    +0.008 A 
ATOM     12  C   LIG    1       24.473 -16.726   3.672  0.00  0.00    -0.038 A 
ATOM     13  C   LIG    1       27.389 -12.909   5.083  0.00  0.00    +0.174 C 
ATOM     14  O   LIG    1       28.417 -12.620   5.732  0.00  0.00    -0.293 OA
ATOM     15  C   LIG    1       26.160 -11.553   4.688  0.00  0.00    +0.081 C 
ATOM     16  C   LIG    1       25.679 -16.184   3.349  0.00  0.00    +0.014 A 
ATOM     17  C   LIG    1       26.503 -14.225   2.012  0.00  0.00    +0.034 C 
ATOM     18  C   LIG    1       24.591 -11.769   3.709  0.00  0.00    +0.045 C 
ATOM     19  C   LIG    1       23.372 -15.734   4.004  0.00  0.00    +0.057 C 
ATOM     20  C   LIG    1       26.306 -13.156   3.072  0.00  0.00    +0.085 C 
ENDROOT
BRANCH   4  21
ATOM     21  O   LIG    1       23.517 -13.602   1.924  0.00  0.00    -0.386 OA
ATOM     22  H   LIG    1       22.808 -12.947   2.034  0.00  0.00    +0.210 HD
ENDBRANCH   4  21
BRANCH   9  23
ATOM     23  O   LIG    1       28.045 -18.745   4.363  0.00  0.00    -0.503 OA
ATOM     24  H   LIG    1       28.669 -18.048   4.640  0.00  0.00    +0.292 HD
ENDBRANCH   9  23
TORSDOF 2
ENDMDL
MODEL 2
REMARK VINA RESULT:       3.4      1.280      1.501
REMARK  Name = *****
REMARK                            x       y       z     vdW  Elec       q    Type
REMARK                         _______ _______ _______ _____ _____    ______ ____
ROOT
ATOM      1  C   LIG    1       26.299 -13.992   6.015  0.00  0.00    +0.105 C 
ATOM      2  N   LIG    1       25.730 -13.484   4.719  0.00  0.00    -0.299 NA
ATOM      3  C   LIG    1       24.236 -13.436   5.042  0.00  0.00    +0.093 C 
ATOM      4  C   LIG    1       24.426 -12.898   3.745  0.00  0.00    +0.096 C 
ATOM      5  C   LIG    1       25.132 -14.592   3.134  0.00  0.00    +0.075 C 
ATOM      6  C   LIG    1       26.795 -15.210   3.705  0.00  0.00    +0.253 C 
ATOM      7  O   LIG    1       26.761 -16.506   3.038  0.00  0.00    -0.476 OA
ATOM      8  C   LIG    1       25.423 -16.906   3.279  0.00  0.00    +0.167 A 
ATOM      9  C   LIG    1       24.984 -18.173   3.562  0.00  0.00    +0.159 A 
ATOM     10  C   LIG    1       23.692 -18.318   4.091  0.00  0.00    +0.049 A 
ATOM     11  C   LIG    1       22.961 -17.184   4.535  0.00  0.00    +0.008 A 
ATOM     12  C   LIG    1       23.486 -15.915   4.337  0.00  0.00    -0.038 A 
ATOM     13  C   LIG    1       28.027 -13.825   4.073  0.00  0.00    +0.174 C 
ATOM     14  O   LIG    1       29.249 -14.068   4.168  0.00  0.00    -0.293 OA
ATOM     15  C   LIG    1       27.447 -12.050   4.214  0.00  0.00    +0.081 C 
ATOM     16  C   LIG    1       24.536 -15.852   3.474  0.00  0.00    +0.014 A 
ATOM     17  C   LIG    1       25.440 -14.201   1.812  0.00  0.00    +0.034 C 
ATOM     18  C   LIG    1       25.682 -11.477   4.069  0.00  0.00    +0.045 C 
ATOM     19  C   LIG    1       23.169 -14.631   5.084  0.00  0.00    +0.057 C 
ATOM     20  C   LIG    1       26.191 -13.315   2.791  0.00  0.00    +0.085 C 
ENDROOT
BRANCH   4  21
ATOM     21  O   LIG    1       23.282 -12.442   3.063  0.00  0.00    -0.386 OA
ATOM     22  H   LIG    1       22.554 -12.421   3.707  0.00  0.00    +0.210 HD
ENDBRANCH   4  21
BRANCH   9  23
ATOM     23  O   LIG    1       25.784 -19.262   3.426  0.00  0.00    -0.503 OA
ATOM     24  H   LIG    1       26.699 -18.924   3.419  0.00  0.00    +0.292 HD
ENDBRANCH   9  23
TORSDOF 2
ENDMDL
MODEL 3
REMARK VINA RESULT:       4.1      3.735      5.592
REMARK  Name = *****
REMARK                            x       y       z     vdW  Elec       q    Type
REMARK                         _______ _______ _______ _____ _____    ______ ____
ROOT
ATOM      1  C   LIG    1       22.970 -17.748   6.247  0.00  0.00    +0.105 C 
ATOM      2  N   LIG    1       22.724 -18.739   5.143  0.00  0.00    -0.299 NA
ATOM      3  C   LIG    1       22.351 -19.991   5.938  0.00  0.00    +0.093 C 
ATOM      4  C   LIG    1       22.200 -20.281   4.559  0.00  0.00    +0.096 C 
ATOM      5  C   LIG    1       24.086 -19.958   4.274  0.00  0.00    +0.075 C 
ATOM      6  C   LIG    1       24.801 -18.240   4.383  0.00  0.00    +0.253 C 
ATOM      7  O   LIG    1       26.201 -18.599   4.188  0.00  0.00    -0.476 OA
ATOM      8  C   LIG    1       26.302 -19.764   4.988  0.00  0.00    +0.167 A 
ATOM      9  C   LIG    1       27.366 -20.131   5.771  0.00  0.00    +0.159 A 
ATOM     10  C   LIG    1       27.159 -21.129   6.735  0.00  0.00    +0.049 A 
ATOM     11  C   LIG    1       25.845 -21.570   7.049  0.00  0.00    +0.008 A 
ATOM     12  C   LIG    1       24.771 -21.091   6.312  0.00  0.00    -0.038 A 
ATOM     13  C   LIG    1       23.588 -16.886   3.867  0.00  0.00    +0.174 C 
ATOM     14  O   LIG    1       23.995 -15.736   3.596  0.00  0.00    -0.293 OA
ATOM     15  C   LIG    1       21.766 -17.268   3.667  0.00  0.00    +0.081 C 
ATOM     16  C   LIG    1       25.103 -20.448   5.159  0.00  0.00    +0.014 A 
ATOM     17  C   LIG    1       24.100 -20.157   2.875  0.00  0.00    +0.034 C 
ATOM     18  C   LIG    1       20.969 -18.920   3.986  0.00  0.00    +0.045 C 
ATOM     19  C   LIG    1       23.306 -21.026   6.704  0.00  0.00    +0.057 C 
ATOM     20  C   LIG    1       23.129 -19.041   3.219  0.00  0.00    +0.085 C 
ENDROOT
BRANCH   4  21
ATOM     21  O   LIG    1       21.753 -21.572   4.218  0.00  0.00    -0.386 OA
ATOM     22  H   LIG    1       22.019 -22.167   4.939  0.00  0.00    +0.210 HD
ENDBRANCH   4  21
BRANCH   9  23
ATOM     23  O   LIG    1       28.569 -19.505   5.694  0.00  0.00    -0.503 OA
ATOM     24  H   LIG    1       28.633 -18.946   6.491  0.00  0.00    +0.292 HD
ENDBRANCH   9  23
TORSDOF 2
ENDMDL
