MODEL 1
REMARK VINA RESULT:      -3.9      0.000      0.000
REMARK  Name = *****
REMARK                            x       y       z     vdW  Elec       q    Type
REMARK                         _______ _______ _______ _____ _____    ______ ____
ROOT
ATOM      1 CL   LIG    1       26.111 -19.237   3.044  0.00  0.00    -0.080 Cl
ATOM      2  C   LIG    1       24.686 -19.401   4.013  0.00  0.00    +0.084 A 
ATOM      3  C   LIG    1       24.607 -20.353   5.048  0.00  0.00    +0.178 A 
ATOM      4  C   LIG    1       23.409 -20.422   5.783  0.00  0.00    +0.084 A 
ATOM      5 CL   LIG    1       23.201 -21.572   7.062  0.00  0.00    -0.080 Cl
ATOM      6  C   LIG    1       22.340 -19.560   5.509  0.00  0.00    +0.023 A 
ATOM      7  C   LIG    1       22.444 -18.618   4.488  0.00  0.00    +0.003 A 
ATOM      8  C   LIG    1       23.617 -18.539   3.739  0.00  0.00    +0.023 A 
ENDROOT
BRANCH   3   9
ATOM      9  N   LIG    1       25.672 -21.241   5.313  0.00  0.00    -0.074 NA
ATOM     10  C   LIG    1       26.745 -20.762   5.836  0.00  0.00    +0.370 C 
ATOM     11  N   LIG    1       27.076 -19.475   6.184  0.00  0.00    -0.235 N 
ATOM     12  H   LIG    1       26.666 -18.728   5.641  0.00  0.00    +0.244 HD
ATOM     13  C   LIG    1       28.469 -19.367   6.591  0.00  0.00    +0.219 C 
ATOM     14  C   LIG    1       28.803 -20.822   6.952  0.00  0.00    +0.219 C 
ATOM     15  N   LIG    1       27.821 -21.541   6.167  0.00  0.00    -0.235 N 
ATOM     16  H   LIG    1       27.631 -22.520   6.330  0.00  0.00    +0.244 HD
ENDBRANCH   3   9
TORSDOF 1
ENDMDL
MODEL 2
REMARK VINA RESULT:      -2.9      5.116      6.204
REMARK  Name = *****
REMARK                            x       y       z     vdW  Elec       q    Type
REMARK                         _______ _______ _______ _____ _____    ______ ____
ROOT
ATOM      1 CL   LIG    1       24.046 -12.528   3.594  0.00  0.00    -0.080 Cl
ATOM      2  C   LIG    1       24.008 -14.244   3.821  0.00  0.00    +0.084 A 
ATOM      3  C   LIG    1       25.077 -15.063   3.409  0.00  0.00    +0.178 A 
ATOM      4  C   LIG    1       24.961 -16.449   3.628  0.00  0.00    +0.084 A 
ATOM      5 CL   LIG    1       26.209 -17.546   3.140  0.00  0.00    -0.080 Cl
ATOM      6  C   LIG    1       23.831 -16.992   4.251  0.00  0.00    +0.023 A 
ATOM      7  C   LIG    1       22.790 -16.161   4.661  0.00  0.00    +0.003 A 
ATOM      8  C   LIG    1       22.878 -14.787   4.444  0.00  0.00    +0.023 A 
ENDROOT
BRANCH   3   9
ATOM      9  N   LIG    1       26.208 -14.525   2.758  0.00  0.00    -0.074 NA
ATOM     10  C   LIG    1       27.075 -13.895   3.470  0.00  0.00    +0.370 C 
ATOM     11  N   LIG    1       27.097 -13.613   4.814  0.00  0.00    -0.235 N 
ATOM     12  H   LIG    1       26.207 -13.493   5.278  0.00  0.00    +0.244 HD
ATOM     13  C   LIG    1       28.197 -12.725   5.161  0.00  0.00    +0.219 C 
ATOM     14  C   LIG    1       29.145 -12.921   3.969  0.00  0.00    +0.219 C 
ATOM     15  N   LIG    1       28.223 -13.367   2.945  0.00  0.00    -0.235 N 
ATOM     16  H   LIG    1       28.553 -13.781   2.085  0.00  0.00    +0.244 HD
ENDBRANCH   3   9
TORSDOF 1
ENDMDL
MODEL 3
REMARK VINA RESULT:      -2.8      1.678      2.682
REMARK  Name = *****
REMARK                            x       y       z     vdW  Elec       q    Type
REMARK                         _______ _______ _______ _____ _____    ______ ____
ROOT
ATOM      1 CL   LIG    1       24.098 -21.570   4.434  0.00  0.00    -0.080 Cl
ATOM      2  C   LIG    1       23.626 -19.910   4.299  0.00  0.00    +0.084 A 
ATOM      3  C   LIG    1       24.567 -18.898   4.033  0.00  0.00    +0.178 A 
ATOM      4  C   LIG    1       24.097 -17.574   3.943  0.00  0.00    +0.084 A 
ATOM      5 CL   LIG    1       25.174 -16.252   3.641  0.00  0.00    -0.080 Cl
ATOM      6  C   LIG    1       22.737 -17.277   4.094  0.00  0.00    +0.023 A 
ATOM      7  C   LIG    1       21.820 -18.296   4.346  0.00  0.00    +0.003 A 
ATOM      8  C   LIG    1       22.265 -19.613   4.450  0.00  0.00    +0.023 A 
ENDROOT
BRANCH   3   9
ATOM      9  N   LIG    1       25.942 -19.188   3.904  0.00  0.00    -0.074 NA
ATOM     10  C   LIG    1       26.554 -19.691   4.918  0.00  0.00    +0.370 C 
ATOM     11  N   LIG    1       26.100 -19.995   6.179  0.00  0.00    -0.235 N 
ATOM     12  H   LIG    1       25.350 -19.429   6.551  0.00  0.00    +0.244 HD
ATOM     13  C   LIG    1       27.186 -20.393   7.062  0.00  0.00    +0.219 C 
ATOM     14  C   LIG    1       28.273 -20.800   6.057  0.00  0.00    +0.219 C 
ATOM     15  N   LIG    1       27.876 -20.043   4.888  0.00  0.00    -0.235 N 
ATOM     16  H   LIG    1       28.266 -20.239   3.977  0.00  0.00    +0.244 HD
ENDBRANCH   3   9
TORSDOF 1
ENDMDL
MODEL 4
REMARK VINA RESULT:      -2.7      1.630      1.776
REMARK  Name = *****
REMARK                            x       y       z     vdW  Elec       q    Type
REMARK                         _______ _______ _______ _____ _____    ______ ____
ROOT
ATOM      1 CL   LIG    1       25.262 -16.313   3.511  0.00  0.00    -0.080 Cl
ATOM      2  C   LIG    1       24.198 -17.615   3.926  0.00  0.00    +0.084 A 
ATOM      3  C   LIG    1       24.679 -18.926   4.111  0.00  0.00    +0.178 A 
ATOM      4  C   LIG    1       23.744 -19.924   4.443  0.00  0.00    +0.084 A 
ATOM      5 CL   LIG    1       24.226 -21.572   4.670  0.00  0.00    -0.080 Cl
ATOM      6  C   LIG    1       22.386 -19.620   4.603  0.00  0.00    +0.023 A 
ATOM      7  C   LIG    1       21.934 -18.314   4.427  0.00  0.00    +0.003 A 
ATOM      8  C   LIG    1       22.841 -17.311   4.087  0.00  0.00    +0.023 A 
ENDROOT
BRANCH   3   9
ATOM      9  N   LIG    1       26.042 -19.242   3.926  0.00  0.00    -0.074 NA
ATOM     10  C   LIG    1       26.694 -19.719   4.927  0.00  0.00    +0.370 C 
ATOM     11  N   LIG    1       26.299 -19.971   6.219  0.00  0.00    -0.235 N 
ATOM     12  H   LIG    1       25.576 -19.380   6.606  0.00  0.00    +0.244 HD
ATOM     13  C   LIG    1       27.420 -20.355   7.062  0.00  0.00    +0.219 C 
ATOM     14  C   LIG    1       28.451 -20.815   6.021  0.00  0.00    +0.219 C 
ATOM     15  N   LIG    1       28.008 -20.094   4.846  0.00  0.00    -0.235 N 
ATOM     16  H   LIG    1       28.350 -20.328   3.925  0.00  0.00    +0.244 HD
ENDBRANCH   3   9
TORSDOF 1
ENDMDL
MODEL 5
REMARK VINA RESULT:      -2.7      5.465      6.651
REMARK  Name = *****
REMARK                            x       y       z     vdW  Elec       q    Type
REMARK                         _______ _______ _______ _____ _____    ______ ____
ROOT
ATOM      1 CL   LIG    1       26.590 -17.091   3.298  0.00  0.00    -0.080 Cl
ATOM      2  C   LIG    1       25.267 -16.004   3.554  0.00  0.00    +0.084 A 
ATOM      3  C   LIG    1       25.342 -14.652   3.168  0.00  0.00    +0.178 A 
ATOM      4  C   LIG    1       24.221 -13.837   3.417  0.00  0.00    +0.084 A 
ATOM      5 CL   LIG    1       24.218 -12.156   3.002  0.00  0.00    -0.080 Cl
ATOM      6  C   LIG    1       23.064 -14.359   4.010  0.00  0.00    +0.023 A 
ATOM      7  C   LIG    1       23.008 -15.702   4.373  0.00  0.00    +0.003 A 
ATOM      8  C   LIG    1       24.110 -16.525   4.146  0.00  0.00    +0.023 A 
ENDROOT
BRANCH   3   9
ATOM      9  N   LIG    1       26.514 -14.115   2.594  0.00  0.00    -0.074 NA
ATOM     10  C   LIG    1       27.362 -13.539   3.371  0.00  0.00    +0.370 C 
ATOM     11  N   LIG    1       27.329 -13.316   4.726  0.00  0.00    -0.235 N 
ATOM     12  H   LIG    1       26.422 -13.194   5.154  0.00  0.00    +0.244 HD
ATOM     13  C   LIG    1       28.432 -12.473   5.162  0.00  0.00    +0.219 C 
ATOM     14  C   LIG    1       29.429 -12.641   4.006  0.00  0.00    +0.219 C 
ATOM     15  N   LIG    1       28.546 -13.018   2.923  0.00  0.00    -0.235 N 
ATOM     16  H   LIG    1       28.905 -13.403   2.060  0.00  0.00    +0.244 HD
ENDBRANCH   3   9
TORSDOF 1
ENDMDL
MODEL 6
REMARK VINA RESULT:      -2.2      2.200      4.358
REMARK  Name = *****
REMARK                            x       y       z     vdW  Elec       q    Type
REMARK                         _______ _______ _______ _____ _____    ______ ____
ROOT
ATOM      1 CL   LIG    1       26.176 -17.795   3.119  0.00  0.00    -0.080 Cl
ATOM      2  C   LIG    1       27.235 -18.356   4.368  0.00  0.00    +0.084 A 
ATOM      3  C   LIG    1       27.103 -19.645   4.919  0.00  0.00    +0.178 A 
ATOM      4  C   LIG    1       28.004 -20.018   5.934  0.00  0.00    +0.084 A 
ATOM      5 CL   LIG    1       27.914 -21.572   6.694  0.00  0.00    -0.080 Cl
ATOM      6  C   LIG    1       29.010 -19.145   6.366  0.00  0.00    +0.023 A 
ATOM      7  C   LIG    1       29.130 -17.878   5.799  0.00  0.00    +0.003 A 
ATOM      8  C   LIG    1       28.241 -17.483   4.801  0.00  0.00    +0.023 A 
ENDROOT
BRANCH   3   9
ATOM      9  N   LIG    1       26.076 -20.520   4.505  0.00  0.00    -0.074 NA
ATOM     10  C   LIG    1       25.045 -20.649   5.264  0.00  0.00    +0.370 C 
ATOM     11  N   LIG    1       24.751 -20.081   6.480  0.00  0.00    -0.235 N 
ATOM     12  H   LIG    1       25.526 -19.857   7.088  0.00  0.00    +0.244 HD
ATOM     13  C   LIG    1       23.541 -20.644   7.060  0.00  0.00    +0.219 C 
ATOM     14  C   LIG    1       22.850 -21.240   5.825  0.00  0.00    +0.219 C 
ATOM     15  N   LIG    1       23.978 -21.441   4.940  0.00  0.00    -0.235 N 
ATOM     16  H   LIG    1       23.847 -21.634   3.957  0.00  0.00    +0.244 HD
ENDBRANCH   3   9
TORSDOF 1
ENDMDL
MODEL 7
REMARK VINA RESULT:      -1.9      2.286      4.685
REMARK  Name = *****
REMARK                            x       y       z     vdW  Elec       q    Type
REMARK                         _______ _______ _______ _____ _____    ______ ____
ROOT
ATOM      1 CL   LIG    1       25.548 -19.221   2.860  0.00  0.00    -0.080 Cl
ATOM      2  C   LIG    1       25.493 -19.899   4.452  0.00  0.00    +0.084 A 
ATOM      3  C   LIG    1       24.297 -20.408   4.993  0.00  0.00    +0.178 A 
ATOM      4  C   LIG    1       24.341 -20.938   6.296  0.00  0.00    +0.084 A 
ATOM      5 CL   LIG    1       22.922 -21.569   7.062  0.00  0.00    -0.080 Cl
ATOM      6  C   LIG    1       25.538 -20.976   7.022  0.00  0.00    +0.023 A 
ATOM      7  C   LIG    1       26.713 -20.477   6.463  0.00  0.00    +0.003 A 
ATOM      8  C   LIG    1       26.690 -19.937   5.178  0.00  0.00    +0.023 A 
ENDROOT
BRANCH   3   9
ATOM      9  N   LIG    1       23.083 -20.350   4.275  0.00  0.00    -0.074 NA
ATOM     10  C   LIG    1       22.450 -19.231   4.242  0.00  0.00    +0.370 C 
ATOM     11  N   LIG    1       22.739 -18.020   4.824  0.00  0.00    -0.235 N 
ATOM     12  H   LIG    1       23.247 -18.034   5.697  0.00  0.00    +0.244 HD
ATOM     13  C   LIG    1       21.652 -17.068   4.657  0.00  0.00    +0.219 C 
ATOM     14  C   LIG    1       20.894 -17.665   3.462  0.00  0.00    +0.219 C 
ATOM     15  N   LIG    1       21.285 -19.056   3.546  0.00  0.00    -0.235 N 
ATOM     16  H   LIG    1       21.122 -19.696   2.781  0.00  0.00    +0.244 HD
ENDBRANCH   3   9
TORSDOF 1
ENDMDL
MODEL 8
REMARK VINA RESULT:      -1.9      2.488      3.609
REMARK  Name = *****
REMARK                            x       y       z     vdW  Elec       q    Type
REMARK                         _______ _______ _______ _____ _____    ______ ____
ROOT
ATOM      1 CL   LIG    1       23.417 -19.922   2.599  0.00  0.00    -0.080 Cl
ATOM      2  C   LIG    1       23.719 -20.409   4.233  0.00  0.00    +0.084 A 
ATOM      3  C   LIG    1       24.947 -20.137   4.865  0.00  0.00    +0.178 A 
ATOM      4  C   LIG    1       25.109 -20.572   6.194  0.00  0.00    +0.084 A 
ATOM      5 CL   LIG    1       26.588 -20.308   7.056  0.00  0.00    -0.080 Cl
ATOM      6  C   LIG    1       24.077 -21.235   6.870  0.00  0.00    +0.023 A 
ATOM      7  C   LIG    1       22.866 -21.484   6.228  0.00  0.00    +0.003 A 
ATOM      8  C   LIG    1       22.687 -21.072   4.909  0.00  0.00    +0.023 A 
ENDROOT
BRANCH   3   9
ATOM      9  N   LIG    1       25.999 -19.491   4.182  0.00  0.00    -0.074 NA
ATOM     10  C   LIG    1       25.858 -18.247   3.888  0.00  0.00    +0.370 C 
ATOM     11  N   LIG    1       24.809 -17.387   4.105  0.00  0.00    -0.235 N 
ATOM     12  H   LIG    1       23.880 -17.783   4.120  0.00  0.00    +0.244 HD
ATOM     13  C   LIG    1       25.017 -16.104   3.451  0.00  0.00    +0.219 C 
ATOM     14  C   LIG    1       26.540 -16.099   3.251  0.00  0.00    +0.219 C 
ATOM     15  N   LIG    1       26.831 -17.517   3.259  0.00  0.00    -0.235 N 
ATOM     16  H   LIG    1       27.777 -17.859   3.353  0.00  0.00    +0.244 HD
ENDBRANCH   3   9
TORSDOF 1
ENDMDL
MODEL 9
REMARK VINA RESULT:      -1.8      2.508      3.854
REMARK  Name = *****
REMARK                            x       y       z     vdW  Elec       q    Type
REMARK                         _______ _______ _______ _____ _____    ______ ____
ROOT
ATOM      1 CL   LIG    1       26.504 -20.425   7.061  0.00  0.00    -0.080 Cl
ATOM      2  C   LIG    1       25.048 -20.680   6.159  0.00  0.00    +0.084 A 
ATOM      3  C   LIG    1       24.933 -20.266   4.818  0.00  0.00    +0.178 A 
ATOM      4  C   LIG    1       23.713 -20.510   4.161  0.00  0.00    +0.084 A 
ATOM      5 CL   LIG    1       23.459 -20.022   2.518  0.00  0.00    -0.080 Cl
ATOM      6  C   LIG    1       22.656 -21.158   4.812  0.00  0.00    +0.023 A 
ATOM      7  C   LIG    1       22.796 -21.570   6.136  0.00  0.00    +0.003 A 
ATOM      8  C   LIG    1       23.992 -21.329   6.810  0.00  0.00    +0.023 A 
ENDROOT
BRANCH   3   9
ATOM      9  N   LIG    1       25.986 -19.590   4.164  0.00  0.00    -0.074 NA
ATOM     10  C   LIG    1       25.825 -18.345   3.885  0.00  0.00    +0.370 C 
ATOM     11  N   LIG    1       24.755 -17.509   4.094  0.00  0.00    -0.235 N 
ATOM     12  H   LIG    1       23.833 -17.924   4.084  0.00  0.00    +0.244 HD
ATOM     13  C   LIG    1       24.950 -16.213   3.461  0.00  0.00    +0.219 C 
ATOM     14  C   LIG    1       26.475 -16.175   3.291  0.00  0.00    +0.219 C 
ATOM     15  N   LIG    1       26.795 -17.587   3.286  0.00  0.00    -0.235 N 
ATOM     16  H   LIG    1       27.746 -17.912   3.393  0.00  0.00    +0.244 HD
ENDBRANCH   3   9
TORSDOF 1
ENDMDL
