MODEL 1
REMARK VINA RESULT:       6.5      0.000      0.000
REMARK  Name = *****
REMARK                            x       y       z     vdW  Elec       q    Type
REMARK                         _______ _______ _______ _____ _____    ______ ____
ROOT
ATOM      1  C   LIG    1       25.476 -14.232   2.006  0.00  0.00    +0.015 C 
ATOM      2  C   LIG    1       25.975 -14.839   3.328  0.00  0.00    +0.009 C 
ATOM      3  C   LIG    1       27.329 -14.197   3.776  0.00  0.00    +0.132 C 
ATOM      4  C   LIG    1       27.879 -15.190   4.802  0.00  0.00    +0.043 C 
ATOM      5  C   LIG    1       27.395 -16.569   4.322  0.00  0.00    +0.008 C 
ATOM      6  C   LIG    1       26.427 -16.314   3.143  0.00  0.00    +0.005 C 
ATOM      7  C   LIG    1       25.280 -17.328   2.955  0.00  0.00    +0.034 C 
ATOM      8  C   LIG    1       25.842 -18.750   2.759  0.00  0.00    +0.011 C 
ATOM      9  C   LIG    1       24.739 -19.774   2.506  0.00  0.00    +0.032 C 
ATOM     10  C   LIG    1       23.768 -19.702   3.655  0.00  0.00    -0.057 C 
ATOM     11  C   LIG    1       23.050 -18.349   3.837  0.00  0.00    +0.026 C 
ATOM     12  C   LIG    1       22.204 -18.023   2.578  0.00  0.00    +0.019 C 
ATOM     13  C   LIG    1       22.014 -18.491   4.994  0.00  0.00    +0.022 C 
ATOM     14  C   LIG    1       22.529 -19.226   6.221  0.00  0.00    +0.080 C 
ATOM     15  C   LIG    1       23.000 -20.599   5.820  0.00  0.00    +0.156 C 
ATOM     16  O   LIG    1       22.913 -21.571   6.561  0.00  0.00    -0.293 OA
ATOM     17  C   LIG    1       23.696 -20.730   4.519  0.00  0.00    +0.046 C 
ATOM     18  C   LIG    1       24.176 -17.254   4.060  0.00  0.00    +0.149 C 
ATOM     19  F   LIG    1       24.773 -17.542   5.264  0.00  0.00    -0.238 F 
ATOM     20  C   LIG    1       23.691 -15.786   4.159  0.00  0.00    +0.153 C 
ATOM     21  C   LIG    1       24.845 -14.794   4.383  0.00  0.00    +0.044 C 
ENDROOT
BRANCH   3  22
ATOM     22  O   LIG    1       28.244 -14.266   2.647  0.00  0.00    -0.380 OA
ATOM     23  H   LIG    1       27.701 -14.160   1.838  0.00  0.00    +0.211 HD
ENDBRANCH   3  22
BRANCH   3  24
ATOM     24  C   LIG    1       27.415 -12.735   4.253  0.00  0.00    +0.190 C 
ATOM     25  O   LIG    1       26.377 -12.136   4.576  0.00  0.00    -0.292 OA
BRANCH  24  26
ATOM     26  C   LIG    1       28.738 -12.005   4.331  0.00  0.00    +0.233 C 
BRANCH  26  27
ATOM     27  O   LIG    1       29.132 -11.819   5.677  0.00  0.00    -0.387 OA
ATOM     28  H   LIG    1       30.087 -11.618   5.667  0.00  0.00    +0.210 HD
ENDBRANCH  26  27
ENDBRANCH  24  26
ENDBRANCH   3  24
BRANCH  20  29
ATOM     29  O   LIG    1       22.792 -15.601   5.254  0.00  0.00    -0.389 OA
ATOM     30  H   LIG    1       22.765 -16.443   5.748  0.00  0.00    +0.210 HD
ENDBRANCH  20  29
TORSDOF 5
ENDMDL
MODEL 2
REMARK VINA RESULT:       8.0      1.956      2.552
REMARK  Name = *****
REMARK                            x       y       z     vdW  Elec       q    Type
REMARK                         _______ _______ _______ _____ _____    ______ ____
ROOT
ATOM      1  C   LIG    1       23.192 -14.533   1.968  0.00  0.00    +0.015 C 
ATOM      2  C   LIG    1       23.957 -14.616   3.300  0.00  0.00    +0.009 C 
ATOM      3  C   LIG    1       24.640 -13.254   3.651  0.00  0.00    +0.132 C 
ATOM      4  C   LIG    1       25.681 -13.632   4.707  0.00  0.00    +0.043 C 
ATOM      5  C   LIG    1       26.137 -15.052   4.328  0.00  0.00    +0.008 C 
ATOM      6  C   LIG    1       25.214 -15.521   3.180  0.00  0.00    +0.005 C 
ATOM      7  C   LIG    1       24.922 -17.035   3.100  0.00  0.00    +0.034 C 
ATOM      8  C   LIG    1       26.233 -17.832   2.961  0.00  0.00    +0.011 C 
ATOM      9  C   LIG    1       25.982 -19.330   2.814  0.00  0.00    +0.032 C 
ATOM     10  C   LIG    1       25.167 -19.781   3.998  0.00  0.00    -0.057 C 
ATOM     11  C   LIG    1       23.775 -19.133   4.134  0.00  0.00    +0.026 C 
ATOM     12  C   LIG    1       22.905 -19.479   2.896  0.00  0.00    +0.019 C 
ATOM     13  C   LIG    1       23.038 -19.792   5.341  0.00  0.00    +0.022 C 
ATOM     14  C   LIG    1       23.894 -19.974   6.584  0.00  0.00    +0.080 C 
ATOM     15  C   LIG    1       25.104 -20.802   6.242  0.00  0.00    +0.156 C 
ATOM     16  O   LIG    1       25.627 -21.571   7.040  0.00  0.00    -0.293 OA
ATOM     17  C   LIG    1       25.736 -20.576   4.922  0.00  0.00    +0.046 C 
ATOM     18  C   LIG    1       24.001 -17.566   4.245  0.00  0.00    +0.149 C 
ATOM     19  F   LIG    1       24.649 -17.346   5.437  0.00  0.00    -0.238 F 
ATOM     20  C   LIG    1       22.722 -16.693   4.282  0.00  0.00    +0.153 C 
ATOM     21  C   LIG    1       23.034 -15.191   4.398  0.00  0.00    +0.044 C 
ENDROOT
BRANCH   3  22
ATOM     22  O   LIG    1       25.409 -12.833   2.490  0.00  0.00    -0.380 OA
ATOM     23  H   LIG    1       25.139 -13.415   1.748  0.00  0.00    +0.211 HD
ENDBRANCH   3  22
BRANCH   3  24
ATOM     24  C   LIG    1       23.818 -12.010   4.040  0.00  0.00    +0.190 C 
ATOM     25  O   LIG    1       23.120 -11.447   3.182  0.00  0.00    -0.292 OA
BRANCH  24  26
ATOM     26  C   LIG    1       23.846 -11.452   5.446  0.00  0.00    +0.233 C 
BRANCH  26  27
ATOM     27  O   LIG    1       22.554 -11.476   6.023  0.00  0.00    -0.387 OA
ATOM     28  H   LIG    1       22.677 -11.575   6.986  0.00  0.00    +0.210 HD
ENDBRANCH  26  27
ENDBRANCH  24  26
ENDBRANCH   3  24
BRANCH  20  29
ATOM     29  O   LIG    1       21.896 -17.015   5.402  0.00  0.00    -0.389 OA
ATOM     30  H   LIG    1       21.351 -16.227   5.591  0.00  0.00    +0.210 HD
ENDBRANCH  20  29
TORSDOF 5
ENDMDL
MODEL 3
REMARK VINA RESULT:       8.3      1.634      6.829
REMARK  Name = *****
REMARK                            x       y       z     vdW  Elec       q    Type
REMARK                         _______ _______ _______ _____ _____    ______ ____
ROOT
ATOM      1  C   LIG    1       22.671 -18.442   2.226  0.00  0.00    +0.015 C 
ATOM      2  C   LIG    1       23.185 -18.324   3.672  0.00  0.00    +0.009 C 
ATOM      3  C   LIG    1       22.423 -19.298   4.628  0.00  0.00    +0.132 C 
ATOM      4  C   LIG    1       22.722 -18.743   6.023  0.00  0.00    +0.043 C 
ATOM      5  C   LIG    1       22.837 -17.222   5.831  0.00  0.00    +0.008 C 
ATOM      6  C   LIG    1       22.788 -16.962   4.307  0.00  0.00    +0.005 C 
ATOM      7  C   LIG    1       23.579 -15.745   3.785  0.00  0.00    +0.034 C 
ATOM      8  C   LIG    1       23.091 -14.450   4.465  0.00  0.00    +0.011 C 
ATOM      9  C   LIG    1       23.806 -13.214   3.928  0.00  0.00    +0.032 C 
ATOM     10  C   LIG    1       25.287 -13.423   4.104  0.00  0.00    -0.057 C 
ATOM     11  C   LIG    1       25.887 -14.620   3.340  0.00  0.00    +0.026 C 
ATOM     12  C   LIG    1       25.690 -14.427   1.813  0.00  0.00    +0.019 C 
ATOM     13  C   LIG    1       27.433 -14.616   3.551  0.00  0.00    +0.022 C 
ATOM     14  C   LIG    1       27.877 -14.354   4.981  0.00  0.00    +0.080 C 
ATOM     15  C   LIG    1       27.321 -13.033   5.443  0.00  0.00    +0.156 C 
ATOM     16  O   LIG    1       27.915 -12.304   6.229  0.00  0.00    -0.293 OA
ATOM     17  C   LIG    1       25.952 -12.677   5.005  0.00  0.00    +0.046 C 
ATOM     18  C   LIG    1       25.131 -15.919   3.847  0.00  0.00    +0.149 C 
ATOM     19  F   LIG    1       25.480 -16.087   5.166  0.00  0.00    -0.238 F 
ATOM     20  C   LIG    1       25.497 -17.244   3.132  0.00  0.00    +0.153 C 
ATOM     21  C   LIG    1       24.725 -18.451   3.691  0.00  0.00    +0.044 C 
ENDROOT
BRANCH   3  22
ATOM     22  O   LIG    1       20.998 -19.088   4.430  0.00  0.00    -0.380 OA
ATOM     23  H   LIG    1       20.856 -19.015   3.462  0.00  0.00    +0.211 HD
ENDBRANCH   3  22
BRANCH   3  24
ATOM     24  C   LIG    1       22.604 -20.826   4.542  0.00  0.00    +0.190 C 
ATOM     25  O   LIG    1       21.672 -21.571   4.887  0.00  0.00    -0.292 OA
BRANCH  24  26
ATOM     26  C   LIG    1       23.894 -21.443   4.051  0.00  0.00    +0.233 C 
BRANCH  26  27
ATOM     27  O   LIG    1       24.832 -21.556   5.106  0.00  0.00    -0.387 OA
ATOM     28  H   LIG    1       25.692 -21.259   4.752  0.00  0.00    +0.210 HD
ENDBRANCH  26  27
ENDBRANCH  24  26
ENDBRANCH   3  24
BRANCH  20  29
ATOM     29  O   LIG    1       26.883 -17.557   3.279  0.00  0.00    -0.389 OA
ATOM     30  H   LIG    1       27.177 -17.957   2.438  0.00  0.00    +0.210 HD
ENDBRANCH  20  29
TORSDOF 5
ENDMDL
