MODEL 1
REMARK VINA RESULT:      -6.6      0.000      0.000
REMARK  Name = *****
REMARK                            x       y       z     vdW  Elec       q    Type
REMARK                         _______ _______ _______ _____ _____    ______ ____
ROOT
ATOM      1  C   LIG    1       24.043 -27.941   6.473  0.00  0.00    +0.005 A 
ATOM      2  C   LIG    1       24.788 -28.626   7.447  0.00  0.00    -0.033 A 
ATOM      3  C   LIG    1       25.908 -27.983   7.987  0.00  0.00    +0.005 A 
ATOM      4  C   LIG    1       26.275 -26.698   7.570  0.00  0.00    +0.005 A 
ATOM      5  C   LIG    1       25.529 -26.021   6.597  0.00  0.00    -0.033 A 
ATOM      6  C   LIG    1       24.413 -26.659   6.048  0.00  0.00    +0.005 A 
ENDROOT
BRANCH   2   7
ATOM      7  C   LIG    1       24.361 -30.000   7.935  0.00  0.00    +0.119 C 
BRANCH   7   8
ATOM      8  N   LIG    1       25.347 -31.094   7.855  0.00  0.00    -0.297 NA
ATOM      9  C   LIG    1       26.451 -30.988   8.839  0.00  0.00    +0.100 C 
ATOM     10  C   LIG    1       26.040 -31.003  10.337  0.00  0.00    +0.096 C 
ATOM     11  N   LIG    1       25.292 -32.209  10.700  0.00  0.00    -0.315 NA
ATOM     12  H   LIG    1       24.703 -32.493   9.905  0.00  0.00    +0.122 HD
ATOM     13  C   LIG    1       24.440 -32.006  11.871  0.00  0.00    +0.082 C 
ATOM     14  C   LIG    1       23.400 -33.127  12.059  0.00  0.00    +0.030 C 
ATOM     15  C   LIG    1       22.385 -33.226  10.910  0.00  0.00    +0.082 C 
ATOM     16  N   LIG    1       23.029 -33.824   9.750  0.00  0.00    -0.315 NA
ATOM     17  H   LIG    1       23.061 -34.837   9.829  0.00  0.00    +0.122 HD
ATOM     18  C   LIG    1       22.478 -33.402   8.468  0.00  0.00    +0.096 C 
ATOM     19  C   LIG    1       23.459 -33.824   7.361  0.00  0.00    +0.096 C 
ATOM     20  N   LIG    1       23.118 -33.194   6.082  0.00  0.00    -0.315 NA
ATOM     21  H   LIG    1       22.448 -33.794   5.603  0.00  0.00    +0.122 HD
ATOM     22  C   LIG    1       24.306 -33.022   5.246  0.00  0.00    +0.082 C 
ATOM     23  C   LIG    1       24.919 -31.618   5.340  0.00  0.00    +0.030 C 
ATOM     24  C   LIG    1       25.888 -31.330   6.505  0.00  0.00    +0.086 C 
ENDBRANCH   7   8
ENDBRANCH   2   7
BRANCH   5  25
ATOM     25  C   LIG    1       25.913 -24.615   6.170  0.00  0.00    +0.119 C 
BRANCH  25  26
ATOM     26  N   LIG    1       25.552 -23.557   7.133  0.00  0.00    -0.297 NA
ATOM     27  C   LIG    1       26.734 -22.856   7.698  0.00  0.00    +0.100 C 
ATOM     28  C   LIG    1       27.658 -22.076   6.720  0.00  0.00    +0.096 C 
ATOM     29  N   LIG    1       27.457 -20.625   6.819  0.00  0.00    -0.315 NA
ATOM     30  H   LIG    1       26.461 -20.417   6.799  0.00  0.00    +0.122 HD
ATOM     31  C   LIG    1       28.179 -19.875   5.784  0.00  0.00    +0.082 C 
ATOM     32  C   LIG    1       27.256 -18.867   5.081  0.00  0.00    +0.030 C 
ATOM     33  C   LIG    1       26.261 -19.574   4.153  0.00  0.00    +0.082 C 
ATOM     34  N   LIG    1       25.106 -18.730   3.822  0.00  0.00    -0.315 NA
ATOM     35  H   LIG    1       24.893 -18.098   4.594  0.00  0.00    +0.122 HD
ATOM     36  C   LIG    1       23.925 -19.572   3.548  0.00  0.00    +0.096 C 
ATOM     37  C   LIG    1       23.221 -20.053   4.841  0.00  0.00    +0.096 C 
ATOM     38  N   LIG    1       22.541 -21.341   4.640  0.00  0.00    -0.315 NA
ATOM     39  H   LIG    1       21.690 -21.170   4.101  0.00  0.00    +0.122 HD
ATOM     40  C   LIG    1       22.192 -21.994   5.906  0.00  0.00    +0.082 C 
ATOM     41  C   LIG    1       23.185 -23.101   6.319  0.00  0.00    +0.030 C 
ATOM     42  C   LIG    1       24.613 -22.586   6.539  0.00  0.00    +0.086 C 
ENDBRANCH  25  26
ENDBRANCH   5  25
TORSDOF 4
ENDMDL
MODEL 2
REMARK VINA RESULT:      -6.3      0.862      1.081
REMARK  Name = *****
REMARK                            x       y       z     vdW  Elec       q    Type
REMARK                         _______ _______ _______ _____ _____    ______ ____
ROOT
ATOM      1  C   LIG    1       24.040 -27.906   6.029  0.00  0.00    +0.005 A 
ATOM      2  C   LIG    1       24.784 -28.514   7.052  0.00  0.00    -0.033 A 
ATOM      3  C   LIG    1       25.817 -27.775   7.640  0.00  0.00    +0.005 A 
ATOM      4  C   LIG    1       26.100 -26.470   7.221  0.00  0.00    +0.005 A 
ATOM      5  C   LIG    1       25.356 -25.869   6.198  0.00  0.00    -0.033 A 
ATOM      6  C   LIG    1       24.327 -26.603   5.602  0.00  0.00    +0.005 A 
ENDROOT
BRANCH   2   7
ATOM      7  C   LIG    1       24.443 -29.913   7.541  0.00  0.00    +0.119 C 
BRANCH   7   8
ATOM      8  N   LIG    1       25.521 -30.919   7.546  0.00  0.00    -0.297 NA
ATOM      9  C   LIG    1       26.538 -30.713   8.607  0.00  0.00    +0.100 C 
ATOM     10  C   LIG    1       26.021 -30.752  10.071  0.00  0.00    +0.096 C 
ATOM     11  N   LIG    1       25.353 -32.015  10.395  0.00  0.00    -0.315 NA
ATOM     12  H   LIG    1       24.850 -32.353   9.563  0.00  0.00    +0.122 HD
ATOM     13  C   LIG    1       24.403 -31.878  11.498  0.00  0.00    +0.082 C 
ATOM     14  C   LIG    1       23.451 -33.082  11.625  0.00  0.00    +0.030 C 
ATOM     15  C   LIG    1       22.535 -33.275  10.406  0.00  0.00    +0.082 C 
ATOM     16  N   LIG    1       23.311 -33.824   9.304  0.00  0.00    -0.315 NA
ATOM     17  H   LIG    1       23.422 -34.830   9.399  0.00  0.00    +0.122 HD
ATOM     18  C   LIG    1       22.821 -33.459   7.980  0.00  0.00    +0.096 C 
ATOM     19  C   LIG    1       23.914 -33.803   6.952  0.00  0.00    +0.096 C 
ATOM     20  N   LIG    1       23.614 -33.214   5.644  0.00  0.00    -0.315 NA
ATOM     21  H   LIG    1       23.035 -33.872   5.126  0.00  0.00    +0.122 HD
ATOM     22  C   LIG    1       24.842 -32.946   4.894  0.00  0.00    +0.082 C 
ATOM     23  C   LIG    1       25.325 -31.495   5.014  0.00  0.00    +0.030 C 
ATOM     24  C   LIG    1       26.179 -31.117   6.243  0.00  0.00    +0.086 C 
ENDBRANCH   7   8
ENDBRANCH   2   7
BRANCH   5  25
ATOM     25  C   LIG    1       25.647 -24.442   5.768  0.00  0.00    +0.119 C 
BRANCH  25  26
ATOM     26  N   LIG    1       25.136 -23.404   6.685  0.00  0.00    -0.297 NA
ATOM     27  C   LIG    1       26.075 -23.094   7.795  0.00  0.00    +0.100 C 
ATOM     28  C   LIG    1       27.474 -22.519   7.430  0.00  0.00    +0.096 C 
ATOM     29  N   LIG    1       27.561 -21.080   7.709  0.00  0.00    -0.315 NA
ATOM     30  H   LIG    1       26.741 -20.611   7.331  0.00  0.00    +0.122 HD
ATOM     31  C   LIG    1       28.800 -20.475   7.208  0.00  0.00    +0.082 C 
ATOM     32  C   LIG    1       28.509 -19.202   6.394  0.00  0.00    +0.030 C 
ATOM     33  C   LIG    1       27.891 -19.540   5.032  0.00  0.00    +0.082 C 
ATOM     34  N   LIG    1       27.200 -18.392   4.430  0.00  0.00    -0.315 NA
ATOM     35  H   LIG    1       26.813 -17.789   5.155  0.00  0.00    +0.122 HD
ATOM     36  C   LIG    1       26.107 -18.860   3.556  0.00  0.00    +0.096 C 
ATOM     37  C   LIG    1       24.827 -19.233   4.347  0.00  0.00    +0.096 C 
ATOM     38  N   LIG    1       24.048 -20.269   3.655  0.00  0.00    -0.315 NA
ATOM     39  H   LIG    1       23.571 -19.834   2.864  0.00  0.00    +0.122 HD
ATOM     40  C   LIG    1       23.055 -20.901   4.531  0.00  0.00    +0.082 C 
ATOM     41  C   LIG    1       23.512 -22.264   5.093  0.00  0.00    +0.030 C 
ATOM     42  C   LIG    1       24.777 -22.172   5.957  0.00  0.00    +0.086 C 
ENDBRANCH  25  26
ENDBRANCH   5  25
TORSDOF 4
ENDMDL
MODEL 3
REMARK VINA RESULT:      -6.1      1.963     11.072
REMARK  Name = *****
REMARK                            x       y       z     vdW  Elec       q    Type
REMARK                         _______ _______ _______ _____ _____    ______ ____
ROOT
ATOM      1  C   LIG    1       23.696 -24.682   6.051  0.00  0.00    +0.005 A 
ATOM      2  C   LIG    1       24.695 -23.748   5.731  0.00  0.00    -0.033 A 
ATOM      3  C   LIG    1       26.027 -24.110   5.958  0.00  0.00    +0.005 A 
ATOM      4  C   LIG    1       26.356 -25.362   6.488  0.00  0.00    +0.005 A 
ATOM      5  C   LIG    1       25.356 -26.289   6.807  0.00  0.00    -0.033 A 
ATOM      6  C   LIG    1       24.022 -25.933   6.589  0.00  0.00    +0.005 A 
ENDROOT
BRANCH   2   7
ATOM      7  C   LIG    1       24.340 -22.406   5.109  0.00  0.00    +0.119 C 
BRANCH   7   8
ATOM      8  N   LIG    1       24.007 -21.295   6.020  0.00  0.00    -0.297 NA
ATOM      9  C   LIG    1       24.217 -21.604   7.455  0.00  0.00    +0.100 C 
ATOM     10  C   LIG    1       25.667 -21.970   7.874  0.00  0.00    +0.096 C 
ATOM     11  N   LIG    1       26.629 -20.916   7.545  0.00  0.00    -0.315 NA
ATOM     12  H   LIG    1       26.346 -20.464   6.664  0.00  0.00    +0.122 HD
ATOM     13  C   LIG    1       27.991 -21.427   7.399  0.00  0.00    +0.082 C 
ATOM     14  C   LIG    1       28.941 -20.421   6.722  0.00  0.00    +0.030 C 
ATOM     15  C   LIG    1       28.547 -20.075   5.278  0.00  0.00    +0.082 C 
ATOM     16  N   LIG    1       27.392 -19.191   5.292  0.00  0.00    -0.315 NA
ATOM     17  H   LIG    1       27.670 -18.227   5.463  0.00  0.00    +0.122 HD
ATOM     18  C   LIG    1       26.530 -19.302   4.123  0.00  0.00    +0.096 C 
ATOM     19  C   LIG    1       25.202 -18.590   4.434  0.00  0.00    +0.096 C 
ATOM     20  N   LIG    1       24.186 -18.897   3.424  0.00  0.00    -0.315 NA
ATOM     21  H   LIG    1       24.277 -18.220   2.668  0.00  0.00    +0.122 HD
ATOM     22  C   LIG    1       22.839 -18.821   3.990  0.00  0.00    +0.082 C 
ATOM     23  C   LIG    1       22.280 -20.184   4.419  0.00  0.00    +0.030 C 
ATOM     24  C   LIG    1       22.668 -20.717   5.814  0.00  0.00    +0.086 C 
ENDBRANCH   7   8
ENDBRANCH   2   7
BRANCH   5  25
ATOM     25  C   LIG    1       25.718 -27.659   7.353  0.00  0.00    +0.119 C 
BRANCH  25  26
ATOM     26  N   LIG    1       24.621 -28.646   7.320  0.00  0.00    -0.297 NA
ATOM     27  C   LIG    1       24.257 -29.066   5.942  0.00  0.00    +0.100 C 
ATOM     28  C   LIG    1       25.339 -29.783   5.085  0.00  0.00    +0.096 C 
ATOM     29  N   LIG    1       25.088 -31.226   4.984  0.00  0.00    -0.315 NA
ATOM     30  H   LIG    1       24.888 -31.602   5.908  0.00  0.00    +0.122 HD
ATOM     31  C   LIG    1       26.186 -31.954   4.339  0.00  0.00    +0.082 C 
ATOM     32  C   LIG    1       26.606 -33.179   5.168  0.00  0.00    +0.030 C 
ATOM     33  C   LIG    1       27.363 -32.764   6.434  0.00  0.00    +0.082 C 
ATOM     34  N   LIG    1       27.384 -33.825   7.450  0.00  0.00    -0.315 NA
ATOM     35  H   LIG    1       26.538 -34.391   7.390  0.00  0.00    +0.122 HD
ATOM     36  C   LIG    1       27.476 -33.234   8.799  0.00  0.00    +0.096 C 
ATOM     37  C   LIG    1       26.107 -32.736   9.328  0.00  0.00    +0.096 C 
ATOM     38  N   LIG    1       26.266 -31.615  10.265  0.00  0.00    -0.315 NA
ATOM     39  H   LIG    1       26.604 -31.989  11.154  0.00  0.00    +0.122 HD
ATOM     40  C   LIG    1       25.010 -30.891  10.490  0.00  0.00    +0.082 C 
ATOM     41  C   LIG    1       24.896 -29.591   9.666  0.00  0.00    +0.030 C 
ATOM     42  C   LIG    1       24.934 -29.826   8.151  0.00  0.00    +0.086 C 
ENDBRANCH  25  26
ENDBRANCH   5  25
TORSDOF 4
ENDMDL
MODEL 4
REMARK VINA RESULT:      -6.1      1.699      3.605
REMARK  Name = *****
REMARK                            x       y       z     vdW  Elec       q    Type
REMARK                         _______ _______ _______ _____ _____    ______ ____
ROOT
ATOM      1  C   LIG    1       26.549 -27.040   7.006  0.00  0.00    +0.005 A 
ATOM      2  C   LIG    1       25.542 -28.018   7.035  0.00  0.00    -0.033 A 
ATOM      3  C   LIG    1       24.278 -27.671   6.543  0.00  0.00    +0.005 A 
ATOM      4  C   LIG    1       24.024 -26.391   6.039  0.00  0.00    +0.005 A 
ATOM      5  C   LIG    1       25.032 -25.419   6.016  0.00  0.00    -0.033 A 
ATOM      6  C   LIG    1       26.295 -25.755   6.510  0.00  0.00    +0.005 A 
ENDROOT
BRANCH   2   7
ATOM      7  C   LIG    1       25.831 -29.423   7.536  0.00  0.00    +0.119 C 
BRANCH   7   8
ATOM      8  N   LIG    1       24.706 -30.376   7.597  0.00  0.00    -0.297 NA
ATOM      9  C   LIG    1       24.000 -30.562   6.306  0.00  0.00    +0.100 C 
ATOM     10  C   LIG    1       24.853 -31.110   5.129  0.00  0.00    +0.096 C 
ATOM     11  N   LIG    1       25.472 -32.401   5.439  0.00  0.00    -0.315 NA
ATOM     12  H   LIG    1       25.726 -32.422   6.436  0.00  0.00    +0.122 HD
ATOM     13  C   LIG    1       26.670 -32.653   4.639  0.00  0.00    +0.082 C 
ATOM     14  C   LIG    1       27.520 -33.817   5.181  0.00  0.00    +0.030 C 
ATOM     15  C   LIG    1       28.092 -33.564   6.584  0.00  0.00    +0.082 C 
ATOM     16  N   LIG    1       27.028 -33.696   7.568  0.00  0.00    -0.315 NA
ATOM     17  H   LIG    1       26.859 -34.672   7.797  0.00  0.00    +0.122 HD
ATOM     18  C   LIG    1       27.209 -32.886   8.767  0.00  0.00    +0.096 C 
ATOM     19  C   LIG    1       25.874 -32.855   9.532  0.00  0.00    +0.096 C 
ATOM     20  N   LIG    1       25.894 -31.842  10.590  0.00  0.00    -0.315 NA
ATOM     21  H   LIG    1       26.272 -32.272  11.433  0.00  0.00    +0.122 HD
ATOM     22  C   LIG    1       24.547 -31.337  10.861  0.00  0.00    +0.082 C 
ATOM     23  C   LIG    1       24.231 -30.024  10.133  0.00  0.00    +0.030 C 
ATOM     24  C   LIG    1       23.737 -30.108   8.673  0.00  0.00    +0.086 C 
ENDBRANCH   7   8
ENDBRANCH   2   7
BRANCH   5  25
ATOM     25  C   LIG    1       24.761 -24.040   5.440  0.00  0.00    +0.119 C 
BRANCH  25  26
ATOM     26  N   LIG    1       24.494 -22.993   6.445  0.00  0.00    -0.297 NA
ATOM     27  C   LIG    1       25.582 -22.858   7.448  0.00  0.00    +0.100 C 
ATOM     28  C   LIG    1       26.995 -22.445   6.944  0.00  0.00    +0.096 C 
ATOM     29  N   LIG    1       27.299 -21.043   7.260  0.00  0.00    -0.315 NA
ATOM     30  H   LIG    1       26.511 -20.457   6.996  0.00  0.00    +0.122 HD
ATOM     31  C   LIG    1       28.544 -20.575   6.639  0.00  0.00    +0.082 C 
ATOM     32  C   LIG    1       28.333 -19.238   5.909  0.00  0.00    +0.030 C 
ATOM     33  C   LIG    1       27.529 -19.428   4.617  0.00  0.00    +0.082 C 
ATOM     34  N   LIG    1       26.931 -18.175   4.139  0.00  0.00    -0.315 NA
ATOM     35  H   LIG    1       26.708 -17.564   4.925  0.00  0.00    +0.122 HD
ATOM     36  C   LIG    1       25.696 -18.458   3.382  0.00  0.00    +0.096 C 
ATOM     37  C   LIG    1       24.474 -18.706   4.303  0.00  0.00    +0.096 C 
ATOM     38  N   LIG    1       23.495 -19.601   3.671  0.00  0.00    -0.315 NA
ATOM     39  H   LIG    1       22.994 -19.071   2.955  0.00  0.00    +0.122 HD
ATOM     40  C   LIG    1       22.531 -20.146   4.634  0.00  0.00    +0.082 C 
ATOM     41  C   LIG    1       22.866 -21.581   5.092  0.00  0.00    +0.030 C 
ATOM     42  C   LIG    1       24.220 -21.691   5.806  0.00  0.00    +0.086 C 
ENDBRANCH  25  26
ENDBRANCH   5  25
TORSDOF 4
ENDMDL
MODEL 5
REMARK VINA RESULT:      -6.0      1.599     11.059
REMARK  Name = *****
REMARK                            x       y       z     vdW  Elec       q    Type
REMARK                         _______ _______ _______ _____ _____    ______ ____
ROOT
ATOM      1  C   LIG    1       26.328 -25.462   6.747  0.00  0.00    +0.005 A 
ATOM      2  C   LIG    1       25.237 -24.841   6.118  0.00  0.00    -0.033 A 
ATOM      3  C   LIG    1       24.083 -25.604   5.903  0.00  0.00    +0.005 A 
ATOM      4  C   LIG    1       24.018 -26.944   6.302  0.00  0.00    +0.005 A 
ATOM      5  C   LIG    1       25.110 -27.558   6.927  0.00  0.00    -0.033 A 
ATOM      6  C   LIG    1       26.269 -26.804   7.140  0.00  0.00    +0.005 A 
ENDROOT
BRANCH   2   7
ATOM      7  C   LIG    1       25.290 -23.372   5.730  0.00  0.00    +0.119 C 
BRANCH   7   8
ATOM      8  N   LIG    1       24.733 -22.391   6.679  0.00  0.00    -0.297 NA
ATOM      9  C   LIG    1       25.326 -22.456   8.037  0.00  0.00    +0.100 C 
ATOM     10  C   LIG    1       26.856 -22.198   8.132  0.00  0.00    +0.096 C 
ATOM     11  N   LIG    1       27.238 -20.893   7.588  0.00  0.00    -0.315 NA
ATOM     12  H   LIG    1       26.632 -20.671   6.786  0.00  0.00    +0.122 HD
ATOM     13  C   LIG    1       28.633 -20.856   7.152  0.00  0.00    +0.082 C 
ATOM     14  C   LIG    1       28.956 -19.634   6.272  0.00  0.00    +0.030 C 
ATOM     15  C   LIG    1       28.181 -19.605   4.946  0.00  0.00    +0.082 C 
ATOM     16  N   LIG    1       26.799 -19.233   5.205  0.00  0.00    -0.315 NA
ATOM     17  H   LIG    1       26.702 -18.225   5.300  0.00  0.00    +0.122 HD
ATOM     18  C   LIG    1       25.838 -19.777   4.253  0.00  0.00    +0.096 C 
ATOM     19  C   LIG    1       24.427 -19.600   4.841  0.00  0.00    +0.096 C 
ATOM     20  N   LIG    1       23.436 -20.368   4.081  0.00  0.00    -0.315 NA
ATOM     21  H   LIG    1       23.102 -19.783   3.317  0.00  0.00    +0.122 HD
ATOM     22  C   LIG    1       22.309 -20.758   4.929  0.00  0.00    +0.082 C 
ATOM     23  C   LIG    1       22.428 -22.183   5.484  0.00  0.00    +0.030 C 
ATOM     24  C   LIG    1       23.262 -22.391   6.766  0.00  0.00    +0.086 C 
ENDBRANCH   7   8
ENDBRANCH   2   7
BRANCH   5  25
ATOM     25  C   LIG    1       25.025 -29.003   7.386  0.00  0.00    +0.119 C 
BRANCH  25  26
ATOM     26  N   LIG    1       26.233 -29.507   8.068  0.00  0.00    -0.297 NA
ATOM     27  C   LIG    1       26.623 -28.687   9.244  0.00  0.00    +0.100 C 
ATOM     28  C   LIG    1       25.621 -28.587  10.430  0.00  0.00    +0.096 C 
ATOM     29  N   LIG    1       26.046 -29.407  11.573  0.00  0.00    -0.315 NA
ATOM     30  H   LIG    1       26.306 -30.335  11.247  0.00  0.00    +0.122 HD
ATOM     31  C   LIG    1       25.034 -29.478  12.633  0.00  0.00    +0.082 C 
ATOM     32  C   LIG    1       24.781 -30.932  13.065  0.00  0.00    +0.030 C 
ATOM     33  C   LIG    1       24.000 -31.705  11.996  0.00  0.00    +0.082 C 
ATOM     34  N   LIG    1       24.127 -33.161  12.152  0.00  0.00    -0.315 NA
ATOM     35  H   LIG    1       25.034 -33.398  12.551  0.00  0.00    +0.122 HD
ATOM     36  C   LIG    1       23.986 -33.825  10.841  0.00  0.00    +0.096 C 
ATOM     37  C   LIG    1       25.293 -33.786  10.008  0.00  0.00    +0.096 C 
ATOM     38  N   LIG    1       25.015 -33.803   8.566  0.00  0.00    -0.315 NA
ATOM     39  H   LIG    1       24.740 -34.752   8.306  0.00  0.00    +0.122 HD
ATOM     40  C   LIG    1       26.176 -33.398   7.766  0.00  0.00    +0.082 C 
ATOM     41  C   LIG    1       26.116 -31.929   7.298  0.00  0.00    +0.030 C 
ATOM     42  C   LIG    1       26.082 -30.923   8.455  0.00  0.00    +0.086 C 
ENDBRANCH  25  26
ENDBRANCH   5  25
TORSDOF 4
ENDMDL
MODEL 6
REMARK VINA RESULT:      -5.9      1.359     11.019
REMARK  Name = *****
REMARK                            x       y       z     vdW  Elec       q    Type
REMARK                         _______ _______ _______ _____ _____    ______ ____
ROOT
ATOM      1  C   LIG    1       23.957 -24.831   5.797  0.00  0.00    +0.005 A 
ATOM      2  C   LIG    1       25.276 -24.362   5.906  0.00  0.00    -0.033 A 
ATOM      3  C   LIG    1       26.256 -25.260   6.343  0.00  0.00    +0.005 A 
ATOM      4  C   LIG    1       25.934 -26.584   6.660  0.00  0.00    +0.005 A 
ATOM      5  C   LIG    1       24.616 -27.045   6.552  0.00  0.00    -0.033 A 
ATOM      6  C   LIG    1       23.629 -26.153   6.122  0.00  0.00    +0.005 A 
ENDROOT
BRANCH   2   7
ATOM      7  C   LIG    1       25.634 -22.938   5.513  0.00  0.00    +0.119 C 
BRANCH   7   8
ATOM      8  N   LIG    1       25.006 -21.838   6.269  0.00  0.00    -0.297 NA
ATOM      9  C   LIG    1       24.964 -22.058   7.735  0.00  0.00    +0.100 C 
ATOM     10  C   LIG    1       26.335 -22.227   8.445  0.00  0.00    +0.096 C 
ATOM     11  N   LIG    1       27.218 -21.077   8.237  0.00  0.00    -0.315 NA
ATOM     12  H   LIG    1       27.065 -20.701   7.291  0.00  0.00    +0.122 HD
ATOM     13  C   LIG    1       28.631 -21.423   8.386  0.00  0.00    +0.082 C 
ATOM     14  C   LIG    1       29.577 -20.338   7.838  0.00  0.00    +0.030 C 
ATOM     15  C   LIG    1       29.438 -20.104   6.326  0.00  0.00    +0.082 C 
ATOM     16  N   LIG    1       28.211 -19.368   6.064  0.00  0.00    -0.315 NA
ATOM     17  H   LIG    1       28.340 -18.371   6.221  0.00  0.00    +0.122 HD
ATOM     18  C   LIG    1       27.613 -19.633   4.761  0.00  0.00    +0.096 C 
ATOM     19  C   LIG    1       26.178 -19.076   4.768  0.00  0.00    +0.096 C 
ATOM     20  N   LIG    1       25.422 -19.548   3.604  0.00  0.00    -0.315 NA
ATOM     21  H   LIG    1       25.583 -18.897   2.838  0.00  0.00    +0.122 HD
ATOM     22  C   LIG    1       23.990 -19.613   3.899  0.00  0.00    +0.082 C 
ATOM     23  C   LIG    1       23.514 -21.015   4.300  0.00  0.00    +0.030 C 
ATOM     24  C   LIG    1       23.677 -21.439   5.775  0.00  0.00    +0.086 C 
ENDBRANCH   7   8
ENDBRANCH   2   7
BRANCH   5  25
ATOM     25  C   LIG    1       24.275 -28.491   6.868  0.00  0.00    +0.119 C 
BRANCH  25  26
ATOM     26  N   LIG    1       25.437 -29.344   7.183  0.00  0.00    -0.297 NA
ATOM     27  C   LIG    1       26.137 -28.939   8.430  0.00  0.00    +0.100 C 
ATOM     28  C   LIG    1       25.342 -28.998   9.766  0.00  0.00    +0.096 C 
ATOM     29  N   LIG    1       25.742 -30.149  10.588  0.00  0.00    -0.315 NA
ATOM     30  H   LIG    1       25.764 -30.987  10.011  0.00  0.00    +0.122 HD
ATOM     31  C   LIG    1       24.886 -30.335  11.765  0.00  0.00    +0.082 C 
ATOM     32  C   LIG    1       24.406 -31.792  11.880  0.00  0.00    +0.030 C 
ATOM     33  C   LIG    1       23.351 -32.118  10.818  0.00  0.00    +0.082 C 
ATOM     34  N   LIG    1       23.202 -33.563  10.600  0.00  0.00    -0.315 NA
ATOM     35  H   LIG    1       24.088 -34.041  10.762  0.00  0.00    +0.122 HD
ATOM     36  C   LIG    1       22.758 -33.825   9.217  0.00  0.00    +0.096 C 
ATOM     37  C   LIG    1       23.923 -33.777   8.196  0.00  0.00    +0.096 C 
ATOM     38  N   LIG    1       23.457 -33.366   6.864  0.00  0.00    -0.315 NA
ATOM     39  H   LIG    1       22.966 -34.155   6.441  0.00  0.00    +0.122 HD
ATOM     40  C   LIG    1       24.560 -32.955   5.987  0.00  0.00    +0.082 C 
ATOM     41  C   LIG    1       24.734 -31.424   5.898  0.00  0.00    +0.030 C 
ATOM     42  C   LIG    1       25.057 -30.769   7.247  0.00  0.00    +0.086 C 
ENDBRANCH  25  26
ENDBRANCH   5  25
TORSDOF 4
ENDMDL
MODEL 7
REMARK VINA RESULT:      -5.4      6.114      9.723
REMARK  Name = *****
REMARK                            x       y       z     vdW  Elec       q    Type
REMARK                         _______ _______ _______ _____ _____    ______ ____
ROOT
ATOM      1  C   LIG    1       22.301 -30.112  10.637  0.00  0.00    +0.005 A 
ATOM      2  C   LIG    1       21.161 -30.789  11.097  0.00  0.00    -0.033 A 
ATOM      3  C   LIG    1       20.907 -32.068  10.586  0.00  0.00    +0.005 A 
ATOM      4  C   LIG    1       21.763 -32.653   9.647  0.00  0.00    +0.005 A 
ATOM      5  C   LIG    1       22.898 -31.972   9.190  0.00  0.00    -0.033 A 
ATOM      6  C   LIG    1       23.155 -30.693   9.691  0.00  0.00    +0.005 A 
ENDROOT
BRANCH   2   7
ATOM      7  C   LIG    1       20.258 -30.173  12.154  0.00  0.00    +0.119 C 
BRANCH   7   8
ATOM      8  N   LIG    1       20.804 -30.014  13.514  0.00  0.00    -0.297 NA
ATOM      9  C   LIG    1       21.647 -28.807  13.692  0.00  0.00    +0.100 C 
ATOM     10  C   LIG    1       20.953 -27.440  13.436  0.00  0.00    +0.096 C 
ATOM     11  N   LIG    1       19.779 -27.241  14.290  0.00  0.00    -0.315 NA
ATOM     12  H   LIG    1       19.309 -28.145  14.433  0.00  0.00    +0.122 HD
ATOM     13  C   LIG    1       18.823 -26.296  13.714  0.00  0.00    +0.082 C 
ATOM     14  C   LIG    1       17.448 -26.335  14.406  0.00  0.00    +0.030 C 
ATOM     15  C   LIG    1       16.724 -27.683  14.267  0.00  0.00    +0.082 C 
ATOM     16  N   LIG    1       17.352 -28.659  15.145  0.00  0.00    -0.315 NA
ATOM     17  H   LIG    1       17.018 -28.561  16.100  0.00  0.00    +0.122 HD
ATOM     18  C   LIG    1       17.258 -30.037  14.681  0.00  0.00    +0.096 C 
ATOM     19  C   LIG    1       18.245 -30.888  15.500  0.00  0.00    +0.096 C 
ATOM     20  N   LIG    1       18.414 -32.219  14.909  0.00  0.00    -0.315 NA
ATOM     21  H   LIG    1       17.695 -32.829  15.295  0.00  0.00    +0.122 HD
ATOM     22  C   LIG    1       19.736 -32.766  15.214  0.00  0.00    +0.082 C 
ATOM     23  C   LIG    1       20.758 -32.554  14.090  0.00  0.00    +0.030 C 
ATOM     24  C   LIG    1       21.502 -31.202  14.035  0.00  0.00    +0.086 C 
ENDBRANCH   7   8
ENDBRANCH   2   7
BRANCH   5  25
ATOM     25  C   LIG    1       23.842 -32.624   8.194  0.00  0.00    +0.119 C 
BRANCH  25  26
ATOM     26  N   LIG    1       25.222 -32.810   8.682  0.00  0.00    -0.297 NA
ATOM     27  C   LIG    1       26.199 -31.904   8.025  0.00  0.00    +0.100 C 
ATOM     28  C   LIG    1       26.014 -30.370   8.210  0.00  0.00    +0.096 C 
ATOM     29  N   LIG    1       26.990 -29.813   9.156  0.00  0.00    -0.315 NA
ATOM     30  H   LIG    1       27.021 -30.392   9.992  0.00  0.00    +0.122 HD
ATOM     31  C   LIG    1       26.724 -28.409   9.489  0.00  0.00    +0.082 C 
ATOM     32  C   LIG    1       26.740 -28.185  11.011  0.00  0.00    +0.030 C 
ATOM     33  C   LIG    1       25.495 -28.783  11.676  0.00  0.00    +0.082 C 
ATOM     34  N   LIG    1       25.675 -28.992  13.119  0.00  0.00    -0.315 NA
ATOM     35  H   LIG    1       26.651 -29.198  13.329  0.00  0.00    +0.122 HD
ATOM     36  C   LIG    1       24.833 -30.114  13.578  0.00  0.00    +0.096 C 
ATOM     37  C   LIG    1       25.469 -31.497  13.284  0.00  0.00    +0.096 C 
ATOM     38  N   LIG    1       24.444 -32.534  13.099  0.00  0.00    -0.315 NA
ATOM     39  H   LIG    1       24.065 -32.773  14.017  0.00  0.00    +0.122 HD
ATOM     40  C   LIG    1       24.979 -33.743  12.465  0.00  0.00    +0.082 C 
ATOM     41  C   LIG    1       24.683 -33.824  10.952  0.00  0.00    +0.030 C 
ATOM     42  C   LIG    1       25.297 -32.670  10.150  0.00  0.00    +0.086 C 
ENDBRANCH  25  26
ENDBRANCH   5  25
TORSDOF 4
ENDMDL
MODEL 8
REMARK VINA RESULT:      -5.4      1.317     11.142
REMARK  Name = *****
REMARK                            x       y       z     vdW  Elec       q    Type
REMARK                         _______ _______ _______ _____ _____    ______ ____
ROOT
ATOM      1  C   LIG    1       25.921 -25.117   6.960  0.00  0.00    +0.005 A 
ATOM      2  C   LIG    1       25.248 -24.448   5.926  0.00  0.00    -0.033 A 
ATOM      3  C   LIG    1       24.291 -25.163   5.196  0.00  0.00    +0.005 A 
ATOM      4  C   LIG    1       24.014 -26.503   5.488  0.00  0.00    +0.005 A 
ATOM      5  C   LIG    1       24.690 -27.166   6.519  0.00  0.00    -0.033 A 
ATOM      6  C   LIG    1       25.651 -26.461   7.249  0.00  0.00    +0.005 A 
ENDROOT
BRANCH   2   7
ATOM      7  C   LIG    1       25.514 -22.978   5.642  0.00  0.00    +0.119 C 
BRANCH   7   8
ATOM      8  N   LIG    1       24.934 -21.985   6.565  0.00  0.00    -0.297 NA
ATOM      9  C   LIG    1       25.501 -22.028   7.935  0.00  0.00    +0.100 C 
ATOM     10  C   LIG    1       27.027 -21.764   8.057  0.00  0.00    +0.096 C 
ATOM     11  N   LIG    1       27.415 -20.465   7.502  0.00  0.00    -0.315 NA
ATOM     12  H   LIG    1       26.825 -20.257   6.685  0.00  0.00    +0.122 HD
ATOM     13  C   LIG    1       28.818 -20.429   7.094  0.00  0.00    +0.082 C 
ATOM     14  C   LIG    1       29.155 -19.218   6.202  0.00  0.00    +0.030 C 
ATOM     15  C   LIG    1       28.407 -19.213   4.861  0.00  0.00    +0.082 C 
ATOM     16  N   LIG    1       27.018 -18.841   5.086  0.00  0.00    -0.315 NA
ATOM     17  H   LIG    1       26.916 -17.832   5.164  0.00  0.00    +0.122 HD
ATOM     18  C   LIG    1       26.078 -19.403   4.124  0.00  0.00    +0.096 C 
ATOM     19  C   LIG    1       24.655 -19.223   4.681  0.00  0.00    +0.096 C 
ATOM     20  N   LIG    1       23.683 -20.006   3.913  0.00  0.00    -0.315 NA
ATOM     21  H   LIG    1       23.361 -19.434   3.133  0.00  0.00    +0.122 HD
ATOM     22  C   LIG    1       22.540 -20.388   4.743  0.00  0.00    +0.082 C 
ATOM     23  C   LIG    1       22.653 -21.804   5.322  0.00  0.00    +0.030 C 
ATOM     24  C   LIG    1       23.462 -21.990   6.623  0.00  0.00    +0.086 C 
ENDBRANCH   7   8
ENDBRANCH   2   7
BRANCH   5  25
ATOM     25  C   LIG    1       24.364 -28.612   6.852  0.00  0.00    +0.119 C 
BRANCH  25  26
ATOM     26  N   LIG    1       25.530 -29.439   7.218  0.00  0.00    -0.297 NA
ATOM     27  C   LIG    1       26.222 -28.961   8.444  0.00  0.00    +0.100 C 
ATOM     28  C   LIG    1       25.422 -28.953   9.778  0.00  0.00    +0.096 C 
ATOM     29  N   LIG    1       25.825 -30.054  10.663  0.00  0.00    -0.315 NA
ATOM     30  H   LIG    1       25.855 -30.922  10.133  0.00  0.00    +0.122 HD
ATOM     31  C   LIG    1       24.965 -30.182  11.845  0.00  0.00    +0.082 C 
ATOM     32  C   LIG    1       24.494 -31.633  12.038  0.00  0.00    +0.030 C 
ATOM     33  C   LIG    1       23.446 -32.024  10.990  0.00  0.00    +0.082 C 
ATOM     34  N   LIG    1       23.307 -33.479  10.851  0.00  0.00    -0.315 NA
ATOM     35  H   LIG    1       24.196 -33.942  11.043  0.00  0.00    +0.122 HD
ATOM     36  C   LIG    1       22.871 -33.819   9.483  0.00  0.00    +0.096 C 
ATOM     37  C   LIG    1       24.040 -33.819   8.466  0.00  0.00    +0.096 C 
ATOM     38  N   LIG    1       23.578 -33.485   7.111  0.00  0.00    -0.315 NA
ATOM     39  H   LIG    1       23.093 -34.300   6.730  0.00  0.00    +0.122 HD
ATOM     40  C   LIG    1       24.682 -33.115   6.218  0.00  0.00    +0.082 C 
ATOM     41  C   LIG    1       24.847 -31.591   6.046  0.00  0.00    +0.030 C 
ATOM     42  C   LIG    1       25.159 -30.861   7.358  0.00  0.00    +0.086 C 
ENDBRANCH  25  26
ENDBRANCH   5  25
TORSDOF 4
ENDMDL
MODEL 9
REMARK VINA RESULT:      -4.5      4.933      8.459
REMARK  Name = *****
REMARK                            x       y       z     vdW  Elec       q    Type
REMARK                         _______ _______ _______ _____ _____    ______ ____
ROOT
ATOM      1  C   LIG    1       23.307 -31.062   9.127  0.00  0.00    +0.005 A 
ATOM      2  C   LIG    1       22.681 -32.049   9.905  0.00  0.00    -0.033 A 
ATOM      3  C   LIG    1       22.473 -33.306   9.325  0.00  0.00    +0.005 A 
ATOM      4  C   LIG    1       22.875 -33.572   8.012  0.00  0.00    +0.005 A 
ATOM      5  C   LIG    1       23.497 -32.582   7.240  0.00  0.00    -0.033 A 
ATOM      6  C   LIG    1       23.704 -31.323   7.809  0.00  0.00    +0.005 A 
ENDROOT
BRANCH   2   7
ATOM      7  C   LIG    1       22.289 -31.775  11.348  0.00  0.00    +0.119 C 
BRANCH   7   8
ATOM      8  N   LIG    1       21.390 -30.636  11.610  0.00  0.00    -0.297 NA
ATOM      9  C   LIG    1       20.262 -30.522  10.655  0.00  0.00    +0.100 C 
ATOM     10  C   LIG    1       19.284 -31.727  10.599  0.00  0.00    +0.096 C 
ATOM     11  N   LIG    1       18.680 -32.019  11.901  0.00  0.00    -0.315 NA
ATOM     12  H   LIG    1       19.368 -31.828  12.642  0.00  0.00    +0.122 HD
ATOM     13  C   LIG    1       18.237 -33.408  12.013  0.00  0.00    +0.082 C 
ATOM     14  C   LIG    1       17.927 -33.825  13.463  0.00  0.00    +0.030 C 
ATOM     15  C   LIG    1       19.148 -33.778  14.394  0.00  0.00    +0.082 C 
ATOM     16  N   LIG    1       19.459 -32.392  14.709  0.00  0.00    -0.315 NA
ATOM     17  H   LIG    1       18.860 -32.041  15.453  0.00  0.00    +0.122 HD
ATOM     18  C   LIG    1       20.867 -32.137  14.988  0.00  0.00    +0.096 C 
ATOM     19  C   LIG    1       21.097 -30.615  14.953  0.00  0.00    +0.096 C 
ATOM     20  N   LIG    1       22.527 -30.296  14.944  0.00  0.00    -0.315 NA
ATOM     21  H   LIG    1       22.843 -30.238  15.911  0.00  0.00    +0.122 HD
ATOM     22  C   LIG    1       22.777 -29.021  14.270  0.00  0.00    +0.082 C 
ATOM     23  C   LIG    1       23.191 -29.179  12.801  0.00  0.00    +0.030 C 
ATOM     24  C   LIG    1       22.074 -29.338  11.749  0.00  0.00    +0.086 C 
ENDBRANCH   7   8
ENDBRANCH   2   7
BRANCH   5  25
ATOM     25  C   LIG    1       23.960 -32.884   5.825  0.00  0.00    +0.119 C 
BRANCH  25  26
ATOM     26  N   LIG    1       25.365 -32.527   5.546  0.00  0.00    -0.297 NA
ATOM     27  C   LIG    1       25.500 -31.378   4.614  0.00  0.00    +0.100 C 
ATOM     28  C   LIG    1       24.918 -30.005   5.056  0.00  0.00    +0.096 C 
ATOM     29  N   LIG    1       25.975 -29.070   5.463  0.00  0.00    -0.315 NA
ATOM     30  H   LIG    1       26.618 -29.540   6.097  0.00  0.00    +0.122 HD
ATOM     31  C   LIG    1       25.448 -27.836   6.057  0.00  0.00    +0.082 C 
ATOM     32  C   LIG    1       26.146 -27.517   7.390  0.00  0.00    +0.030 C 
ATOM     33  C   LIG    1       25.696 -28.474   8.499  0.00  0.00    +0.082 C 
ATOM     34  N   LIG    1       26.633 -28.504   9.629  0.00  0.00    -0.315 NA
ATOM     35  H   LIG    1       27.585 -28.331   9.307  0.00  0.00    +0.122 HD
ATOM     36  C   LIG    1       26.581 -29.819  10.297  0.00  0.00    +0.096 C 
ATOM     37  C   LIG    1       27.414 -30.898   9.560  0.00  0.00    +0.096 C 
ATOM     38  N   LIG    1       26.865 -32.244   9.773  0.00  0.00    -0.315 NA
ATOM     39  H   LIG    1       27.106 -32.540  10.720  0.00  0.00    +0.122 HD
ATOM     40  C   LIG    1       27.388 -33.221   8.811  0.00  0.00    +0.082 C 
ATOM     41  C   LIG    1       26.424 -33.508   7.642  0.00  0.00    +0.030 C 
ATOM     42  C   LIG    1       26.112 -32.269   6.793  0.00  0.00    +0.086 C 
ENDBRANCH  25  26
ENDBRANCH   5  25
TORSDOF 4
ENDMDL
