MODEL 1
REMARK VINA RESULT:      -0.5      0.000      0.000
REMARK  Name = *****
REMARK                            x       y       z     vdW  Elec       q    Type
REMARK                         _______ _______ _______ _____ _____    ______ ____
ROOT
ATOM      1  C   UNK A  0       25.389 -18.859   3.692  0.00  0.00    +0.268 C 
ATOM      2  N   UNK A  2       25.251 -17.508   3.927  0.00  0.00    -0.296 N 
ATOM      3  H   ACE A  1       24.578 -17.248   4.648  0.00  0.00    +0.150 HD
ATOM      4  O   UNK A  0       26.067 -19.319   2.784  0.00  0.00    -0.268 OA
ENDROOT
BRANCH   2   5
ATOM      5  C   UNK A  2       25.858 -16.478   3.048  0.00  0.00    +0.191 C 
ATOM      6  C   UNK A  2       25.242 -15.042   3.097  0.00  0.00    +0.169 C 
ATOM      7  N   UNK A  2       26.408 -14.650   3.864  0.00  0.00    -0.249 N 
ATOM      8  C   UNK A  2       26.544 -13.441   4.462  0.00  0.00    +0.119 C 
ATOM      9  C   UNK A  2       25.457 -12.664   4.647  0.00  0.00    +0.014 C 
ATOM     10  C   UNK A  2       24.032 -13.017   4.330  0.00  0.00    +0.100 C 
ATOM     11  S   UNK A  2       23.762 -14.807   4.120  0.00  0.00    -0.131 S 
ATOM     12  C   UNK A  2       27.127 -15.762   3.648  0.00  0.00    +0.244 C 
ATOM     13  O   UNK A  2       28.262 -16.013   3.991  0.00  0.00    -0.273 OA
BRANCH   8  14
ATOM     14  C   UNK A  2       27.847 -12.915   4.986  0.00  0.00    +0.351 C 
ATOM     15  O   UNK A  2       28.688 -12.412   4.252  0.00  0.00    -0.244 OA
BRANCH  14  16
ATOM     16  O   UNK A  2       28.036 -12.984   6.316  0.00  0.00    -0.476 OA
ATOM     17  H   UNK A  2       28.363 -13.837   6.683  0.00  0.00    +0.295 HD
ENDBRANCH  14  16
ENDBRANCH   8  14
ENDBRANCH   2   5
BRANCH   1  19
ATOM     18  N   UNK A  0       25.230 -20.463   5.616  0.00  0.00    -0.078 NA
ATOM     19  C   UNK A  0       24.645 -19.798   4.656  0.00  0.00    +0.190 C 
BRANCH  19  20
ATOM     20  C   UNK A  0       23.195 -19.983   4.534  0.00  0.00    +0.107 A 
ATOM     21  N   UNK A  0       22.385 -18.971   4.009  0.00  0.00    -0.223 NA
ATOM     22  C   UNK A  0       21.137 -19.356   3.949  0.00  0.00    +0.156 A 
ATOM     23  S   UNK A  0       20.825 -20.926   4.559  0.00  0.00    -0.060 S 
ATOM     24  C   UNK A  0       22.496 -21.121   4.896  0.00  0.00    +0.078 A 
BRANCH  22  25
ATOM     25  N   UNK A  0       20.162 -18.596   3.426  0.00  0.00    -0.338 N 
ATOM     26  H   UNK A  0       20.480 -17.771   2.928  0.00  0.00    +0.144 HD
ATOM     27  H   UNK A  0       19.379 -19.065   2.991  0.00  0.00    +0.144 HD
ENDBRANCH  22  25
ENDBRANCH  19  20
BRANCH  18  29
ATOM     28  C   UNK A  0       27.003 -20.529   7.062  0.00  0.00    +0.313 C 
ATOM     29  O   UNK A  0       26.601 -20.208   5.735  0.00  0.00    -0.396 OA
ENDBRANCH  18  29
ENDBRANCH   1  19
TORSDOF 7
ENDMDL
MODEL 2
REMARK VINA RESULT:      -0.2      2.763      6.811
REMARK  Name = *****
REMARK                            x       y       z     vdW  Elec       q    Type
REMARK                         _______ _______ _______ _____ _____    ______ ____
ROOT
ATOM      1  C   UNK A  0       25.575 -16.592   3.518  0.00  0.00    +0.268 C 
ATOM      2  N   UNK A  2       26.357 -17.694   3.244  0.00  0.00    -0.296 N 
ATOM      3  H   ACE A  1       27.327 -17.500   2.995  0.00  0.00    +0.150 HD
ATOM      4  O   UNK A  0       24.370 -16.656   3.717  0.00  0.00    -0.268 OA
ENDROOT
BRANCH   2   5
ATOM      5  C   UNK A  2       25.792 -19.058   3.092  0.00  0.00    +0.191 C 
ATOM      6  C   UNK A  2       26.211 -20.129   4.151  0.00  0.00    +0.169 C 
ATOM      7  N   UNK A  2       24.891 -19.966   4.726  0.00  0.00    -0.249 N 
ATOM      8  C   UNK A  2       24.507 -20.527   5.900  0.00  0.00    +0.119 C 
ATOM      9  C   UNK A  2       25.443 -20.993   6.752  0.00  0.00    +0.014 C 
ATOM     10  C   UNK A  2       26.934 -20.896   6.595  0.00  0.00    +0.100 C 
ATOM     11  S   UNK A  2       27.451 -19.639   5.382  0.00  0.00    -0.131 S 
ATOM     12  C   UNK A  2       24.360 -19.253   3.721  0.00  0.00    +0.244 C 
ATOM     13  O   UNK A  2       23.222 -18.861   3.584  0.00  0.00    -0.273 OA
BRANCH   8  14
ATOM     14  C   UNK A  2       23.079 -20.624   6.347  0.00  0.00    +0.351 C 
ATOM     15  O   UNK A  2       22.681 -21.536   7.060  0.00  0.00    -0.244 OA
BRANCH  14  16
ATOM     16  O   UNK A  2       22.256 -19.634   5.958  0.00  0.00    -0.476 OA
ATOM     17  H   UNK A  2       21.744 -19.770   5.128  0.00  0.00    +0.295 HD
ENDBRANCH  14  16
ENDBRANCH   8  14
ENDBRANCH   2   5
BRANCH   1  19
ATOM     18  N   UNK A  0       27.574 -15.111   3.850  0.00  0.00    -0.078 NA
ATOM     19  C   UNK A  0       26.302 -15.240   3.580  0.00  0.00    +0.190 C 
BRANCH  19  20
ATOM     20  C   UNK A  0       25.569 -13.995   3.321  0.00  0.00    +0.107 A 
ATOM     21  N   UNK A  0       24.825 -13.379   4.332  0.00  0.00    -0.223 NA
ATOM     22  C   UNK A  0       24.289 -12.265   3.905  0.00  0.00    +0.156 A 
ATOM     23  S   UNK A  0       24.584 -11.896   2.258  0.00  0.00    -0.060 S 
ATOM     24  C   UNK A  0       25.534 -13.317   2.115  0.00  0.00    +0.078 A 
BRANCH  22  25
ATOM     25  N   UNK A  0       23.576 -11.447   4.695  0.00  0.00    -0.338 N 
ATOM     26  H   UNK A  0       23.918 -11.362   5.646  0.00  0.00    +0.144 HD
ATOM     27  H   UNK A  0       23.241 -10.580   4.296  0.00  0.00    +0.144 HD
ENDBRANCH  22  25
ENDBRANCH  19  20
BRANCH  18  29
ATOM     28  C   UNK A  0       28.701 -16.391   5.375  0.00  0.00    +0.313 C 
ATOM     29  O   UNK A  0       28.245 -16.326   4.028  0.00  0.00    -0.396 OA
ENDBRANCH  18  29
ENDBRANCH   1  19
TORSDOF 7
ENDMDL
MODEL 3
REMARK VINA RESULT:      -0.2      2.104      3.526
REMARK  Name = *****
REMARK                            x       y       z     vdW  Elec       q    Type
REMARK                         _______ _______ _______ _____ _____    ______ ____
ROOT
ATOM      1  C   UNK A  0       24.381 -18.798   3.748  0.00  0.00    +0.268 C 
ATOM      2  N   UNK A  2       25.063 -17.634   4.030  0.00  0.00    -0.296 N 
ATOM      3  H   ACE A  1       25.330 -17.500   5.005  0.00  0.00    +0.150 HD
ATOM      4  O   UNK A  0       23.895 -19.046   2.653  0.00  0.00    -0.268 OA
ENDROOT
BRANCH   2   5
ATOM      5  C   UNK A  2       25.207 -16.534   3.044  0.00  0.00    +0.191 C 
ATOM      6  C   UNK A  2       24.542 -15.164   3.397  0.00  0.00    +0.169 C 
ATOM      7  N   UNK A  2       25.876 -14.678   3.691  0.00  0.00    -0.249 N 
ATOM      8  C   UNK A  2       26.130 -13.474   4.258  0.00  0.00    +0.119 C 
ATOM      9  C   UNK A  2       25.135 -12.807   4.879  0.00  0.00    +0.014 C 
ATOM     10  C   UNK A  2       23.730 -13.287   5.101  0.00  0.00    +0.100 C 
ATOM     11  S   UNK A  2       23.545 -15.090   4.912  0.00  0.00    -0.131 S 
ATOM     12  C   UNK A  2       26.547 -15.713   3.161  0.00  0.00    +0.244 C 
ATOM     13  O   UNK A  2       27.743 -15.862   3.040  0.00  0.00    -0.273 OA
BRANCH   8  14
ATOM     14  C   UNK A  2       27.488 -12.837   4.282  0.00  0.00    +0.351 C 
ATOM     15  O   UNK A  2       28.043 -12.528   5.328  0.00  0.00    -0.244 OA
BRANCH  14  16
ATOM     16  O   UNK A  2       28.091 -12.656   3.094  0.00  0.00    -0.476 OA
ATOM     17  H   UNK A  2       27.787 -13.215   2.342  0.00  0.00    +0.295 HD
ENDBRANCH  14  16
ENDBRANCH   8  14
ENDBRANCH   2   5
BRANCH   1  19
ATOM     18  N   UNK A  0       23.128 -20.288   5.332  0.00  0.00    -0.078 NA
ATOM     19  C   UNK A  0       24.264 -19.814   4.896  0.00  0.00    +0.190 C 
BRANCH  19  20
ATOM     20  C   UNK A  0       25.470 -20.312   5.567  0.00  0.00    +0.107 A 
ATOM     21  N   UNK A  0       26.726 -19.769   5.278  0.00  0.00    -0.223 NA
ATOM     22  C   UNK A  0       27.655 -20.323   6.012  0.00  0.00    +0.156 A 
ATOM     23  S   UNK A  0       27.115 -21.566   7.061  0.00  0.00    -0.060 S 
ATOM     24  C   UNK A  0       25.507 -21.317   6.517  0.00  0.00    +0.078 A 
BRANCH  22  25
ATOM     25  N   UNK A  0       28.941 -19.940   5.976  0.00  0.00    -0.338 N 
ATOM     26  H   UNK A  0       29.090 -18.943   5.866  0.00  0.00    +0.144 HD
ATOM     27  H   UNK A  0       29.585 -20.386   6.617  0.00  0.00    +0.144 HD
ENDBRANCH  22  25
ENDBRANCH  19  20
BRANCH  18  29
ATOM     28  C   UNK A  0       21.167 -20.949   4.355  0.00  0.00    +0.313 C 
ATOM     29  O   UNK A  0       22.010 -19.834   4.625  0.00  0.00    -0.396 OA
ENDBRANCH  18  29
ENDBRANCH   1  19
TORSDOF 7
ENDMDL
MODEL 4
REMARK VINA RESULT:      -0.1      1.693      1.888
REMARK  Name = *****
REMARK                            x       y       z     vdW  Elec       q    Type
REMARK                         _______ _______ _______ _____ _____    ______ ____
ROOT
ATOM      1  C   UNK A  0       25.973 -19.030   3.936  0.00  0.00    +0.268 C 
ATOM      2  N   UNK A  2       26.556 -17.807   4.193  0.00  0.00    -0.296 N 
ATOM      3  H   ACE A  1       26.832 -17.640   5.161  0.00  0.00    +0.150 HD
ATOM      4  O   UNK A  0       25.488 -19.330   2.855  0.00  0.00    -0.268 OA
ENDROOT
BRANCH   2   5
ATOM      5  C   UNK A  2       26.583 -16.709   3.196  0.00  0.00    +0.191 C 
ATOM      6  C   UNK A  2       25.302 -15.820   3.075  0.00  0.00    +0.169 C 
ATOM      7  N   UNK A  2       26.039 -14.794   3.786  0.00  0.00    -0.249 N 
ATOM      8  C   UNK A  2       25.482 -13.642   4.235  0.00  0.00    +0.119 C 
ATOM      9  C   UNK A  2       24.141 -13.545   4.330  0.00  0.00    +0.014 C 
ATOM     10  C   UNK A  2       23.136 -14.628   4.062  0.00  0.00    +0.100 C 
ATOM     11  S   UNK A  2       23.860 -16.300   4.068  0.00  0.00    -0.131 S 
ATOM     12  C   UNK A  2       27.247 -15.373   3.702  0.00  0.00    +0.244 C 
ATOM     13  O   UNK A  2       28.321 -14.948   4.069  0.00  0.00    -0.273 OA
BRANCH   8  14
ATOM     14  C   UNK A  2       26.280 -12.456   4.688  0.00  0.00    +0.351 C 
ATOM     15  O   UNK A  2       27.395 -12.214   4.244  0.00  0.00    -0.244 OA
BRANCH  14  16
ATOM     16  O   UNK A  2       25.693 -11.639   5.581  0.00  0.00    -0.476 OA
ATOM     17  H   UNK A  2       25.134 -10.910   5.229  0.00  0.00    +0.295 HD
ENDBRANCH  14  16
ENDBRANCH   8  14
ENDBRANCH   2   5
BRANCH   1  19
ATOM     18  N   UNK A  0       27.054 -20.467   5.688  0.00  0.00    -0.078 NA
ATOM     19  C   UNK A  0       25.971 -20.040   5.095  0.00  0.00    +0.190 C 
BRANCH  19  20
ATOM     20  C   UNK A  0       24.704 -20.577   5.603  0.00  0.00    +0.107 A 
ATOM     21  N   UNK A  0       23.600 -20.728   4.758  0.00  0.00    -0.223 NA
ATOM     22  C   UNK A  0       22.591 -21.261   5.397  0.00  0.00    +0.156 A 
ATOM     23  S   UNK A  0       22.861 -21.572   7.061  0.00  0.00    -0.060 S 
ATOM     24  C   UNK A  0       24.465 -20.982   6.905  0.00  0.00    +0.078 A 
BRANCH  22  25
ATOM     25  N   UNK A  0       21.429 -21.571   4.801  0.00  0.00    -0.338 N 
ATOM     26  H   UNK A  0       21.420 -22.460   4.313  0.00  0.00    +0.144 HD
ATOM     27  H   UNK A  0       20.573 -21.363   5.299  0.00  0.00    +0.144 HD
ENDBRANCH  22  25
ENDBRANCH  19  20
BRANCH  18  29
ATOM     28  C   UNK A  0       29.158 -19.799   6.292  0.00  0.00    +0.313 C 
ATOM     29  O   UNK A  0       28.233 -19.882   5.213  0.00  0.00    -0.396 OA
ENDBRANCH  18  29
ENDBRANCH   1  19
TORSDOF 7
ENDMDL
MODEL 5
REMARK VINA RESULT:       0.4      2.750      6.953
REMARK  Name = *****
REMARK                            x       y       z     vdW  Elec       q    Type
REMARK                         _______ _______ _______ _____ _____    ______ ____
ROOT
ATOM      1  C   UNK A  0       26.510 -14.964   3.185  0.00  0.00    +0.268 C 
ATOM      2  N   UNK A  2       25.824 -16.044   3.697  0.00  0.00    -0.296 N 
ATOM      3  H   ACE A  1       25.434 -15.920   4.632  0.00  0.00    +0.150 HD
ATOM      4  O   UNK A  0       27.129 -14.999   2.130  0.00  0.00    -0.268 OA
ENDROOT
BRANCH   2   5
ATOM      5  C   UNK A  2       25.834 -17.379   3.049  0.00  0.00    +0.191 C 
ATOM      6  C   UNK A  2       26.863 -18.427   3.584  0.00  0.00    +0.169 C 
ATOM      7  N   UNK A  2       25.743 -19.079   4.235  0.00  0.00    -0.249 N 
ATOM      8  C   UNK A  2       25.876 -20.105   5.112  0.00  0.00    +0.119 C 
ATOM      9  C   UNK A  2       27.079 -20.351   5.671  0.00  0.00    +0.014 C 
ATOM     10  C   UNK A  2       28.335 -19.546   5.499  0.00  0.00    +0.100 C 
ATOM     11  S   UNK A  2       28.034 -17.869   4.854  0.00  0.00    -0.131 S 
ATOM     12  C   UNK A  2       24.771 -18.395   3.613  0.00  0.00    +0.244 C 
ATOM     13  O   UNK A  2       23.570 -18.539   3.691  0.00  0.00    -0.273 OA
BRANCH   8  14
ATOM     14  C   UNK A  2       24.738 -20.979   5.547  0.00  0.00    +0.351 C 
ATOM     15  O   UNK A  2       24.557 -21.277   6.720  0.00  0.00    -0.244 OA
BRANCH  14  16
ATOM     16  O   UNK A  2       23.893 -21.392   4.585  0.00  0.00    -0.476 OA
ATOM     17  H   UNK A  2       23.414 -20.700   4.074  0.00  0.00    +0.295 HD
ENDBRANCH  14  16
ENDBRANCH   8  14
ENDBRANCH   2   5
BRANCH   1  19
ATOM     18  N   UNK A  0       27.464 -13.193   4.686  0.00  0.00    -0.078 NA
ATOM     19  C   UNK A  0       26.453 -13.667   4.008  0.00  0.00    +0.190 C 
BRANCH  19  20
ATOM     20  C   UNK A  0       25.216 -12.880   4.060  0.00  0.00    +0.107 A 
ATOM     21  N   UNK A  0       24.572 -12.636   5.277  0.00  0.00    -0.223 NA
ATOM     22  C   UNK A  0       23.518 -11.883   5.106  0.00  0.00    +0.156 A 
ATOM     23  S   UNK A  0       23.182 -11.452   3.481  0.00  0.00    -0.060 S 
ATOM     24  C   UNK A  0       24.578 -12.310   2.972  0.00  0.00    +0.078 A 
BRANCH  22  25
ATOM     25  N   UNK A  0       22.756 -11.448   6.122  0.00  0.00    -0.338 N 
ATOM     26  H   UNK A  0       23.267 -11.168   6.953  0.00  0.00    +0.144 HD
ATOM     27  H   UNK A  0       21.968 -10.854   5.901  0.00  0.00    +0.144 HD
ENDBRANCH  22  25
ENDBRANCH  19  20
BRANCH  18  29
ATOM     28  C   UNK A  0       29.472 -13.307   3.595  0.00  0.00    +0.313 C 
ATOM     29  O   UNK A  0       28.638 -13.943   4.558  0.00  0.00    -0.396 OA
ENDBRANCH  18  29
ENDBRANCH   1  19
TORSDOF 7
ENDMDL
MODEL 6
REMARK VINA RESULT:       0.9      3.334      7.248
REMARK  Name = *****
REMARK                            x       y       z     vdW  Elec       q    Type
REMARK                         _______ _______ _______ _____ _____    ______ ____
ROOT
ATOM      1  C   UNK A  0       24.764 -16.291   3.814  0.00  0.00    +0.268 C 
ATOM      2  N   UNK A  2       25.881 -16.940   3.333  0.00  0.00    -0.296 N 
ATOM      3  H   ACE A  1       26.670 -16.344   3.083  0.00  0.00    +0.150 HD
ATOM      4  O   UNK A  0       23.705 -16.855   4.046  0.00  0.00    -0.268 OA
ENDROOT
BRANCH   2   5
ATOM      5  C   UNK A  2       25.876 -18.381   2.979  0.00  0.00    +0.191 C 
ATOM      6  C   UNK A  2       26.696 -19.347   3.896  0.00  0.00    +0.169 C 
ATOM      7  N   UNK A  2       25.426 -19.781   4.444  0.00  0.00    -0.249 N 
ATOM      8  C   UNK A  2       25.312 -20.601   5.518  0.00  0.00    +0.119 C 
ATOM      9  C   UNK A  2       26.373 -20.788   6.329  0.00  0.00    +0.014 C 
ATOM     10  C   UNK A  2       27.710 -20.110   6.236  0.00  0.00    +0.100 C 
ATOM     11  S   UNK A  2       27.681 -18.596   5.223  0.00  0.00    -0.131 S 
ATOM     12  C   UNK A  2       24.642 -19.193   3.528  0.00  0.00    +0.244 C 
ATOM     13  O   UNK A  2       23.437 -19.249   3.408  0.00  0.00    -0.273 OA
BRANCH   8  14
ATOM     14  C   UNK A  2       24.039 -21.297   5.899  0.00  0.00    +0.351 C 
ATOM     15  O   UNK A  2       23.770 -21.572   7.062  0.00  0.00    -0.244 OA
BRANCH  14  16
ATOM     16  O   UNK A  2       23.179 -21.572   4.902  0.00  0.00    -0.476 OA
ATOM     17  H   UNK A  2       22.383 -20.998   4.819  0.00  0.00    +0.295 HD
ENDBRANCH  14  16
ENDBRANCH   8  14
ENDBRANCH   2   5
BRANCH   1  19
ATOM     18  N   UNK A  0       23.916 -13.999   4.386  0.00  0.00    -0.078 NA
ATOM     19  C   UNK A  0       24.913 -14.782   4.072  0.00  0.00    +0.190 C 
BRANCH  19  20
ATOM     20  C   UNK A  0       26.230 -14.144   3.978  0.00  0.00    +0.107 A 
ATOM     21  N   UNK A  0       26.737 -13.389   5.041  0.00  0.00    -0.223 NA
ATOM     22  C   UNK A  0       27.937 -12.946   4.768  0.00  0.00    +0.156 A 
ATOM     23  S   UNK A  0       28.530 -13.349   3.212  0.00  0.00    -0.060 S 
ATOM     24  C   UNK A  0       27.084 -14.214   2.891  0.00  0.00    +0.078 A 
BRANCH  22  25
ATOM     25  N   UNK A  0       28.675 -12.246   5.645  0.00  0.00    -0.338 N 
ATOM     26  H   UNK A  0       29.543 -12.689   5.927  0.00  0.00    +0.144 HD
ATOM     27  H   UNK A  0       28.745 -11.246   5.510  0.00  0.00    +0.144 HD
ENDBRANCH  22  25
ENDBRANCH  19  20
BRANCH  18  29
ATOM     28  C   UNK A  0       22.434 -14.840   5.914  0.00  0.00    +0.313 C 
ATOM     29  O   UNK A  0       22.691 -14.661   4.525  0.00  0.00    -0.396 OA
ENDBRANCH  18  29
ENDBRANCH   1  19
TORSDOF 7
ENDMDL
MODEL 7
REMARK VINA RESULT:       2.5      3.118      7.685
REMARK  Name = *****
REMARK                            x       y       z     vdW  Elec       q    Type
REMARK                         _______ _______ _______ _____ _____    ______ ____
ROOT
ATOM      1  C   UNK A  0       24.304 -14.227   3.646  0.00  0.00    +0.268 C 
ATOM      2  N   UNK A  2       24.509 -15.523   4.067  0.00  0.00    -0.296 N 
ATOM      3  H   ACE A  1       25.242 -15.655   4.763  0.00  0.00    +0.150 HD
ATOM      4  O   UNK A  0       23.544 -13.927   2.736  0.00  0.00    -0.268 OA
ENDROOT
BRANCH   2   5
ATOM      5  C   UNK A  2       23.878 -16.689   3.400  0.00  0.00    +0.191 C 
ATOM      6  C   UNK A  2       24.727 -17.998   3.290  0.00  0.00    +0.169 C 
ATOM      7  N   UNK A  2       23.899 -18.533   4.353  0.00  0.00    -0.249 N 
ATOM      8  C   UNK A  2       24.145 -19.712   4.977  0.00  0.00    +0.119 C 
ATOM      9  C   UNK A  2       25.360 -20.285   4.862  0.00  0.00    +0.014 C 
ATOM     10  C   UNK A  2       26.561 -19.719   4.160  0.00  0.00    +0.100 C 
ATOM     11  S   UNK A  2       26.446 -17.924   3.867  0.00  0.00    -0.131 S 
ATOM     12  C   UNK A  2       22.964 -17.570   4.334  0.00  0.00    +0.244 C 
ATOM     13  O   UNK A  2       21.939 -17.492   4.975  0.00  0.00    -0.273 OA
BRANCH   8  14
ATOM     14  C   UNK A  2       23.145 -20.416   5.845  0.00  0.00    +0.351 C 
ATOM     15  O   UNK A  2       23.269 -20.478   7.062  0.00  0.00    -0.244 OA
BRANCH  14  16
ATOM     16  O   UNK A  2       22.075 -20.946   5.226  0.00  0.00    -0.476 OA
ATOM     17  H   UNK A  2       21.270 -20.384   5.152  0.00  0.00    +0.295 HD
ENDBRANCH  14  16
ENDBRANCH   8  14
ENDBRANCH   2   5
BRANCH   1  19
ATOM     18  N   UNK A  0       24.511 -12.188   5.095  0.00  0.00    -0.078 NA
ATOM     19  C   UNK A  0       25.081 -13.136   4.400  0.00  0.00    +0.190 C 
BRANCH  19  20
ATOM     20  C   UNK A  0       26.548 -13.122   4.373  0.00  0.00    +0.107 A 
ATOM     21  N   UNK A  0       27.270 -12.213   5.153  0.00  0.00    -0.223 NA
ATOM     22  C   UNK A  0       28.557 -12.398   5.014  0.00  0.00    +0.156 A 
ATOM     23  S   UNK A  0       29.005 -13.627   3.907  0.00  0.00    -0.060 S 
ATOM     24  C   UNK A  0       27.348 -13.964   3.620  0.00  0.00    +0.078 A 
BRANCH  22  25
ATOM     25  N   UNK A  0       29.474 -11.699   5.701  0.00  0.00    -0.338 N 
ATOM     26  H   UNK A  0       29.857 -10.896   5.214  0.00  0.00    +0.144 HD
ATOM     27  H   UNK A  0       29.309 -11.544   6.687  0.00  0.00    +0.144 HD
ENDBRANCH  22  25
ENDBRANCH  19  20
BRANCH  18  29
ATOM     28  C   UNK A  0       22.651 -11.447   6.204  0.00  0.00    +0.313 C 
ATOM     29  O   UNK A  0       23.116 -12.276   5.144  0.00  0.00    -0.396 OA
ENDBRANCH  18  29
ENDBRANCH   1  19
TORSDOF 7
ENDMDL
