MODEL 1
REMARK VINA RESULT:      -4.8      0.000      0.000
REMARK  Name = *****
REMARK                            x       y       z     vdW  Elec       q    Type
REMARK                         _______ _______ _______ _____ _____    ______ ____
ROOT
ATOM      1  C   LIG    1       24.993 -20.353   4.519  0.00  0.00    +0.023 C 
ATOM      2  N   LIG    1       26.129 -20.601   5.254  0.00  0.00    -0.339 N 
ATOM      3  H   LIG    1       26.178 -21.430   5.838  0.00  0.00    +0.168 HD
ATOM      4  C   LIG    1       27.220 -19.781   5.262  0.00  0.00    +0.158 C 
ATOM      5  S   LIG    1       28.557 -20.124   6.188  0.00  0.00    -0.013 S 
ATOM      6  N   LIG    1       27.154 -18.671   4.473  0.00  0.00    -0.303 N 
ATOM      7  H   LIG    1       27.945 -18.045   4.449  0.00  0.00    +0.171 HD
ATOM      8  C   LIG    1       26.084 -18.340   3.686  0.00  0.00    +0.252 C 
ATOM      9  O   LIG    1       26.063 -17.342   2.975  0.00  0.00    -0.268 OA
ATOM     10  C   LIG    1       24.933 -19.264   3.737  0.00  0.00    +0.091 C 
ENDROOT
BRANCH   1  11
ATOM     11  C   LIG    1       23.867 -21.351   4.621  0.00  0.00    +0.053 C 
BRANCH  11  13
ATOM     12  C   LIG    1       23.223 -21.305   7.061  0.00  0.00    +0.004 C 
ATOM     13  C   LIG    1       22.806 -20.937   5.645  0.00  0.00    +0.003 C 
ENDBRANCH  11  13
ENDBRANCH   1  11
TORSDOF 2
ENDMDL
MODEL 2
REMARK VINA RESULT:      -4.6      5.269      6.862
REMARK  Name = *****
REMARK                            x       y       z     vdW  Elec       q    Type
REMARK                         _______ _______ _______ _____ _____    ______ ____
ROOT
ATOM      1  C   LIG    1       25.116 -13.759   3.865  0.00  0.00    +0.023 C 
ATOM      2  N   LIG    1       26.329 -13.121   3.985  0.00  0.00    -0.339 N 
ATOM      3  H   LIG    1       26.357 -12.129   4.197  0.00  0.00    +0.168 HD
ATOM      4  C   LIG    1       27.533 -13.746   3.823  0.00  0.00    +0.158 C 
ATOM      5  S   LIG    1       28.966 -12.917   3.960  0.00  0.00    -0.013 S 
ATOM      6  N   LIG    1       27.493 -15.080   3.543  0.00  0.00    -0.303 N 
ATOM      7  H   LIG    1       28.364 -15.575   3.422  0.00  0.00    +0.171 HD
ATOM      8  C   LIG    1       26.346 -15.816   3.423  0.00  0.00    +0.252 C 
ATOM      9  O   LIG    1       26.346 -17.018   3.186  0.00  0.00    -0.268 OA
ATOM     10  C   LIG    1       25.081 -15.073   3.597  0.00  0.00    +0.091 C 
ENDROOT
BRANCH   1  11
ATOM     11  C   LIG    1       23.872 -12.930   4.066  0.00  0.00    +0.053 C 
BRANCH  11  13
ATOM     12  C   LIG    1       24.283 -11.862   1.817  0.00  0.00    +0.004 C 
ATOM     13  C   LIG    1       23.904 -11.622   3.270  0.00  0.00    +0.003 C 
ENDBRANCH  11  13
ENDBRANCH   1  11
TORSDOF 2
ENDMDL
MODEL 3
REMARK VINA RESULT:      -4.5      2.936      4.525
REMARK  Name = *****
REMARK                            x       y       z     vdW  Elec       q    Type
REMARK                         _______ _______ _______ _____ _____    ______ ____
ROOT
ATOM      1  C   LIG    1       26.538 -20.915   6.477  0.00  0.00    +0.023 C 
ATOM      2  N   LIG    1       26.439 -20.182   5.316  0.00  0.00    -0.339 N 
ATOM      3  H   LIG    1       27.281 -19.835   4.867  0.00  0.00    +0.168 HD
ATOM      4  C   LIG    1       25.253 -19.870   4.717  0.00  0.00    +0.158 C 
ATOM      5  S   LIG    1       25.196 -18.963   3.326  0.00  0.00    -0.013 S 
ATOM      6  N   LIG    1       24.124 -20.342   5.319  0.00  0.00    -0.303 N 
ATOM      7  H   LIG    1       23.229 -20.135   4.900  0.00  0.00    +0.171 HD
ATOM      8  C   LIG    1       24.108 -21.097   6.460  0.00  0.00    +0.252 C 
ATOM      9  O   LIG    1       23.076 -21.519   6.967  0.00  0.00    -0.268 OA
ATOM     10  C   LIG    1       25.427 -21.384   7.062  0.00  0.00    +0.091 C 
ENDROOT
BRANCH   1  11
ATOM     11  C   LIG    1       27.922 -21.171   7.021  0.00  0.00    +0.053 C 
BRANCH  11  13
ATOM     12  C   LIG    1       29.317 -19.071   6.913  0.00  0.00    +0.004 C 
ATOM     13  C   LIG    1       29.005 -20.406   6.254  0.00  0.00    +0.003 C 
ENDBRANCH  11  13
ENDBRANCH   1  11
TORSDOF 2
ENDMDL
MODEL 4
REMARK VINA RESULT:      -4.3      2.273      3.758
REMARK  Name = *****
REMARK                            x       y       z     vdW  Elec       q    Type
REMARK                         _______ _______ _______ _____ _____    ______ ____
ROOT
ATOM      1  C   LIG    1       25.401 -19.996   4.582  0.00  0.00    +0.023 C 
ATOM      2  N   LIG    1       26.625 -20.160   5.190  0.00  0.00    -0.339 N 
ATOM      3  H   LIG    1       27.462 -19.802   4.741  0.00  0.00    +0.168 HD
ATOM      4  C   LIG    1       26.796 -20.798   6.385  0.00  0.00    +0.158 C 
ATOM      5  S   LIG    1       28.303 -20.984   7.061  0.00  0.00    -0.013 S 
ATOM      6  N   LIG    1       25.670 -21.273   6.989  0.00  0.00    -0.303 N 
ATOM      7  H   LIG    1       25.758 -21.745   7.876  0.00  0.00    +0.171 HD
ATOM      8  C   LIG    1       24.404 -21.146   6.485  0.00  0.00    +0.252 C 
ATOM      9  O   LIG    1       23.410 -21.570   7.061  0.00  0.00    -0.268 OA
ATOM     10  C   LIG    1       24.294 -20.457   5.182  0.00  0.00    +0.091 C 
ENDROOT
BRANCH   1  11
ATOM     11  C   LIG    1       25.376 -19.273   3.258  0.00  0.00    +0.053 C 
BRANCH  11  13
ATOM     12  C   LIG    1       26.450 -16.996   3.418  0.00  0.00    +0.004 C 
ATOM     13  C   LIG    1       25.140 -17.768   3.414  0.00  0.00    +0.003 C 
ENDBRANCH  11  13
ENDBRANCH   1  11
TORSDOF 2
ENDMDL
MODEL 5
REMARK VINA RESULT:      -4.1      4.140      5.234
REMARK  Name = *****
REMARK                            x       y       z     vdW  Elec       q    Type
REMARK                         _______ _______ _______ _____ _____    ______ ____
ROOT
ATOM      1  C   LIG    1       26.069 -15.874   3.517  0.00  0.00    +0.023 C 
ATOM      2  N   LIG    1       27.247 -15.161   3.545  0.00  0.00    -0.339 N 
ATOM      3  H   LIG    1       28.129 -15.642   3.395  0.00  0.00    +0.168 HD
ATOM      4  C   LIG    1       27.313 -13.818   3.777  0.00  0.00    +0.158 C 
ATOM      5  S   LIG    1       28.767 -13.015   3.819  0.00  0.00    -0.013 S 
ATOM      6  N   LIG    1       26.127 -13.174   3.972  0.00  0.00    -0.303 N 
ATOM      7  H   LIG    1       26.138 -12.179   4.141  0.00  0.00    +0.171 HD
ATOM      8  C   LIG    1       24.900 -13.779   3.943  0.00  0.00    +0.252 C 
ATOM      9  O   LIG    1       23.851 -13.168   4.107  0.00  0.00    -0.268 OA
ATOM     10  C   LIG    1       24.904 -15.236   3.701  0.00  0.00    +0.091 C 
ENDROOT
BRANCH   1  11
ATOM     11  C   LIG    1       26.161 -17.356   3.254  0.00  0.00    +0.053 C 
BRANCH  11  13
ATOM     12  C   LIG    1       25.069 -19.603   3.608  0.00  0.00    +0.004 C 
ATOM     13  C   LIG    1       24.866 -18.096   3.603  0.00  0.00    +0.003 C 
ENDBRANCH  11  13
ENDBRANCH   1  11
TORSDOF 2
ENDMDL
MODEL 6
REMARK VINA RESULT:      -4.1      6.177      7.536
REMARK  Name = *****
REMARK                            x       y       z     vdW  Elec       q    Type
REMARK                         _______ _______ _______ _____ _____    ______ ____
ROOT
ATOM      1  C   LIG    1       26.362 -13.883   3.482  0.00  0.00    +0.023 C 
ATOM      2  N   LIG    1       25.382 -14.632   4.092  0.00  0.00    -0.339 N 
ATOM      3  H   LIG    1       25.643 -15.413   4.687  0.00  0.00    +0.168 HD
ATOM      4  C   LIG    1       24.046 -14.399   3.939  0.00  0.00    +0.158 C 
ATOM      5  S   LIG    1       22.907 -15.352   4.686  0.00  0.00    -0.013 S 
ATOM      6  N   LIG    1       23.698 -13.347   3.144  0.00  0.00    -0.303 N 
ATOM      7  H   LIG    1       22.718 -13.142   3.013  0.00  0.00    +0.171 HD
ATOM      8  C   LIG    1       24.588 -12.525   2.509  0.00  0.00    +0.252 C 
ATOM      9  O   LIG    1       24.242 -11.578   1.813  0.00  0.00    -0.268 OA
ATOM     10  C   LIG    1       26.017 -12.844   2.707  0.00  0.00    +0.091 C 
ENDROOT
BRANCH   1  11
ATOM     11  C   LIG    1       27.796 -14.270   3.744  0.00  0.00    +0.053 C 
BRANCH  11  13
ATOM     12  C   LIG    1       28.714 -12.256   4.956  0.00  0.00    +0.004 C 
ATOM     13  C   LIG    1       28.750 -13.074   3.673  0.00  0.00    +0.003 C 
ENDBRANCH  11  13
ENDBRANCH   1  11
TORSDOF 2
ENDMDL
MODEL 7
REMARK VINA RESULT:      -4.1      5.137      6.770
REMARK  Name = *****
REMARK                            x       y       z     vdW  Elec       q    Type
REMARK                         _______ _______ _______ _____ _____    ______ ____
ROOT
ATOM      1  C   LIG    1       25.353 -13.582   4.010  0.00  0.00    +0.023 C 
ATOM      2  N   LIG    1       25.213 -14.930   3.768  0.00  0.00    -0.339 N 
ATOM      3  H   LIG    1       24.286 -15.345   3.756  0.00  0.00    +0.168 HD
ATOM      4  C   LIG    1       26.264 -15.773   3.550  0.00  0.00    +0.158 C 
ATOM      5  S   LIG    1       26.034 -17.397   3.285  0.00  0.00    -0.013 S 
ATOM      6  N   LIG    1       27.507 -15.213   3.562  0.00  0.00    -0.303 N 
ATOM      7  H   LIG    1       28.308 -15.805   3.399  0.00  0.00    +0.171 HD
ATOM      8  C   LIG    1       27.759 -13.884   3.770  0.00  0.00    +0.252 C 
ATOM      9  O   LIG    1       28.888 -13.409   3.758  0.00  0.00    -0.268 OA
ATOM     10  C   LIG    1       26.576 -13.033   4.013  0.00  0.00    +0.091 C 
ENDROOT
BRANCH   1  11
ATOM     11  C   LIG    1       24.094 -12.784   4.239  0.00  0.00    +0.053 C 
BRANCH  11  13
ATOM     12  C   LIG    1       24.389 -12.132   1.820  0.00  0.00    +0.004 C 
ATOM     13  C   LIG    1       23.893 -11.689   3.188  0.00  0.00    +0.003 C 
ENDBRANCH  11  13
ENDBRANCH   1  11
TORSDOF 2
ENDMDL
MODEL 8
REMARK VINA RESULT:      -4.0      1.228      1.538
REMARK  Name = *****
REMARK                            x       y       z     vdW  Elec       q    Type
REMARK                         _______ _______ _______ _____ _____    ______ ____
ROOT
ATOM      1  C   LIG    1       25.547 -19.286   3.900  0.00  0.00    +0.023 C 
ATOM      2  N   LIG    1       26.541 -19.829   4.682  0.00  0.00    -0.339 N 
ATOM      3  H   LIG    1       26.428 -20.764   5.060  0.00  0.00    +0.168 HD
ATOM      4  C   LIG    1       27.695 -19.174   5.004  0.00  0.00    +0.158 C 
ATOM      5  S   LIG    1       28.850 -19.874   5.971  0.00  0.00    -0.013 S 
ATOM      6  N   LIG    1       27.846 -17.920   4.490  0.00  0.00    -0.303 N 
ATOM      7  H   LIG    1       28.690 -17.408   4.703  0.00  0.00    +0.171 HD
ATOM      8  C   LIG    1       26.934 -17.293   3.685  0.00  0.00    +0.252 C 
ATOM      9  O   LIG    1       27.108 -16.171   3.227  0.00  0.00    -0.268 OA
ATOM     10  C   LIG    1       25.703 -18.055   3.390  0.00  0.00    +0.091 C 
ENDROOT
BRANCH   1  11
ATOM     11  C   LIG    1       24.327 -20.133   3.640  0.00  0.00    +0.053 C 
BRANCH  11  13
ATOM     12  C   LIG    1       22.266 -19.213   4.769  0.00  0.00    +0.004 C 
ATOM     13  C   LIG    1       23.402 -20.221   4.858  0.00  0.00    +0.003 C 
ENDBRANCH  11  13
ENDBRANCH   1  11
TORSDOF 2
ENDMDL
MODEL 9
REMARK VINA RESULT:      -4.0      5.002      6.181
REMARK  Name = *****
REMARK                            x       y       z     vdW  Elec       q    Type
REMARK                         _______ _______ _______ _____ _____    ______ ____
ROOT
ATOM      1  C   LIG    1       25.823 -15.202   3.372  0.00  0.00    +0.023 C 
ATOM      2  N   LIG    1       25.068 -14.185   2.834  0.00  0.00    -0.339 N 
ATOM      3  H   LIG    1       24.085 -14.340   2.633  0.00  0.00    +0.168 HD
ATOM      4  C   LIG    1       25.568 -12.950   2.533  0.00  0.00    +0.158 C 
ATOM      5  S   LIG    1       24.612 -11.767   1.864  0.00  0.00    -0.013 S 
ATOM      6  N   LIG    1       26.887 -12.743   2.809  0.00  0.00    -0.303 N 
ATOM      7  H   LIG    1       27.289 -11.840   2.604  0.00  0.00    +0.171 HD
ATOM      8  C   LIG    1       27.722 -13.675   3.363  0.00  0.00    +0.252 C 
ATOM      9  O   LIG    1       28.900 -13.452   3.613  0.00  0.00    -0.268 OA
ATOM     10  C   LIG    1       27.118 -14.993   3.650  0.00  0.00    +0.091 C 
ENDROOT
BRANCH   1  11
ATOM     11  C   LIG    1       25.127 -16.513   3.644  0.00  0.00    +0.053 C 
BRANCH  11  13
ATOM     12  C   LIG    1       25.278 -19.031   3.585  0.00  0.00    +0.004 C 
ATOM     13  C   LIG    1       25.999 -17.724   3.296  0.00  0.00    +0.003 C 
ENDBRANCH  11  13
ENDBRANCH   1  11
TORSDOF 2
ENDMDL
