MODEL 1
REMARK VINA RESULT:      -6.9      0.000      0.000
REMARK  Name = *****
REMARK                            x       y       z     vdW  Elec       q    Type
REMARK                         _______ _______ _______ _____ _____    ______ ____
ROOT
ATOM      1  N   LIG    1       24.205 -27.184   5.743  0.00  0.00    -0.272 N 
ATOM      2  H   LIG    1       23.628 -26.756   5.028  0.00  0.00    +0.258 HD
ENDROOT
BRANCH   1   5
ATOM      3  N   LIG    1       23.390 -29.343   5.371  0.00  0.00    -0.130 NA
ATOM      4  H   LIG    1       23.768 -30.286   5.293  0.00  0.00    +0.306 HD
ATOM      5  C   LIG    1       24.346 -28.513   5.571  0.00  0.00    +0.377 C 
BRANCH   5   6
ATOM      6  N   LIG    1       25.646 -28.867   5.615  0.00  0.00    -0.289 N 
ATOM      7  H   LIG    1       26.231 -28.115   5.965  0.00  0.00    +0.255 HD
ATOM      8  H   LIG    1       26.015 -29.236   4.749  0.00  0.00    +0.255 HD
ENDBRANCH   5   6
ENDBRANCH   1   5
BRANCH   1   9
ATOM      9  C   LIG    1       25.331 -26.348   6.112  0.00  0.00    +0.231 C 
BRANCH   9  10
ATOM     10  C   LIG    1       24.815 -24.981   6.507  0.00  0.00    -0.013 A 
ATOM     11  C   LIG    1       25.706 -23.989   6.951  0.00  0.00    +0.021 A 
ATOM     12  C   LIG    1       25.234 -22.723   7.297  0.00  0.00    +0.014 A 
ATOM     13  I   LIG    1       26.569 -21.257   7.921  0.00  0.00    -0.044 I 
ATOM     14  C   LIG    1       23.873 -22.433   7.217  0.00  0.00    +0.014 A 
ATOM     15  C   LIG    1       22.980 -23.416   6.794  0.00  0.00    +0.001 A 
ATOM     16  C   LIG    1       23.447 -24.685   6.442  0.00  0.00    +0.007 A 
ENDBRANCH   9  10
ENDBRANCH   1   9
TORSDOF 4
ENDMDL
MODEL 2
REMARK VINA RESULT:      -6.7      6.201      7.324
REMARK  Name = *****
REMARK                            x       y       z     vdW  Elec       q    Type
REMARK                         _______ _______ _______ _____ _____    ______ ____
ROOT
ATOM      1  N   LIG    1       30.056 -21.259   7.961  0.00  0.00    -0.272 N 
ATOM      2  H   LIG    1       30.058 -22.190   7.561  0.00  0.00    +0.258 HD
ENDROOT
BRANCH   1   5
ATOM      3  N   LIG    1       31.821 -21.825   9.387  0.00  0.00    -0.130 NA
ATOM      4  H   LIG    1       32.619 -21.359   9.815  0.00  0.00    +0.306 HD
ATOM      5  C   LIG    1       31.179 -20.990   8.657  0.00  0.00    +0.377 C 
BRANCH   5   6
ATOM      6  N   LIG    1       31.563 -19.712   8.469  0.00  0.00    -0.289 N 
ATOM      7  H   LIG    1       31.810 -19.257   9.343  0.00  0.00    +0.255 HD
ATOM      8  H   LIG    1       30.913 -19.145   7.942  0.00  0.00    +0.255 HD
ENDBRANCH   5   6
ENDBRANCH   1   5
BRANCH   1   9
ATOM      9  C   LIG    1       29.470 -20.279   7.067  0.00  0.00    +0.231 C 
BRANCH   9  10
ATOM     10  C   LIG    1       27.963 -20.408   7.124  0.00  0.00    -0.013 A 
ATOM     11  C   LIG    1       27.200 -20.315   5.947  0.00  0.00    +0.021 A 
ATOM     12  C   LIG    1       25.812 -20.452   5.996  0.00  0.00    +0.014 A 
ATOM     13  I   LIG    1       24.701 -20.344   4.243  0.00  0.00    -0.044 I 
ATOM     14  C   LIG    1       25.169 -20.672   7.213  0.00  0.00    +0.014 A 
ATOM     15  C   LIG    1       25.917 -20.750   8.387  0.00  0.00    +0.001 A 
ATOM     16  C   LIG    1       27.307 -20.617   8.345  0.00  0.00    +0.007 A 
ENDBRANCH   9  10
ENDBRANCH   1   9
TORSDOF 4
ENDMDL
MODEL 3
REMARK VINA RESULT:      -6.7      6.198      7.370
REMARK  Name = *****
REMARK                            x       y       z     vdW  Elec       q    Type
REMARK                         _______ _______ _______ _____ _____    ______ ____
ROOT
ATOM      1  N   LIG    1       29.634 -20.552   6.839  0.00  0.00    -0.272 N 
ATOM      2  H   LIG    1       29.955 -21.475   6.572  0.00  0.00    +0.258 HD
ENDROOT
BRANCH   1   5
ATOM      3  N   LIG    1       30.744 -18.500   7.001  0.00  0.00    -0.130 NA
ATOM      4  H   LIG    1       31.603 -18.142   7.415  0.00  0.00    +0.306 HD
ATOM      5  C   LIG    1       30.637 -19.752   7.253  0.00  0.00    +0.377 C 
BRANCH   5   6
ATOM      6  N   LIG    1       31.521 -20.442   8.000  0.00  0.00    -0.289 N 
ATOM      7  H   LIG    1       31.316 -20.372   8.992  0.00  0.00    +0.255 HD
ATOM      8  H   LIG    1       32.492 -20.225   7.819  0.00  0.00    +0.255 HD
ENDBRANCH   5   6
ENDBRANCH   1   5
BRANCH   1   9
ATOM      9  C   LIG    1       28.590 -20.059   5.960  0.00  0.00    +0.231 C 
BRANCH   9  10
ATOM     10  C   LIG    1       27.246 -20.324   6.604  0.00  0.00    -0.013 A 
ATOM     11  C   LIG    1       26.086 -20.394   5.814  0.00  0.00    +0.021 A 
ATOM     12  C   LIG    1       24.849 -20.657   6.403  0.00  0.00    +0.014 A 
ATOM     13  I   LIG    1       23.146 -20.789   5.218  0.00  0.00    -0.044 I 
ATOM     14  C   LIG    1       24.751 -20.843   7.781  0.00  0.00    +0.014 A 
ATOM     15  C   LIG    1       25.895 -20.759   8.574  0.00  0.00    +0.001 A 
ATOM     16  C   LIG    1       27.137 -20.499   7.990  0.00  0.00    +0.007 A 
ENDBRANCH   9  10
ENDBRANCH   1   9
TORSDOF 4
ENDMDL
MODEL 4
REMARK VINA RESULT:      -6.5      1.745      1.955
REMARK  Name = *****
REMARK                            x       y       z     vdW  Elec       q    Type
REMARK                         _______ _______ _______ _____ _____    ______ ____
ROOT
ATOM      1  N   LIG    1       25.561 -25.755   5.452  0.00  0.00    -0.272 N 
ATOM      2  H   LIG    1       26.032 -24.884   5.238  0.00  0.00    +0.258 HD
ENDROOT
BRANCH   1   5
ATOM      3  N   LIG    1       27.362 -27.176   5.003  0.00  0.00    -0.130 NA
ATOM      4  H   LIG    1       27.847 -27.944   5.465  0.00  0.00    +0.306 HD
ATOM      5  C   LIG    1       26.419 -26.749   5.757  0.00  0.00    +0.377 C 
BRANCH   5   6
ATOM      6  N   LIG    1       26.170 -27.235   6.990  0.00  0.00    -0.289 N 
ATOM      7  H   LIG    1       26.518 -26.618   7.718  0.00  0.00    +0.255 HD
ATOM      8  H   LIG    1       26.484 -28.184   7.145  0.00  0.00    +0.255 HD
ENDBRANCH   5   6
ENDBRANCH   1   5
BRANCH   1   9
ATOM      9  C   LIG    1       24.345 -25.548   6.215  0.00  0.00    +0.231 C 
BRANCH   9  10
ATOM     10  C   LIG    1       24.276 -24.096   6.636  0.00  0.00    -0.013 A 
ATOM     11  C   LIG    1       25.456 -23.380   6.902  0.00  0.00    +0.021 A 
ATOM     12  C   LIG    1       25.396 -22.036   7.272  0.00  0.00    +0.014 A 
ATOM     13  I   LIG    1       27.151 -20.983   7.631  0.00  0.00    -0.044 I 
ATOM     14  C   LIG    1       24.164 -21.393   7.391  0.00  0.00    +0.014 A 
ATOM     15  C   LIG    1       22.988 -22.101   7.145  0.00  0.00    +0.001 A 
ATOM     16  C   LIG    1       23.042 -23.445   6.771  0.00  0.00    +0.007 A 
ENDBRANCH   9  10
ENDBRANCH   1   9
TORSDOF 4
ENDMDL
MODEL 5
REMARK VINA RESULT:      -6.3      4.703      6.067
REMARK  Name = *****
REMARK                            x       y       z     vdW  Elec       q    Type
REMARK                         _______ _______ _______ _____ _____    ______ ____
ROOT
ATOM      1  N   LIG    1       28.002 -21.422   7.090  0.00  0.00    -0.272 N 
ATOM      2  H   LIG    1       27.749 -22.226   6.528  0.00  0.00    +0.258 HD
ENDROOT
BRANCH   1   5
ATOM      3  N   LIG    1       29.939 -20.168   6.713  0.00  0.00    -0.130 NA
ATOM      4  H   LIG    1       30.263 -19.467   6.049  0.00  0.00    +0.306 HD
ATOM      5  C   LIG    1       28.746 -20.526   6.412  0.00  0.00    +0.377 C 
BRANCH   5   6
ATOM      6  N   LIG    1       28.075 -20.060   5.340  0.00  0.00    -0.289 N 
ATOM      7  H   LIG    1       27.132 -19.769   5.581  0.00  0.00    +0.255 HD
ATOM      8  H   LIG    1       28.065 -20.680   4.541  0.00  0.00    +0.255 HD
ENDBRANCH   5   6
ENDBRANCH   1   5
BRANCH   1   9
ATOM      9  C   LIG    1       26.922 -21.000   7.961  0.00  0.00    +0.231 C 
BRANCH   9  10
ATOM     10  C   LIG    1       25.652 -21.707   7.540  0.00  0.00    -0.013 A 
ATOM     11  C   LIG    1       25.704 -23.023   7.050  0.00  0.00    +0.021 A 
ATOM     12  C   LIG    1       24.532 -23.683   6.678  0.00  0.00    +0.014 A 
ATOM     13  I   LIG    1       24.623 -25.640   5.985  0.00  0.00    -0.044 I 
ATOM     14  C   LIG    1       23.300 -23.040   6.780  0.00  0.00    +0.014 A 
ATOM     15  C   LIG    1       23.240 -21.728   7.250  0.00  0.00    +0.001 A 
ATOM     16  C   LIG    1       24.410 -21.063   7.627  0.00  0.00    +0.007 A 
ENDBRANCH   9  10
ENDBRANCH   1   9
TORSDOF 4
ENDMDL
MODEL 6
REMARK VINA RESULT:      -6.2      6.085      7.283
REMARK  Name = *****
REMARK                            x       y       z     vdW  Elec       q    Type
REMARK                         _______ _______ _______ _____ _____    ______ ____
ROOT
ATOM      1  N   LIG    1       30.185 -20.822   7.803  0.00  0.00    -0.272 N 
ATOM      2  H   LIG    1       30.036 -19.935   7.336  0.00  0.00    +0.258 HD
ENDROOT
BRANCH   1   5
ATOM      3  N   LIG    1       31.820 -19.811   9.134  0.00  0.00    -0.130 NA
ATOM      4  H   LIG    1       32.670 -20.089   9.621  0.00  0.00    +0.306 HD
ATOM      5  C   LIG    1       31.304 -20.831   8.555  0.00  0.00    +0.377 C 
BRANCH   5   6
ATOM      6  N   LIG    1       31.810 -22.077   8.645  0.00  0.00    -0.289 N 
ATOM      7  H   LIG    1       32.029 -22.329   9.604  0.00  0.00    +0.255 HD
ATOM      8  H   LIG    1       32.598 -22.260   8.038  0.00  0.00    +0.255 HD
ENDBRANCH   5   6
ENDBRANCH   1   5
BRANCH   1   9
ATOM      9  C   LIG    1       28.947 -21.404   8.284  0.00  0.00    +0.231 C 
BRANCH   9  10
ATOM     10  C   LIG    1       27.836 -21.052   7.319  0.00  0.00    -0.013 A 
ATOM     11  C   LIG    1       26.538 -21.551   7.523  0.00  0.00    +0.021 A 
ATOM     12  C   LIG    1       25.508 -21.212   6.645  0.00  0.00    +0.014 A 
ATOM     13  I   LIG    1       23.587 -21.933   6.978  0.00  0.00    -0.044 I 
ATOM     14  C   LIG    1       25.758 -20.384   5.552  0.00  0.00    +0.014 A 
ATOM     15  C   LIG    1       27.047 -19.897   5.334  0.00  0.00    +0.001 A 
ATOM     16  C   LIG    1       28.081 -20.230   6.211  0.00  0.00    +0.007 A 
ENDBRANCH   9  10
ENDBRANCH   1   9
TORSDOF 4
ENDMDL
MODEL 7
REMARK VINA RESULT:      -6.1      5.754      6.793
REMARK  Name = *****
REMARK                            x       y       z     vdW  Elec       q    Type
REMARK                         _______ _______ _______ _____ _____    ______ ____
ROOT
ATOM      1  N   LIG    1       25.642 -20.119   3.805  0.00  0.00    -0.272 N 
ATOM      2  H   LIG    1       25.828 -20.672   2.976  0.00  0.00    +0.258 HD
ENDROOT
BRANCH   1   5
ATOM      3  N   LIG    1       26.005 -17.904   3.151  0.00  0.00    -0.130 NA
ATOM      4  H   LIG    1       25.450 -17.061   3.011  0.00  0.00    +0.306 HD
ATOM      5  C   LIG    1       25.240 -18.866   3.513  0.00  0.00    +0.377 C 
BRANCH   5   6
ATOM      6  N   LIG    1       23.902 -18.753   3.630  0.00  0.00    -0.289 N 
ATOM      7  H   LIG    1       23.505 -19.506   4.184  0.00  0.00    +0.255 HD
ATOM      8  H   LIG    1       23.406 -18.652   2.755  0.00  0.00    +0.255 HD
ENDBRANCH   5   6
ENDBRANCH   1   5
BRANCH   1   9
ATOM      9  C   LIG    1       24.999 -20.894   4.849  0.00  0.00    +0.231 C 
BRANCH   9  10
ATOM     10  C   LIG    1       25.775 -20.714   6.136  0.00  0.00    -0.013 A 
ATOM     11  C   LIG    1       27.138 -20.371   6.099  0.00  0.00    +0.021 A 
ATOM     12  C   LIG    1       27.849 -20.186   7.284  0.00  0.00    +0.014 A 
ATOM     13  I   LIG    1       29.856 -19.649   7.213  0.00  0.00    -0.044 I 
ATOM     14  C   LIG    1       27.219 -20.350   8.517  0.00  0.00    +0.014 A 
ATOM     15  C   LIG    1       25.871 -20.706   8.563  0.00  0.00    +0.001 A 
ATOM     16  C   LIG    1       25.152 -20.889   7.379  0.00  0.00    +0.007 A 
ENDBRANCH   9  10
ENDBRANCH   1   9
TORSDOF 4
ENDMDL
MODEL 8
REMARK VINA RESULT:      -6.0      5.634      7.170
REMARK  Name = *****
REMARK                            x       y       z     vdW  Elec       q    Type
REMARK                         _______ _______ _______ _____ _____    ______ ____
ROOT
ATOM      1  N   LIG    1       28.609 -19.900   6.032  0.00  0.00    -0.272 N 
ATOM      2  H   LIG    1       27.958 -20.038   5.268  0.00  0.00    +0.258 HD
ENDROOT
BRANCH   1   5
ATOM      3  N   LIG    1       30.350 -18.454   6.620  0.00  0.00    -0.130 NA
ATOM      4  H   LIG    1       30.723 -17.560   6.305  0.00  0.00    +0.306 HD
ATOM      5  C   LIG    1       29.355 -18.786   5.885  0.00  0.00    +0.377 C 
BRANCH   5   6
ATOM      6  N   LIG    1       28.928 -18.061   4.832  0.00  0.00    -0.289 N 
ATOM      7  H   LIG    1       28.430 -17.226   5.124  0.00  0.00    +0.255 HD
ATOM      8  H   LIG    1       28.391 -18.578   4.149  0.00  0.00    +0.255 HD
ENDBRANCH   5   6
ENDBRANCH   1   5
BRANCH   1   9
ATOM      9  C   LIG    1       28.033 -20.258   7.314  0.00  0.00    +0.231 C 
BRANCH   9  10
ATOM     10  C   LIG    1       26.774 -21.063   7.075  0.00  0.00    -0.013 A 
ATOM     11  C   LIG    1       25.672 -20.478   6.427  0.00  0.00    +0.021 A 
ATOM     12  C   LIG    1       24.518 -21.225   6.189  0.00  0.00    +0.014 A 
ATOM     13  I   LIG    1       22.909 -20.354   5.203  0.00  0.00    -0.044 I 
ATOM     14  C   LIG    1       24.443 -22.555   6.599  0.00  0.00    +0.014 A 
ATOM     15  C   LIG    1       25.526 -23.139   7.257  0.00  0.00    +0.001 A 
ATOM     16  C   LIG    1       26.685 -22.397   7.495  0.00  0.00    +0.007 A 
ENDBRANCH   9  10
ENDBRANCH   1   9
TORSDOF 4
ENDMDL
MODEL 9
REMARK VINA RESULT:      -6.0      5.639      7.012
REMARK  Name = *****
REMARK                            x       y       z     vdW  Elec       q    Type
REMARK                         _______ _______ _______ _____ _____    ______ ____
ROOT
ATOM      1  N   LIG    1       29.486 -20.774   6.808  0.00  0.00    -0.272 N 
ATOM      2  H   LIG    1       29.151 -20.669   5.857  0.00  0.00    +0.258 HD
ENDROOT
BRANCH   1   5
ATOM      3  N   LIG    1       30.309 -18.586   6.836  0.00  0.00    -0.130 NA
ATOM      4  H   LIG    1       31.121 -18.094   7.204  0.00  0.00    +0.306 HD
ATOM      5  C   LIG    1       30.381 -19.826   7.151  0.00  0.00    +0.377 C 
BRANCH   5   6
ATOM      6  N   LIG    1       31.371 -20.351   7.900  0.00  0.00    -0.289 N 
ATOM      7  H   LIG    1       31.890 -19.634   8.397  0.00  0.00    +0.255 HD
ATOM      8  H   LIG    1       31.998 -20.969   7.403  0.00  0.00    +0.255 HD
ENDBRANCH   5   6
ENDBRANCH   1   5
BRANCH   1   9
ATOM      9  C   LIG    1       28.434 -21.183   7.718  0.00  0.00    +0.231 C 
BRANCH   9  10
ATOM     10  C   LIG    1       27.158 -21.386   6.930  0.00  0.00    -0.013 A 
ATOM     11  C   LIG    1       26.493 -22.624   6.968  0.00  0.00    +0.021 A 
ATOM     12  C   LIG    1       25.307 -22.807   6.256  0.00  0.00    +0.014 A 
ATOM     13  I   LIG    1       24.319 -24.633   6.347  0.00  0.00    -0.044 I 
ATOM     14  C   LIG    1       24.776 -21.769   5.493  0.00  0.00    +0.014 A 
ATOM     15  C   LIG    1       25.438 -20.543   5.437  0.00  0.00    +0.001 A 
ATOM     16  C   LIG    1       26.624 -20.352   6.150  0.00  0.00    +0.007 A 
ENDBRANCH   9  10
ENDBRANCH   1   9
TORSDOF 4
ENDMDL
