MODEL 1
REMARK VINA RESULT:      -5.0      0.000      0.000
REMARK  Name = *****
REMARK                            x       y       z     vdW  Elec       q    Type
REMARK                         _______ _______ _______ _____ _____    ______ ____
ROOT
ATOM      1  O   LIG    1       26.662 -16.267   3.093  0.00  0.00    -0.489 OA
ENDROOT
BRANCH   1   5
ATOM      2  C   LIG    1       25.885 -20.015   4.796  0.00  0.00    -0.045 A 
ATOM      3  C   LIG    1       24.995 -19.424   3.874  0.00  0.00    +0.007 A 
ATOM      4  C   LIG    1       25.294 -18.181   3.296  0.00  0.00    +0.046 A 
ATOM      5  C   LIG    1       26.487 -17.533   3.596  0.00  0.00    +0.121 A 
ATOM      6  C   LIG    1       27.424 -18.190   4.406  0.00  0.00    +0.046 A 
ATOM      7  C   LIG    1       27.122 -19.418   4.989  0.00  0.00    +0.007 A 
BRANCH   2   8
ATOM      8  C   LIG    1       25.479 -21.261   5.551  0.00  0.00    +0.063 C 
BRANCH   8   9
ATOM      9  C   LIG    1       24.882 -20.987   6.940  0.00  0.00    +0.164 C 
BRANCH   9  11
ATOM     10  C   LIG    1       22.773 -21.570   6.057  0.00  0.00    +0.193 C 
ATOM     11  O   LIG    1       23.512 -20.604   6.795  0.00  0.00    -0.383 OA
ENDBRANCH   9  11
ENDBRANCH   8   9
ENDBRANCH   2   8
ENDBRANCH   1   5
BRANCH   1  12
ATOM     12  C   LIG    1       27.515 -15.419   3.871  0.00  0.00    +0.261 C 
BRANCH  12  13
ATOM     13  C   LIG    1       27.291 -13.940   3.575  0.00  0.00    +0.166 C 
BRANCH  13  14
ATOM     14  O   LIG    1       28.563 -13.337   3.293  0.00  0.00    -0.387 OA
ATOM     15  H   LIG    1       29.182 -13.723   3.943  0.00  0.00    +0.210 HD
ENDBRANCH  13  14
BRANCH  13  16
ATOM     16  C   LIG    1       26.337 -13.738   2.385  0.00  0.00    +0.115 C 
BRANCH  16  17
ATOM     17  N   LIG    1       25.114 -12.986   2.731  0.00  0.00    -0.311 NA
ATOM     18  H   LIG    1       24.386 -13.257   2.065  0.00  0.00    +0.122 HD
BRANCH  17  19
ATOM     19  C   LIG    1       24.620 -13.228   4.096  0.00  0.00    +0.048 C 
ATOM     20  C   LIG    1       23.734 -14.470   4.203  0.00  0.00    +0.024 C 
ATOM     21  C   LIG    1       23.853 -11.991   4.563  0.00  0.00    +0.024 C 
ENDBRANCH  17  19
ENDBRANCH  16  17
ENDBRANCH  13  16
ENDBRANCH  12  13
ENDBRANCH   1  12
TORSDOF 10
ENDMDL
MODEL 2
REMARK VINA RESULT:      -4.9      2.133      3.089
REMARK  Name = *****
REMARK                            x       y       z     vdW  Elec       q    Type
REMARK                         _______ _______ _______ _____ _____    ______ ____
ROOT
ATOM      1  O   LIG    1       22.751 -15.617   4.345  0.00  0.00    -0.489 OA
ENDROOT
BRANCH   1   5
ATOM      2  C   LIG    1       23.715 -19.694   4.249  0.00  0.00    -0.045 A 
ATOM      3  C   LIG    1       22.437 -19.246   4.644  0.00  0.00    +0.007 A 
ATOM      4  C   LIG    1       22.131 -17.877   4.639  0.00  0.00    +0.046 A 
ATOM      5  C   LIG    1       23.070 -16.946   4.210  0.00  0.00    +0.121 A 
ATOM      6  C   LIG    1       24.287 -17.410   3.691  0.00  0.00    +0.046 A 
ATOM      7  C   LIG    1       24.595 -18.767   3.707  0.00  0.00    +0.007 A 
BRANCH   2   8
ATOM      8  C   LIG    1       24.100 -21.145   4.426  0.00  0.00    +0.063 C 
BRANCH   8   9
ATOM      9  C   LIG    1       24.280 -21.572   5.891  0.00  0.00    +0.164 C 
BRANCH   9  11
ATOM     10  C   LIG    1       26.437 -20.869   6.537  0.00  0.00    +0.193 C 
ATOM     11  O   LIG    1       25.045 -20.579   6.579  0.00  0.00    -0.383 OA
ENDBRANCH   9  11
ENDBRANCH   8   9
ENDBRANCH   2   8
ENDBRANCH   1   5
BRANCH   1  12
ATOM     12  C   LIG    1       23.871 -14.736   4.481  0.00  0.00    +0.261 C 
BRANCH  12  13
ATOM     13  C   LIG    1       23.934 -13.697   3.367  0.00  0.00    +0.166 C 
BRANCH  13  14
ATOM     14  O   LIG    1       23.892 -12.392   3.963  0.00  0.00    -0.387 OA
ATOM     15  H   LIG    1       24.467 -11.834   3.404  0.00  0.00    +0.210 HD
ENDBRANCH  13  14
BRANCH  13  16
ATOM     16  C   LIG    1       25.210 -13.850   2.520  0.00  0.00    +0.115 C 
BRANCH  16  17
ATOM     17  N   LIG    1       26.332 -13.011   2.988  0.00  0.00    -0.311 NA
ATOM     18  H   LIG    1       25.940 -12.275   3.581  0.00  0.00    +0.122 HD
BRANCH  17  19
ATOM     19  C   LIG    1       27.355 -13.741   3.754  0.00  0.00    +0.048 C 
ATOM     20  C   LIG    1       27.277 -15.256   3.568  0.00  0.00    +0.024 C 
ATOM     21  C   LIG    1       27.204 -13.383   5.233  0.00  0.00    +0.024 C 
ENDBRANCH  17  19
ENDBRANCH  16  17
ENDBRANCH  13  16
ENDBRANCH  12  13
ENDBRANCH   1  12
TORSDOF 10
ENDMDL
MODEL 3
REMARK VINA RESULT:      -4.4      2.541      7.344
REMARK  Name = *****
REMARK                            x       y       z     vdW  Elec       q    Type
REMARK                         _______ _______ _______ _____ _____    ______ ____
ROOT
ATOM      1  O   LIG    1       22.871 -18.033   4.433  0.00  0.00    -0.489 OA
ENDROOT
BRANCH   1   5
ATOM      2  C   LIG    1       25.342 -14.744   3.638  0.00  0.00    -0.045 A 
ATOM      3  C   LIG    1       25.736 -16.060   3.315  0.00  0.00    +0.007 A 
ATOM      4  C   LIG    1       24.878 -17.141   3.565  0.00  0.00    +0.046 A 
ATOM      5  C   LIG    1       23.613 -16.926   4.100  0.00  0.00    +0.121 A 
ATOM      6  C   LIG    1       23.178 -15.607   4.291  0.00  0.00    +0.046 A 
ATOM      7  C   LIG    1       24.034 -14.536   4.054  0.00  0.00    +0.007 A 
BRANCH   2   8
ATOM      8  C   LIG    1       26.334 -13.608   3.537  0.00  0.00    +0.063 C 
BRANCH   8   9
ATOM      9  C   LIG    1       27.795 -14.029   3.754  0.00  0.00    +0.164 C 
BRANCH   9  11
ATOM     10  C   LIG    1       28.759 -12.300   5.038  0.00  0.00    +0.193 C 
ATOM     11  O   LIG    1       28.626 -12.866   3.739  0.00  0.00    -0.383 OA
ENDBRANCH   9  11
ENDBRANCH   8   9
ENDBRANCH   2   8
ENDBRANCH   1   5
BRANCH   1  12
ATOM     12  C   LIG    1       23.499 -19.290   4.156  0.00  0.00    +0.261 C 
BRANCH  12  13
ATOM     13  C   LIG    1       23.179 -20.345   5.209  0.00  0.00    +0.166 C 
BRANCH  13  14
ATOM     14  O   LIG    1       21.977 -21.024   4.819  0.00  0.00    -0.387 OA
ATOM     15  H   LIG    1       21.469 -20.373   4.296  0.00  0.00    +0.210 HD
ENDBRANCH  13  14
BRANCH  13  16
ATOM     16  C   LIG    1       24.329 -21.357   5.365  0.00  0.00    +0.115 C 
BRANCH  16  17
ATOM     17  N   LIG    1       25.645 -20.820   4.964  0.00  0.00    -0.311 NA
ATOM     18  H   LIG    1       25.476 -20.020   4.348  0.00  0.00    +0.122 HD
BRANCH  17  19
ATOM     19  C   LIG    1       26.489 -20.382   6.087  0.00  0.00    +0.048 C 
ATOM     20  C   LIG    1       27.839 -19.820   5.640  0.00  0.00    +0.024 C 
ATOM     21  C   LIG    1       26.697 -21.566   7.030  0.00  0.00    +0.024 C 
ENDBRANCH  17  19
ENDBRANCH  16  17
ENDBRANCH  13  16
ENDBRANCH  12  13
ENDBRANCH   1  12
TORSDOF 10
ENDMDL
MODEL 4
REMARK VINA RESULT:      -4.3      2.747      6.686
REMARK  Name = *****
REMARK                            x       y       z     vdW  Elec       q    Type
REMARK                         _______ _______ _______ _____ _____    ______ ____
ROOT
ATOM      1  O   LIG    1       27.642 -17.838   4.086  0.00  0.00    -0.489 OA
ENDROOT
BRANCH   1   5
ATOM      2  C   LIG    1       26.366 -13.955   3.165  0.00  0.00    -0.045 A 
ATOM      3  C   LIG    1       25.522 -15.073   2.986  0.00  0.00    +0.007 A 
ATOM      4  C   LIG    1       25.964 -16.359   3.330  0.00  0.00    +0.046 A 
ATOM      5  C   LIG    1       27.224 -16.545   3.886  0.00  0.00    +0.121 A 
ATOM      6  C   LIG    1       28.001 -15.417   4.186  0.00  0.00    +0.046 A 
ATOM      7  C   LIG    1       27.567 -14.142   3.834  0.00  0.00    +0.007 A 
BRANCH   2   8
ATOM      8  C   LIG    1       25.958 -12.603   2.628  0.00  0.00    +0.063 C 
BRANCH   8   9
ATOM      9  C   LIG    1       24.508 -12.539   2.121  0.00  0.00    +0.164 C 
BRANCH   9  11
ATOM     10  C   LIG    1       23.827 -11.849   4.272  0.00  0.00    +0.193 C 
ATOM     11  O   LIG    1       23.788 -11.564   2.879  0.00  0.00    -0.383 OA
ENDBRANCH   9  11
ENDBRANCH   8   9
ENDBRANCH   2   8
ENDBRANCH   1   5
BRANCH   1  12
ATOM     12  C   LIG    1       28.597 -18.011   5.139  0.00  0.00    +0.261 C 
BRANCH  12  13
ATOM     13  C   LIG    1       28.622 -19.438   5.675  0.00  0.00    +0.166 C 
BRANCH  13  14
ATOM     14  O   LIG    1       29.322 -19.439   6.928  0.00  0.00    -0.387 OA
ATOM     15  H   LIG    1       28.640 -19.262   7.605  0.00  0.00    +0.210 HD
ENDBRANCH  13  14
BRANCH  13  16
ATOM     16  C   LIG    1       27.201 -19.997   5.864  0.00  0.00    +0.115 C 
BRANCH  16  17
ATOM     17  N   LIG    1       26.533 -20.350   4.595  0.00  0.00    -0.311 NA
ATOM     18  H   LIG    1       26.990 -21.189   4.229  0.00  0.00    +0.122 HD
BRANCH  17  19
ATOM     19  C   LIG    1       25.091 -20.615   4.723  0.00  0.00    +0.048 C 
ATOM     20  C   LIG    1       24.226 -19.613   3.958  0.00  0.00    +0.024 C 
ATOM     21  C   LIG    1       24.723 -20.603   6.207  0.00  0.00    +0.024 C 
ENDBRANCH  17  19
ENDBRANCH  16  17
ENDBRANCH  13  16
ENDBRANCH  12  13
ENDBRANCH   1  12
TORSDOF 10
ENDMDL
MODEL 5
REMARK VINA RESULT:      -4.3      2.641      6.865
REMARK  Name = *****
REMARK                            x       y       z     vdW  Elec       q    Type
REMARK                         _______ _______ _______ _____ _____    ______ ____
ROOT
ATOM      1  O   LIG    1       26.690 -17.172   3.384  0.00  0.00    -0.489 OA
ENDROOT
BRANCH   1   5
ATOM      2  C   LIG    1       25.074 -13.350   2.805  0.00  0.00    -0.045 A 
ATOM      3  C   LIG    1       24.323 -14.389   3.394  0.00  0.00    +0.007 A 
ATOM      4  C   LIG    1       24.897 -15.651   3.603  0.00  0.00    +0.046 A 
ATOM      5  C   LIG    1       26.226 -15.885   3.267  0.00  0.00    +0.121 A 
ATOM      6  C   LIG    1       27.002 -14.811   2.810  0.00  0.00    +0.046 A 
ATOM      7  C   LIG    1       26.429 -13.562   2.591  0.00  0.00    +0.007 A 
BRANCH   2   8
ATOM      8  C   LIG    1       24.403 -12.053   2.417  0.00  0.00    +0.063 C 
BRANCH   8   9
ATOM      9  C   LIG    1       23.518 -11.450   3.519  0.00  0.00    +0.164 C 
BRANCH   9  11
ATOM     10  C   LIG    1       23.263 -11.450   5.864  0.00  0.00    +0.193 C 
ATOM     11  O   LIG    1       24.173 -11.596   4.780  0.00  0.00    -0.383 OA
ENDBRANCH   9  11
ENDBRANCH   8   9
ENDBRANCH   2   8
ENDBRANCH   1   5
BRANCH   1  12
ATOM     12  C   LIG    1       25.693 -18.151   3.694  0.00  0.00    +0.261 C 
BRANCH  12  13
ATOM     13  C   LIG    1       26.297 -19.465   4.178  0.00  0.00    +0.166 C 
BRANCH  13  14
ATOM     14  O   LIG    1       27.538 -19.176   4.839  0.00  0.00    -0.387 OA
ATOM     15  H   LIG    1       27.809 -18.298   4.508  0.00  0.00    +0.210 HD
ENDBRANCH  13  14
BRANCH  13  16
ATOM     16  C   LIG    1       25.348 -20.206   5.137  0.00  0.00    +0.115 C 
BRANCH  16  17
ATOM     17  N   LIG    1       24.226 -20.878   4.453  0.00  0.00    -0.311 NA
ATOM     18  H   LIG    1       24.429 -21.881   4.439  0.00  0.00    +0.122 HD
BRANCH  17  19
ATOM     19  C   LIG    1       22.916 -20.671   5.091  0.00  0.00    +0.048 C 
ATOM     20  C   LIG    1       22.361 -19.262   4.881  0.00  0.00    +0.024 C 
ATOM     21  C   LIG    1       23.050 -20.967   6.585  0.00  0.00    +0.024 C 
ENDBRANCH  17  19
ENDBRANCH  16  17
ENDBRANCH  13  16
ENDBRANCH  12  13
ENDBRANCH   1  12
TORSDOF 10
ENDMDL
MODEL 6
REMARK VINA RESULT:      -4.2      2.492      7.065
REMARK  Name = *****
REMARK                            x       y       z     vdW  Elec       q    Type
REMARK                         _______ _______ _______ _____ _____    ______ ____
ROOT
ATOM      1  O   LIG    1       22.961 -18.889   4.001  0.00  0.00    -0.489 OA
ENDROOT
BRANCH   1   5
ATOM      2  C   LIG    1       24.964 -15.223   3.681  0.00  0.00    -0.045 A 
ATOM      3  C   LIG    1       23.695 -15.321   4.290  0.00  0.00    +0.007 A 
ATOM      4  C   LIG    1       23.059 -16.566   4.410  0.00  0.00    +0.046 A 
ATOM      5  C   LIG    1       23.686 -17.723   3.965  0.00  0.00    +0.121 A 
ATOM      6  C   LIG    1       25.001 -17.634   3.487  0.00  0.00    +0.046 A 
ATOM      7  C   LIG    1       25.627 -16.398   3.356  0.00  0.00    +0.007 A 
BRANCH   2   8
ATOM      8  C   LIG    1       25.564 -13.866   3.391  0.00  0.00    +0.063 C 
BRANCH   8   9
ATOM      9  C   LIG    1       26.858 -13.916   2.563  0.00  0.00    +0.164 C 
BRANCH   9  11
ATOM     10  C   LIG    1       27.664 -13.329   4.701  0.00  0.00    +0.193 C 
ATOM     11  O   LIG    1       27.981 -13.922   3.448  0.00  0.00    -0.383 OA
ENDBRANCH   9  11
ENDBRANCH   8   9
ENDBRANCH   2   8
ENDBRANCH   1   5
BRANCH   1  12
ATOM     12  C   LIG    1       23.732 -20.076   4.220  0.00  0.00    +0.261 C 
BRANCH  12  13
ATOM     13  C   LIG    1       24.106 -20.264   5.686  0.00  0.00    +0.166 C 
BRANCH  13  14
ATOM     14  O   LIG    1       22.939 -20.698   6.400  0.00  0.00    -0.387 OA
ATOM     15  H   LIG    1       23.052 -21.660   6.520  0.00  0.00    +0.210 HD
ENDBRANCH  13  14
BRANCH  13  16
ATOM     16  C   LIG    1       25.240 -21.291   5.855  0.00  0.00    +0.115 C 
BRANCH  16  17
ATOM     17  N   LIG    1       26.530 -20.842   5.296  0.00  0.00    -0.311 NA
ATOM     18  H   LIG    1       26.326 -20.195   4.530  0.00  0.00    +0.122 HD
BRANCH  17  19
ATOM     19  C   LIG    1       27.407 -20.165   6.265  0.00  0.00    +0.048 C 
ATOM     20  C   LIG    1       28.392 -19.196   5.609  0.00  0.00    +0.024 C 
ATOM     21  C   LIG    1       28.164 -21.227   7.062  0.00  0.00    +0.024 C 
ENDBRANCH  17  19
ENDBRANCH  16  17
ENDBRANCH  13  16
ENDBRANCH  12  13
ENDBRANCH   1  12
TORSDOF 10
ENDMDL
MODEL 7
REMARK VINA RESULT:      -4.1      2.771      7.082
REMARK  Name = *****
REMARK                            x       y       z     vdW  Elec       q    Type
REMARK                         _______ _______ _______ _____ _____    ______ ____
ROOT
ATOM      1  O   LIG    1       23.114 -20.356   4.375  0.00  0.00    -0.489 OA
ENDROOT
BRANCH   1   5
ATOM      2  C   LIG    1       23.417 -16.179   4.252  0.00  0.00    -0.045 A 
ATOM      3  C   LIG    1       24.389 -17.008   3.653  0.00  0.00    +0.007 A 
ATOM      4  C   LIG    1       24.248 -18.404   3.684  0.00  0.00    +0.046 A 
ATOM      5  C   LIG    1       23.132 -18.987   4.271  0.00  0.00    +0.121 A 
ATOM      6  C   LIG    1       22.107 -18.153   4.742  0.00  0.00    +0.046 A 
ATOM      7  C   LIG    1       22.252 -16.769   4.722  0.00  0.00    +0.007 A 
BRANCH   2   8
ATOM      8  C   LIG    1       23.660 -14.692   4.377  0.00  0.00    +0.063 C 
BRANCH   8   9
ATOM      9  C   LIG    1       24.551 -14.107   3.270  0.00  0.00    +0.164 C 
BRANCH   9  11
ATOM     10  C   LIG    1       26.435 -13.877   4.671  0.00  0.00    +0.193 C 
ATOM     11  O   LIG    1       25.489 -13.199   3.854  0.00  0.00    -0.383 OA
ENDBRANCH   9  11
ENDBRANCH   8   9
ENDBRANCH   2   8
ENDBRANCH   1   5
BRANCH   1  12
ATOM     12  C   LIG    1       24.367 -20.954   4.725  0.00  0.00    +0.261 C 
BRANCH  12  13
ATOM     13  C   LIG    1       24.680 -20.822   6.211  0.00  0.00    +0.166 C 
BRANCH  13  14
ATOM     14  O   LIG    1       23.590 -21.386   6.955  0.00  0.00    -0.387 OA
ATOM     15  H   LIG    1       23.389 -20.733   7.654  0.00  0.00    +0.210 HD
ENDBRANCH  13  14
BRANCH  13  16
ATOM     16  C   LIG    1       25.994 -21.533   6.580  0.00  0.00    +0.115 C 
BRANCH  16  17
ATOM     17  N   LIG    1       27.051 -20.614   7.047  0.00  0.00    -0.311 NA
ATOM     18  H   LIG    1       27.460 -21.020   7.893  0.00  0.00    +0.122 HD
BRANCH  17  19
ATOM     19  C   LIG    1       28.125 -20.378   6.069  0.00  0.00    +0.048 C 
ATOM     20  C   LIG    1       29.474 -20.071   6.720  0.00  0.00    +0.024 C 
ATOM     21  C   LIG    1       27.706 -19.226   5.155  0.00  0.00    +0.024 C 
ENDBRANCH  17  19
ENDBRANCH  16  17
ENDBRANCH  13  16
ENDBRANCH  12  13
ENDBRANCH   1  12
TORSDOF 10
ENDMDL
MODEL 8
REMARK VINA RESULT:      -4.0      2.149      3.285
REMARK  Name = *****
REMARK                            x       y       z     vdW  Elec       q    Type
REMARK                         _______ _______ _______ _____ _____    ______ ____
ROOT
ATOM      1  O   LIG    1       23.629 -14.612   4.219  0.00  0.00    -0.489 OA
ENDROOT
BRANCH   1   5
ATOM      2  C   LIG    1       23.761 -18.780   3.816  0.00  0.00    -0.045 A 
ATOM      3  C   LIG    1       24.899 -17.978   3.581  0.00  0.00    +0.007 A 
ATOM      4  C   LIG    1       24.835 -16.587   3.752  0.00  0.00    +0.046 A 
ATOM      5  C   LIG    1       23.662 -15.984   4.190  0.00  0.00    +0.121 A 
ATOM      6  C   LIG    1       22.580 -16.801   4.550  0.00  0.00    +0.046 A 
ATOM      7  C   LIG    1       22.640 -18.180   4.370  0.00  0.00    +0.007 A 
BRANCH   2   8
ATOM      8  C   LIG    1       23.781 -20.249   3.459  0.00  0.00    +0.063 C 
BRANCH   8   9
ATOM      9  C   LIG    1       23.646 -21.190   4.666  0.00  0.00    +0.164 C 
BRANCH   9  11
ATOM     10  C   LIG    1       23.719 -20.820   6.994  0.00  0.00    +0.193 C 
ATOM     11  O   LIG    1       24.405 -20.666   5.757  0.00  0.00    -0.383 OA
ENDBRANCH   9  11
ENDBRANCH   8   9
ENDBRANCH   2   8
ENDBRANCH   1   5
BRANCH   1  12
ATOM     12  C   LIG    1       23.749 -13.975   2.942  0.00  0.00    +0.261 C 
BRANCH  12  13
ATOM     13  C   LIG    1       24.261 -12.543   3.052  0.00  0.00    +0.166 C 
BRANCH  13  14
ATOM     14  O   LIG    1       23.926 -12.040   4.353  0.00  0.00    -0.387 OA
ATOM     15  H   LIG    1       22.968 -12.205   4.456  0.00  0.00    +0.210 HD
ENDBRANCH  13  14
BRANCH  13  16
ATOM     16  C   LIG    1       25.782 -12.466   2.832  0.00  0.00    +0.115 C 
BRANCH  16  17
ATOM     17  N   LIG    1       26.450 -13.783   2.866  0.00  0.00    -0.311 NA
ATOM     18  H   LIG    1       26.937 -13.904   1.975  0.00  0.00    +0.122 HD
BRANCH  17  19
ATOM     19  C   LIG    1       27.419 -13.943   3.961  0.00  0.00    +0.048 C 
ATOM     20  C   LIG    1       26.838 -13.597   5.333  0.00  0.00    +0.024 C 
ATOM     21  C   LIG    1       28.636 -13.066   3.667  0.00  0.00    +0.024 C 
ENDBRANCH  17  19
ENDBRANCH  16  17
ENDBRANCH  13  16
ENDBRANCH  12  13
ENDBRANCH   1  12
TORSDOF 10
ENDMDL
MODEL 9
REMARK VINA RESULT:      -3.7      2.684      6.774
REMARK  Name = *****
REMARK                            x       y       z     vdW  Elec       q    Type
REMARK                         _______ _______ _______ _____ _____    ______ ____
ROOT
ATOM      1  O   LIG    1       27.159 -18.595   4.327  0.00  0.00    -0.489 OA
ENDROOT
BRANCH   1   5
ATOM      2  C   LIG    1       26.304 -14.590   3.442  0.00  0.00    -0.045 A 
ATOM      3  C   LIG    1       27.565 -14.984   3.937  0.00  0.00    +0.007 A 
ATOM      4  C   LIG    1       27.835 -16.336   4.198  0.00  0.00    +0.046 A 
ATOM      5  C   LIG    1       26.877 -17.309   3.937  0.00  0.00    +0.121 A 
ATOM      6  C   LIG    1       25.679 -16.923   3.319  0.00  0.00    +0.046 A 
ATOM      7  C   LIG    1       25.406 -15.581   3.071  0.00  0.00    +0.007 A 
BRANCH   2   8
ATOM      8  C   LIG    1       25.956 -13.123   3.334  0.00  0.00    +0.063 C 
BRANCH   8   9
ATOM      9  C   LIG    1       24.786 -12.823   2.384  0.00  0.00    +0.164 C 
BRANCH   9  11
ATOM     10  C   LIG    1       23.951 -12.125   4.477  0.00  0.00    +0.193 C 
ATOM     11  O   LIG    1       23.823 -12.015   3.064  0.00  0.00    -0.383 OA
ENDBRANCH   9  11
ENDBRANCH   8   9
ENDBRANCH   2   8
ENDBRANCH   1   5
BRANCH   1  12
ATOM     12  C   LIG    1       26.050 -19.500   4.280  0.00  0.00    +0.261 C 
BRANCH  12  13
ATOM     13  C   LIG    1       26.233 -20.693   5.211  0.00  0.00    +0.166 C 
BRANCH  13  14
ATOM     14  O   LIG    1       26.583 -20.203   6.513  0.00  0.00    -0.387 OA
ATOM     15  H   LIG    1       26.806 -20.996   7.037  0.00  0.00    +0.210 HD
ENDBRANCH  13  14
BRANCH  13  16
ATOM     16  C   LIG    1       24.955 -21.547   5.295  0.00  0.00    +0.115 C 
BRANCH  16  17
ATOM     17  N   LIG    1       23.851 -21.041   4.454  0.00  0.00    -0.311 NA
ATOM     18  H   LIG    1       23.504 -21.825   3.896  0.00  0.00    +0.122 HD
BRANCH  17  19
ATOM     19  C   LIG    1       22.728 -20.465   5.211  0.00  0.00    +0.048 C 
ATOM     20  C   LIG    1       22.422 -19.018   4.825  0.00  0.00    +0.024 C 
ATOM     21  C   LIG    1       23.048 -20.557   6.703  0.00  0.00    +0.024 C 
ENDBRANCH  17  19
ENDBRANCH  16  17
ENDBRANCH  13  16
ENDBRANCH  12  13
ENDBRANCH   1  12
TORSDOF 10
ENDMDL
