MODEL 1
REMARK VINA RESULT:      -5.7      0.000      0.000
REMARK  Name = *****
REMARK                            x       y       z     vdW  Elec       q    Type
REMARK                         _______ _______ _______ _____ _____    ______ ____
ROOT
ATOM      1  C   LIG    1       24.713 -19.055   3.926  0.00  0.00    +0.143 A 
ATOM      2  C   LIG    1       25.129 -19.887   4.977  0.00  0.00    +0.112 A 
ATOM      3  C   LIG    1       24.120 -20.443   5.794  0.00  0.00    +0.004 A 
ATOM      4  C   LIG    1       24.502 -21.288   6.846  0.00  0.00    +0.012 A 
ATOM      5  C   LIG    1       25.846 -21.563   7.062  0.00  0.00    +0.020 A 
ATOM      6  C   LIG    1       26.767 -20.976   6.220  0.00  0.00    +0.111 A 
ATOM      7  C   LIG    1       22.763 -20.163   5.551  0.00  0.00    +0.010 A 
ATOM      8  C   LIG    1       22.387 -19.337   4.495  0.00  0.00    +0.004 A 
ATOM      9  N   LIG    1       26.438 -20.155   5.201  0.00  0.00    -0.251 NA
ATOM     10  C   LIG    1       23.363 -18.780   3.677  0.00  0.00    +0.048 A 
ENDROOT
BRANCH   1  11
ATOM     11  O   LIG    1       25.664 -18.490   3.106  0.00  0.00    -0.505 OA
ATOM     12  H   LIG    1       25.243 -18.176   2.293  0.00  0.00    +0.292 HD
ENDBRANCH   1  11
TORSDOF 1
ENDMDL
MODEL 2
REMARK VINA RESULT:      -5.5      0.866      1.073
REMARK  Name = *****
REMARK                            x       y       z     vdW  Elec       q    Type
REMARK                         _______ _______ _______ _____ _____    ______ ____
ROOT
ATOM      1  C   LIG    1       25.241 -19.289   3.973  0.00  0.00    +0.143 A 
ATOM      2  C   LIG    1       25.944 -19.927   5.006  0.00  0.00    +0.112 A 
ATOM      3  C   LIG    1       25.200 -20.759   5.872  0.00  0.00    +0.004 A 
ATOM      4  C   LIG    1       25.874 -21.421   6.908  0.00  0.00    +0.012 A 
ATOM      5  C   LIG    1       27.244 -21.252   7.061  0.00  0.00    +0.020 A 
ATOM      6  C   LIG    1       27.895 -20.420   6.175  0.00  0.00    +0.111 A 
ATOM      7  C   LIG    1       23.814 -20.927   5.691  0.00  0.00    +0.010 A 
ATOM      8  C   LIG    1       23.151 -20.282   4.650  0.00  0.00    +0.004 A 
ATOM      9  N   LIG    1       27.279 -19.763   5.170  0.00  0.00    -0.251 NA
ATOM     10  C   LIG    1       23.864 -19.459   3.786  0.00  0.00    +0.048 A 
ENDROOT
BRANCH   1  11
ATOM     11  O   LIG    1       25.927 -18.467   3.108  0.00  0.00    -0.505 OA
ATOM     12  H   LIG    1       26.257 -18.988   2.361  0.00  0.00    +0.292 HD
ENDBRANCH   1  11
TORSDOF 1
ENDMDL
MODEL 3
REMARK VINA RESULT:      -5.4      1.517      3.093
REMARK  Name = *****
REMARK                            x       y       z     vdW  Elec       q    Type
REMARK                         _______ _______ _______ _____ _____    ______ ____
ROOT
ATOM      1  C   LIG    1       25.971 -19.731   4.575  0.00  0.00    +0.143 A 
ATOM      2  C   LIG    1       24.861 -20.348   5.171  0.00  0.00    +0.112 A 
ATOM      3  C   LIG    1       25.061 -20.950   6.433  0.00  0.00    +0.004 A 
ATOM      4  C   LIG    1       23.970 -21.566   7.062  0.00  0.00    +0.012 A 
ATOM      5  C   LIG    1       22.726 -21.570   6.444  0.00  0.00    +0.020 A 
ATOM      6  C   LIG    1       22.617 -20.962   5.210  0.00  0.00    +0.111 A 
ATOM      7  C   LIG    1       26.326 -20.924   7.049  0.00  0.00    +0.010 A 
ATOM      8  C   LIG    1       27.404 -20.297   6.429  0.00  0.00    +0.004 A 
ATOM      9  N   LIG    1       23.645 -20.365   4.574  0.00  0.00    -0.251 NA
ATOM     10  C   LIG    1       27.229 -19.697   5.187  0.00  0.00    +0.048 A 
ENDROOT
BRANCH   1  11
ATOM     11  O   LIG    1       25.821 -19.134   3.343  0.00  0.00    -0.505 OA
ATOM     12  H   LIG    1       26.409 -19.562   2.704  0.00  0.00    +0.292 HD
ENDBRANCH   1  11
TORSDOF 1
ENDMDL
MODEL 4
REMARK VINA RESULT:      -5.3      1.987      2.735
REMARK  Name = *****
REMARK                            x       y       z     vdW  Elec       q    Type
REMARK                         _______ _______ _______ _____ _____    ______ ____
ROOT
ATOM      1  C   LIG    1       23.736 -20.618   5.940  0.00  0.00    +0.143 A 
ATOM      2  C   LIG    1       25.130 -20.461   5.983  0.00  0.00    +0.112 A 
ATOM      3  C   LIG    1       25.747 -19.886   4.850  0.00  0.00    +0.004 A 
ATOM      4  C   LIG    1       27.138 -19.705   4.865  0.00  0.00    +0.012 A 
ATOM      5  C   LIG    1       27.874 -20.084   5.980  0.00  0.00    +0.020 A 
ATOM      6  C   LIG    1       27.193 -20.640   7.043  0.00  0.00    +0.111 A 
ATOM      7  C   LIG    1       24.983 -19.496   3.735  0.00  0.00    +0.010 A 
ATOM      8  C   LIG    1       23.600 -19.663   3.731  0.00  0.00    +0.004 A 
ATOM      9  N   LIG    1       25.859 -20.835   7.062  0.00  0.00    -0.251 NA
ATOM     10  C   LIG    1       22.972 -20.225   4.836  0.00  0.00    +0.048 A 
ENDROOT
BRANCH   1  11
ATOM     11  O   LIG    1       23.094 -21.176   7.022  0.00  0.00    -0.505 OA
ATOM     12  H   LIG    1       23.748 -21.419   7.694  0.00  0.00    +0.292 HD
ENDBRANCH   1  11
TORSDOF 1
ENDMDL
MODEL 5
REMARK VINA RESULT:      -5.1      1.568      2.444
REMARK  Name = *****
REMARK                            x       y       z     vdW  Elec       q    Type
REMARK                         _______ _______ _______ _____ _____    ______ ____
ROOT
ATOM      1  C   LIG    1       26.231 -19.779   4.784  0.00  0.00    +0.143 A 
ATOM      2  C   LIG    1       25.092 -20.290   5.424  0.00  0.00    +0.112 A 
ATOM      3  C   LIG    1       23.836 -19.926   4.890  0.00  0.00    +0.004 A 
ATOM      4  C   LIG    1       22.678 -20.429   5.499  0.00  0.00    +0.012 A 
ATOM      5  C   LIG    1       22.783 -21.268   6.601  0.00  0.00    +0.020 A 
ATOM      6  C   LIG    1       24.047 -21.572   7.062  0.00  0.00    +0.111 A 
ATOM      7  C   LIG    1       23.751 -19.085   3.765  0.00  0.00    +0.010 A 
ATOM      8  C   LIG    1       24.905 -18.601   3.152  0.00  0.00    +0.004 A 
ATOM      9  N   LIG    1       25.182 -21.103   6.504  0.00  0.00    -0.251 NA
ATOM     10  C   LIG    1       26.151 -18.948   3.661  0.00  0.00    +0.048 A 
ENDROOT
BRANCH   1  11
ATOM     11  O   LIG    1       27.475 -20.108   5.274  0.00  0.00    -0.505 OA
ATOM     12  H   LIG    1       27.427 -20.208   6.236  0.00  0.00    +0.292 HD
ENDBRANCH   1  11
TORSDOF 1
ENDMDL
MODEL 6
REMARK VINA RESULT:      -5.0      1.207      3.319
REMARK  Name = *****
REMARK                            x       y       z     vdW  Elec       q    Type
REMARK                         _______ _______ _______ _____ _____    ______ ____
ROOT
ATOM      1  C   LIG    1       26.538 -19.925   5.223  0.00  0.00    +0.143 A 
ATOM      2  C   LIG    1       25.145 -19.981   5.063  0.00  0.00    +0.112 A 
ATOM      3  C   LIG    1       24.431 -20.824   5.943  0.00  0.00    +0.004 A 
ATOM      4  C   LIG    1       23.036 -20.895   5.818  0.00  0.00    +0.012 A 
ATOM      5  C   LIG    1       22.389 -20.143   4.847  0.00  0.00    +0.020 A 
ATOM      6  C   LIG    1       23.161 -19.347   4.026  0.00  0.00    +0.111 A 
ATOM      7  C   LIG    1       25.104 -21.568   6.929  0.00  0.00    +0.010 A 
ATOM      8  C   LIG    1       26.488 -21.482   7.061  0.00  0.00    +0.004 A 
ATOM      9  N   LIG    1       24.504 -19.258   4.114  0.00  0.00    -0.251 NA
ATOM     10  C   LIG    1       27.210 -20.658   6.207  0.00  0.00    +0.048 A 
ENDROOT
BRANCH   1  11
ATOM     11  O   LIG    1       27.273 -19.117   4.384  0.00  0.00    -0.505 OA
ATOM     12  H   LIG    1       28.163 -19.001   4.747  0.00  0.00    +0.292 HD
ENDBRANCH   1  11
TORSDOF 1
ENDMDL
MODEL 7
REMARK VINA RESULT:      -5.0      1.492      3.564
REMARK  Name = *****
REMARK                            x       y       z     vdW  Elec       q    Type
REMARK                         _______ _______ _______ _____ _____    ______ ____
ROOT
ATOM      1  C   LIG    1       27.473 -19.690   5.405  0.00  0.00    +0.143 A 
ATOM      2  C   LIG    1       26.158 -19.819   4.936  0.00  0.00    +0.112 A 
ATOM      3  C   LIG    1       25.341 -20.783   5.567  0.00  0.00    +0.004 A 
ATOM      4  C   LIG    1       24.017 -20.929   5.129  0.00  0.00    +0.012 A 
ATOM      5  C   LIG    1       23.536 -20.132   4.098  0.00  0.00    +0.020 A 
ATOM      6  C   LIG    1       24.401 -19.217   3.534  0.00  0.00    +0.111 A 
ATOM      7  C   LIG    1       25.843 -21.572   6.618  0.00  0.00    +0.010 A 
ATOM      8  C   LIG    1       27.153 -21.412   7.062  0.00  0.00    +0.004 A 
ATOM      9  N   LIG    1       25.681 -19.052   3.925  0.00  0.00    -0.251 NA
ATOM     10  C   LIG    1       27.974 -20.468   6.455  0.00  0.00    +0.048 A 
ENDROOT
BRANCH   1  11
ATOM     11  O   LIG    1       28.305 -18.764   4.816  0.00  0.00    -0.505 OA
ATOM     12  H   LIG    1       27.798 -17.967   4.602  0.00  0.00    +0.292 HD
ENDBRANCH   1  11
TORSDOF 1
ENDMDL
MODEL 8
REMARK VINA RESULT:      -4.7      6.920      8.117
REMARK  Name = *****
REMARK                            x       y       z     vdW  Elec       q    Type
REMARK                         _______ _______ _______ _____ _____    ______ ____
ROOT
ATOM      1  C   LIG    1       26.640 -13.672   4.946  0.00  0.00    +0.143 A 
ATOM      2  C   LIG    1       25.584 -12.905   4.431  0.00  0.00    +0.112 A 
ATOM      3  C   LIG    1       25.371 -12.960   3.035  0.00  0.00    +0.004 A 
ATOM      4  C   LIG    1       24.317 -12.214   2.490  0.00  0.00    +0.012 A 
ATOM      5  C   LIG    1       23.508 -11.447   3.319  0.00  0.00    +0.020 A 
ATOM      6  C   LIG    1       23.787 -11.447   4.670  0.00  0.00    +0.111 A 
ATOM      7  C   LIG    1       26.193 -13.753   2.214  0.00  0.00    +0.010 A 
ATOM      8  C   LIG    1       27.229 -14.506   2.762  0.00  0.00    +0.004 A 
ATOM      9  N   LIG    1       24.794 -12.148   5.229  0.00  0.00    -0.251 NA
ATOM     10  C   LIG    1       27.455 -14.468   4.133  0.00  0.00    +0.048 A 
ENDROOT
BRANCH   1  11
ATOM     11  O   LIG    1       26.884 -13.646   6.301  0.00  0.00    -0.505 OA
ATOM     12  H   LIG    1       26.121 -13.265   6.759  0.00  0.00    +0.292 HD
ENDBRANCH   1  11
TORSDOF 1
ENDMDL
MODEL 9
REMARK VINA RESULT:      -4.4      6.824      7.614
REMARK  Name = *****
REMARK                            x       y       z     vdW  Elec       q    Type
REMARK                         _______ _______ _______ _____ _____    ______ ____
ROOT
ATOM      1  C   LIG    1       24.352 -11.994   4.401  0.00  0.00    +0.143 A 
ATOM      2  C   LIG    1       25.407 -12.903   4.225  0.00  0.00    +0.112 A 
ATOM      3  C   LIG    1       25.722 -13.273   2.899  0.00  0.00    +0.004 A 
ATOM      4  C   LIG    1       26.778 -14.171   2.687  0.00  0.00    +0.012 A 
ATOM      5  C   LIG    1       27.489 -14.672   3.770  0.00  0.00    +0.020 A 
ATOM      6  C   LIG    1       27.114 -14.262   5.033  0.00  0.00    +0.111 A 
ATOM      7  C   LIG    1       24.998 -12.744   1.814  0.00  0.00    +0.010 A 
ATOM      8  C   LIG    1       23.961 -11.840   2.028  0.00  0.00    +0.004 A 
ATOM      9  N   LIG    1       26.102 -13.405   5.275  0.00  0.00    -0.251 NA
ATOM     10  C   LIG    1       23.635 -11.461   3.325  0.00  0.00    +0.048 A 
ENDROOT
BRANCH   1  11
ATOM     11  O   LIG    1       24.010 -11.609   5.678  0.00  0.00    -0.505 OA
ATOM     12  H   LIG    1       23.854 -10.654   5.695  0.00  0.00    +0.292 HD
ENDBRANCH   1  11
TORSDOF 1
ENDMDL
