MODEL 1
REMARK VINA RESULT:      -0.6      0.000      0.000
REMARK  Name = *****
REMARK                            x       y       z     vdW  Elec       q    Type
REMARK                         _______ _______ _______ _____ _____    ______ ____
ROOT
ATOM      1  C   LIG    1       24.748 -14.160   4.269  0.00  0.00    +0.006 C 
ATOM      2  C   LIG    1       23.580 -15.038   3.834  0.00  0.00    +0.107 C 
ATOM      3  S   LIG    1       23.869 -16.817   4.040  0.00  0.00    -0.131 S 
ATOM      4  C   LIG    1       25.460 -16.757   3.197  0.00  0.00    +0.169 C 
ATOM      5  N   LIG    1       26.345 -15.872   3.932  0.00  0.00    -0.249 N 
ATOM      6  C   LIG    1       27.377 -16.734   3.985  0.00  0.00    +0.244 C 
ATOM      7  O   LIG    1       28.505 -16.570   4.419  0.00  0.00    -0.273 OA
ATOM      8  CA  LIG    1       26.471 -17.910   3.501  0.00  0.00    +0.191 C 
ATOM      9  CA  LIG    1       26.044 -14.588   4.317  0.00  0.00    +0.125 C 
ENDROOT
BRANCH   8  10
ATOM     10  N   LIG    1       26.108 -18.922   4.547  0.00  0.00    -0.301 N 
ATOM     11  H   LIG    1       25.159 -18.950   4.915  0.00  0.00    +0.149 HD
ATOM     12  C   LIG    1       27.074 -19.671   5.192  0.00  0.00    +0.218 C 
ATOM     13  O   LIG    1       28.271 -19.560   4.933  0.00  0.00    -0.275 OA
BRANCH  12  14
ATOM     14  C   LIG    1       26.567 -20.716   6.172  0.00  0.00    +0.138 C 
BRANCH  14  15
ATOM     15  C   LIG    1       25.091 -20.906   6.023  0.00  0.00    -0.002 A 
ATOM     16  S   LIG    1       24.434 -21.431   4.531  0.00  0.00    -0.101 S 
ATOM     17  C   LIG    1       22.841 -21.379   5.146  0.00  0.00    +0.045 A 
ATOM     18  C   LIG    1       22.807 -20.977   6.462  0.00  0.00    +0.008 A 
ATOM     19  C   LIG    1       24.109 -20.712   6.973  0.00  0.00    +0.012 A 
ENDBRANCH  14  15
ENDBRANCH  12  14
ENDBRANCH   8  10
BRANCH   9  20
ATOM     20  C   LIG    1       27.149 -13.678   4.830  0.00  0.00    +0.351 C 
ATOM     21  O   LIG    1       28.044 -13.238   4.124  0.00  0.00    -0.244 OA
BRANCH  20  22
ATOM     22  OXT LIG    1       27.124 -13.346   6.132  0.00  0.00    -0.476 OA
ATOM     23  HXT LIG    1       26.724 -12.485   6.392  0.00  0.00    +0.295 HD
ENDBRANCH  20  22
ENDBRANCH   9  20
BRANCH   1  24
ATOM     24  C   LIG    1       24.218 -12.799   4.726  0.00  0.00    +0.266 C 
BRANCH  24  25
ATOM     25  O   LIG    1       24.733 -11.764   3.864  0.00  0.00    -0.460 OA
BRANCH  25  27
ATOM     26  C   LIG    1       25.494 -12.636   1.819  0.00  0.00    +0.136 C 
ATOM     27  C   LIG    1       24.427 -11.870   2.540  0.00  0.00    +0.304 C 
ATOM     28  O   LIG    1       23.412 -11.447   2.004  0.00  0.00    -0.251 OA
ENDBRANCH  25  27
ENDBRANCH  24  25
ENDBRANCH   1  24
TORSDOF 8
ENDMDL
