MODEL 1
REMARK VINA RESULT:      -3.6      0.000      0.000
REMARK  Name = *****
REMARK                            x       y       z     vdW  Elec       q    Type
REMARK                         _______ _______ _______ _____ _____    ______ ____
ROOT
ATOM      1  C   LIG    1       24.764 -19.664   3.493  0.00  0.00    +0.049 C 
ATOM      2  C   LIG    1       26.019 -19.586   4.319  0.00  0.00    +0.013 A 
ATOM      3  C   LIG    1       26.915 -18.507   4.234  0.00  0.00    +0.060 A 
ATOM      4  N   LIG    1       28.033 -18.445   5.004  0.00  0.00    -0.259 NA
ATOM      5  C   LIG    1       28.281 -19.453   5.863  0.00  0.00    +0.114 A 
ATOM      6  C   LIG    1       27.436 -20.528   6.048  0.00  0.00    +0.065 A 
ATOM      7  C   LIG    1       26.271 -20.577   5.290  0.00  0.00    +0.127 A 
ENDROOT
BRANCH   3   8
ATOM      8  C   LIG    1       26.674 -17.294   3.361  0.00  0.00    +0.167 C 
BRANCH   8   9
ATOM      9  S   LIG    1       27.883 -15.955   3.609  0.00  0.00    +0.095 S 
ATOM     10  O   LIG    1       28.305 -15.921   5.050  0.00  0.00    -0.249 OA
BRANCH   9  11
ATOM     11  C   LIG    1       26.745 -14.647   3.449  0.00  0.00    +0.198 A 
ATOM     12  N   LIG    1       26.054 -14.104   4.506  0.00  0.00    -0.331 N 
ATOM     13  H   LIG    1       26.135 -14.415   5.460  0.00  0.00    +0.168 HD
ATOM     14  C   LIG    1       25.190 -13.162   4.005  0.00  0.00    +0.067 A 
ATOM     15  C   LIG    1       25.458 -13.142   2.640  0.00  0.00    +0.090 A 
ATOM     16  C   LIG    1       24.744 -12.262   1.812  0.00  0.00    +0.030 A 
ATOM     17  C   LIG    1       23.759 -11.447   2.383  0.00  0.00    +0.002 A 
ATOM     18  C   LIG    1       23.502 -11.493   3.756  0.00  0.00    +0.002 A 
ATOM     19  C   LIG    1       24.218 -12.349   4.604  0.00  0.00    +0.028 A 
ATOM     20  N   LIG    1       26.420 -14.072   2.312  0.00  0.00    -0.220 NA
ENDBRANCH   9  11
ENDBRANCH   8   9
ENDBRANCH   3   8
BRANCH   7  21
ATOM     21  O   LIG    1       25.332 -21.570   5.418  0.00  0.00    -0.483 OA
BRANCH  21  22
ATOM     22  C   LIG    1       24.439 -21.462   6.539  0.00  0.00    +0.342 C 
BRANCH  22  23
ATOM     23  C   LIG    1       23.031 -21.048   6.112  0.00  0.00    +0.424 C 
ATOM     24  F   LIG    1       22.897 -19.700   6.164  0.00  0.00    -0.167 F 
ATOM     25  F   LIG    1       22.100 -21.572   6.942  0.00  0.00    -0.167 F 
ATOM     26  F   LIG    1       22.721 -21.435   4.856  0.00  0.00    -0.167 F 
ENDBRANCH  22  23
ENDBRANCH  21  22
ENDBRANCH   7  21
TORSDOF 6
ENDMDL
MODEL 2
REMARK VINA RESULT:      -3.0      3.241      7.017
REMARK  Name = *****
REMARK                            x       y       z     vdW  Elec       q    Type
REMARK                         _______ _______ _______ _____ _____    ______ ____
ROOT
ATOM      1  C   LIG    1       25.701 -17.682   3.088  0.00  0.00    +0.049 C 
ATOM      2  C   LIG    1       26.704 -16.744   3.700  0.00  0.00    +0.013 A 
ATOM      3  C   LIG    1       27.872 -17.195   4.337  0.00  0.00    +0.060 A 
ATOM      4  N   LIG    1       28.777 -16.329   4.865  0.00  0.00    -0.259 NA
ATOM      5  C   LIG    1       28.534 -15.007   4.774  0.00  0.00    +0.114 A 
ATOM      6  C   LIG    1       27.440 -14.472   4.126  0.00  0.00    +0.065 A 
ATOM      7  C   LIG    1       26.530 -15.353   3.551  0.00  0.00    +0.127 A 
ENDROOT
BRANCH   3   8
ATOM      8  C   LIG    1       28.266 -18.654   4.410  0.00  0.00    +0.167 C 
BRANCH   8   9
ATOM      9  S   LIG    1       28.203 -19.351   6.092  0.00  0.00    +0.095 S 
ATOM     10  O   LIG    1       29.104 -20.549   6.173  0.00  0.00    -0.249 OA
BRANCH   9  11
ATOM     11  C   LIG    1       26.597 -20.011   5.958  0.00  0.00    +0.198 A 
ATOM     12  N   LIG    1       25.916 -20.123   4.770  0.00  0.00    -0.331 N 
ATOM     13  H   LIG    1       26.277 -19.830   3.876  0.00  0.00    +0.168 HD
ATOM     14  C   LIG    1       24.659 -20.600   5.047  0.00  0.00    +0.067 A 
ATOM     15  C   LIG    1       24.670 -20.815   6.422  0.00  0.00    +0.090 A 
ATOM     16  C   LIG    1       23.521 -21.322   7.048  0.00  0.00    +0.030 A 
ATOM     17  C   LIG    1       22.383 -21.572   6.271  0.00  0.00    +0.002 A 
ATOM     18  C   LIG    1       22.394 -21.338   4.893  0.00  0.00    +0.002 A 
ATOM     19  C   LIG    1       23.538 -20.852   4.245  0.00  0.00    +0.028 A 
ATOM     20  N   LIG    1       25.877 -20.439   6.971  0.00  0.00    -0.220 NA
ENDBRANCH   9  11
ENDBRANCH   8   9
ENDBRANCH   3   8
BRANCH   7  21
ATOM     21  O   LIG    1       25.429 -14.939   2.842  0.00  0.00    -0.483 OA
BRANCH  21  22
ATOM     22  C   LIG    1       25.168 -13.525   2.837  0.00  0.00    +0.342 C 
BRANCH  22  23
ATOM     23  C   LIG    1       24.247 -13.110   3.984  0.00  0.00    +0.424 C 
ATOM     24  F   LIG    1       24.973 -12.673   5.042  0.00  0.00    -0.167 F 
ATOM     25  F   LIG    1       23.509 -14.159   4.416  0.00  0.00    -0.167 F 
ATOM     26  F   LIG    1       23.392 -12.121   3.648  0.00  0.00    -0.167 F 
ENDBRANCH  22  23
ENDBRANCH  21  22
ENDBRANCH   7  21
TORSDOF 6
ENDMDL
MODEL 3
REMARK VINA RESULT:      -1.4      3.181      3.952
REMARK  Name = *****
REMARK                            x       y       z     vdW  Elec       q    Type
REMARK                         _______ _______ _______ _____ _____    ______ ____
ROOT
ATOM      1  C   LIG    1       23.083 -20.118   6.285  0.00  0.00    +0.049 C 
ATOM      2  C   LIG    1       23.950 -19.795   5.100  0.00  0.00    +0.013 A 
ATOM      3  C   LIG    1       23.576 -18.858   4.122  0.00  0.00    +0.060 A 
ATOM      4  N   LIG    1       24.384 -18.564   3.069  0.00  0.00    -0.259 NA
ATOM      5  C   LIG    1       25.569 -19.197   2.969  0.00  0.00    +0.114 A 
ATOM      6  C   LIG    1       26.040 -20.095   3.904  0.00  0.00    +0.065 A 
ATOM      7  C   LIG    1       25.233 -20.371   5.003  0.00  0.00    +0.127 A 
ENDROOT
BRANCH   3   8
ATOM      8  C   LIG    1       22.305 -18.040   4.199  0.00  0.00    +0.167 C 
BRANCH   8   9
ATOM      9  S   LIG    1       22.361 -16.705   5.437  0.00  0.00    +0.095 S 
ATOM     10  O   LIG    1       21.025 -16.024   5.501  0.00  0.00    -0.249 OA
BRANCH   9  11
ATOM     11  C   LIG    1       23.363 -15.629   4.502  0.00  0.00    +0.198 A 
ATOM     12  N   LIG    1       24.645 -15.931   4.109  0.00  0.00    -0.331 N 
ATOM     13  H   LIG    1       25.122 -16.791   4.329  0.00  0.00    +0.168 HD
ATOM     14  C   LIG    1       25.160 -14.830   3.470  0.00  0.00    +0.067 A 
ATOM     15  C   LIG    1       24.109 -13.918   3.458  0.00  0.00    +0.090 A 
ATOM     16  C   LIG    1       24.294 -12.664   2.858  0.00  0.00    +0.030 A 
ATOM     17  C   LIG    1       25.546 -12.355   2.311  0.00  0.00    +0.002 A 
ATOM     18  C   LIG    1       26.589 -13.284   2.345  0.00  0.00    +0.002 A 
ATOM     19  C   LIG    1       26.418 -14.551   2.921  0.00  0.00    +0.028 A 
ATOM     20  N   LIG    1       23.005 -14.428   4.107  0.00  0.00    -0.220 NA
ENDBRANCH   9  11
ENDBRANCH   8   9
ENDBRANCH   3   8
BRANCH   7  21
ATOM     21  O   LIG    1       25.613 -21.211   6.022  0.00  0.00    -0.483 OA
BRANCH  21  22
ATOM     22  C   LIG    1       26.459 -20.641   7.035  0.00  0.00    +0.342 C 
BRANCH  22  23
ATOM     23  C   LIG    1       27.910 -20.527   6.570  0.00  0.00    +0.424 C 
ATOM     24  F   LIG    1       28.640 -21.572   7.030  0.00  0.00    -0.167 F 
ATOM     25  F   LIG    1       28.485 -19.400   7.051  0.00  0.00    -0.167 F 
ATOM     26  F   LIG    1       28.038 -20.508   5.226  0.00  0.00    -0.167 F 
ENDBRANCH  22  23
ENDBRANCH  21  22
ENDBRANCH   7  21
TORSDOF 6
ENDMDL
