MODEL 1
REMARK VINA RESULT:      -6.9      0.000      0.000
REMARK  Name = *****
REMARK                            x       y       z     vdW  Elec       q    Type
REMARK                         _______ _______ _______ _____ _____    ______ ____
ROOT
ATOM      1  C   LIG    1       24.580 -21.610   6.721  0.00  0.00    +0.131 C 
ATOM      2  C   LIG    1       25.367 -20.804   7.733  0.00  0.00    +0.234 C 
ATOM      3  O   LIG    1       24.951 -20.524   8.856  0.00  0.00    -0.274 OA
ATOM      4  N   LIG    1       26.606 -20.397   7.356  0.00  0.00    -0.266 N 
ATOM      5  H   LIG    1       27.151 -19.878   8.032  0.00  0.00    +0.157 HD
ATOM      6  C   LIG    1       26.993 -20.385   6.066  0.00  0.00    +0.150 C 
ATOM      7  N   LIG    1       26.341 -20.868   5.079  0.00  0.00    -0.158 NA
ATOM      8  C   LIG    1       25.138 -21.490   5.297  0.00  0.00    +0.254 C 
ATOM      9  O   LIG    1       24.538 -22.012   4.356  0.00  0.00    -0.273 OA
ENDROOT
BRANCH   6  10
ATOM     10  S   LIG    1       28.526 -19.621   5.822  0.00  0.00    -0.110 S 
ATOM     11  H   LIG    1       28.242 -18.537   6.559  0.00  0.00    +0.110 HD
ENDBRANCH   6  10
BRANCH   1  12
ATOM     12  C   LIG    1       24.624 -23.151   7.092  0.00  0.00    +0.010 C 
ATOM     13  C   LIG    1       23.317 -23.868   6.701  0.00  0.00    +0.009 C 
BRANCH  12  14
ATOM     14  C   LIG    1       25.862 -23.923   6.551  0.00  0.00    +0.004 C 
BRANCH  14  15
ATOM     15  C   LIG    1       25.499 -25.187   5.751  0.00  0.00    -0.003 C 
ATOM     16  C   LIG    1       26.406 -26.369   6.067  0.00  0.00    +0.004 C 
ENDBRANCH  14  15
ENDBRANCH  12  14
ENDBRANCH   1  12
BRANCH   1  17
ATOM     17  C   LIG    1       23.128 -21.057   6.683  0.00  0.00    +0.052 C 
BRANCH  17  19
ATOM     18  C   LIG    1       22.215 -19.544   4.886  0.00  0.00    +0.004 C 
ATOM     19  C   LIG    1       22.989 -19.734   5.962  0.00  0.00    -0.033 C 
ENDBRANCH  17  19
ENDBRANCH   1  17
TORSDOF 6
ENDMDL
MODEL 2
REMARK VINA RESULT:      -6.9      2.537      4.170
REMARK  Name = *****
REMARK                            x       y       z     vdW  Elec       q    Type
REMARK                         _______ _______ _______ _____ _____    ______ ____
ROOT
ATOM      1  C   LIG    1       23.829 -21.459   5.852  0.00  0.00    +0.131 C 
ATOM      2  C   LIG    1       24.375 -22.173   4.632  0.00  0.00    +0.234 C 
ATOM      3  O   LIG    1       24.449 -21.661   3.517  0.00  0.00    -0.274 OA
ATOM      4  N   LIG    1       24.815 -23.444   4.818  0.00  0.00    -0.266 N 
ATOM      5  H   LIG    1       25.203 -23.923   4.016  0.00  0.00    +0.157 HD
ATOM      6  C   LIG    1       24.478 -24.167   5.903  0.00  0.00    +0.150 C 
ATOM      7  N   LIG    1       23.852 -23.736   6.931  0.00  0.00    -0.158 NA
ATOM      8  C   LIG    1       23.485 -22.416   7.000  0.00  0.00    +0.254 C 
ATOM      9  O   LIG    1       22.939 -21.984   8.017  0.00  0.00    -0.273 OA
ENDROOT
BRANCH   6  10
ATOM     10  S   LIG    1       24.978 -25.820   5.803  0.00  0.00    -0.110 S 
ATOM     11  H   LIG    1       25.704 -25.662   4.686  0.00  0.00    +0.110 HD
ENDBRANCH   6  10
BRANCH   1  12
ATOM     12  C   LIG    1       24.905 -20.443   6.421  0.00  0.00    +0.010 C 
ATOM     13  C   LIG    1       25.278 -20.767   7.881  0.00  0.00    +0.009 C 
BRANCH  12  14
ATOM     14  C   LIG    1       26.182 -20.279   5.547  0.00  0.00    +0.004 C 
BRANCH  14  15
ATOM     15  C   LIG    1       27.493 -20.377   6.347  0.00  0.00    -0.003 C 
ATOM     16  C   LIG    1       28.597 -19.491   5.784  0.00  0.00    +0.004 C 
ENDBRANCH  14  15
ENDBRANCH  12  14
ENDBRANCH   1  12
BRANCH   1  17
ATOM     17  C   LIG    1       22.507 -20.749   5.447  0.00  0.00    +0.052 C 
BRANCH  17  19
ATOM     18  C   LIG    1       22.202 -18.519   4.313  0.00  0.00    +0.004 C 
ATOM     19  C   LIG    1       22.616 -19.242   5.361  0.00  0.00    -0.033 C 
ENDBRANCH  17  19
ENDBRANCH   1  17
TORSDOF 6
ENDMDL
MODEL 3
REMARK VINA RESULT:      -6.5      1.251      1.648
REMARK  Name = *****
REMARK                            x       y       z     vdW  Elec       q    Type
REMARK                         _______ _______ _______ _____ _____    ______ ____
ROOT
ATOM      1  C   LIG    1       25.368 -20.979   6.841  0.00  0.00    +0.131 C 
ATOM      2  C   LIG    1       26.175 -20.690   8.090  0.00  0.00    +0.234 C 
ATOM      3  O   LIG    1       25.715 -20.748   9.229  0.00  0.00    -0.274 OA
ATOM      4  N   LIG    1       27.481 -20.369   7.910  0.00  0.00    -0.266 N 
ATOM      5  H   LIG    1       28.037 -20.197   8.737  0.00  0.00    +0.157 HD
ATOM      6  C   LIG    1       27.963 -19.978   6.714  0.00  0.00    +0.150 C 
ATOM      7  N   LIG    1       27.330 -19.995   5.604  0.00  0.00    -0.158 NA
ATOM      8  C   LIG    1       26.043 -20.467   5.562  0.00  0.00    +0.254 C 
ATOM      9  O   LIG    1       25.453 -20.544   4.483  0.00  0.00    -0.273 OA
ENDROOT
BRANCH   6  10
ATOM     10  S   LIG    1       29.597 -19.415   6.790  0.00  0.00    -0.110 S 
ATOM     11  H   LIG    1       29.977 -19.982   5.635  0.00  0.00    +0.110 HD
ENDBRANCH   6  10
BRANCH   1  12
ATOM     12  C   LIG    1       25.182 -22.542   6.657  0.00  0.00    +0.010 C 
ATOM     13  C   LIG    1       26.454 -23.318   7.055  0.00  0.00    +0.009 C 
BRANCH  12  14
ATOM     14  C   LIG    1       23.927 -23.143   7.353  0.00  0.00    +0.004 C 
BRANCH  14  15
ATOM     15  C   LIG    1       23.182 -24.181   6.495  0.00  0.00    -0.003 C 
ATOM     16  C   LIG    1       24.017 -25.422   6.211  0.00  0.00    +0.004 C 
ENDBRANCH  14  15
ENDBRANCH  12  14
ENDBRANCH   1  12
BRANCH   1  17
ATOM     17  C   LIG    1       24.008 -20.235   6.960  0.00  0.00    +0.052 C 
BRANCH  17  19
ATOM     18  C   LIG    1       22.420 -19.433   5.174  0.00  0.00    +0.004 C 
ATOM     19  C   LIG    1       23.093 -20.426   5.770  0.00  0.00    -0.033 C 
ENDBRANCH  17  19
ENDBRANCH   1  17
TORSDOF 6
ENDMDL
MODEL 4
REMARK VINA RESULT:      -6.4      2.605      4.524
REMARK  Name = *****
REMARK                            x       y       z     vdW  Elec       q    Type
REMARK                         _______ _______ _______ _____ _____    ______ ____
ROOT
ATOM      1  C   LIG    1       23.971 -21.380   5.610  0.00  0.00    +0.131 C 
ATOM      2  C   LIG    1       24.326 -22.327   4.482  0.00  0.00    +0.234 C 
ATOM      3  O   LIG    1       24.160 -22.064   3.292  0.00  0.00    -0.274 OA
ATOM      4  N   LIG    1       24.875 -23.517   4.836  0.00  0.00    -0.266 N 
ATOM      5  H   LIG    1       25.138 -24.148   4.091  0.00  0.00    +0.157 HD
ATOM      6  C   LIG    1       24.791 -23.998   6.091  0.00  0.00    +0.150 C 
ATOM      7  N   LIG    1       24.340 -23.370   7.111  0.00  0.00    -0.158 NA
ATOM      8  C   LIG    1       23.908 -22.076   6.976  0.00  0.00    +0.254 C 
ATOM      9  O   LIG    1       23.532 -21.449   7.968  0.00  0.00    -0.273 OA
ENDROOT
BRANCH   6  10
ATOM     10  S   LIG    1       25.369 -25.621   6.240  0.00  0.00    -0.110 S 
ATOM     11  H   LIG    1       25.053 -25.747   7.537  0.00  0.00    +0.110 HD
ENDBRANCH   6  10
BRANCH   1  12
ATOM     12  C   LIG    1       25.065 -20.241   5.736  0.00  0.00    +0.010 C 
ATOM     13  C   LIG    1       26.013 -20.491   6.926  0.00  0.00    +0.009 C 
BRANCH  12  14
ATOM     14  C   LIG    1       25.872 -19.955   4.437  0.00  0.00    +0.004 C 
BRANCH  14  15
ATOM     15  C   LIG    1       25.213 -18.912   3.518  0.00  0.00    -0.003 C 
ATOM     16  C   LIG    1       26.041 -17.641   3.377  0.00  0.00    +0.004 C 
ENDBRANCH  14  15
ENDBRANCH  12  14
ENDBRANCH   1  12
BRANCH   1  17
ATOM     17  C   LIG    1       22.554 -20.806   5.333  0.00  0.00    +0.052 C 
BRANCH  17  19
ATOM     18  C   LIG    1       21.985 -18.539   4.388  0.00  0.00    +0.004 C 
ATOM     19  C   LIG    1       22.480 -19.295   5.376  0.00  0.00    -0.033 C 
ENDBRANCH  17  19
ENDBRANCH   1  17
TORSDOF 6
ENDMDL
MODEL 5
REMARK VINA RESULT:      -6.3      0.835      4.286
REMARK  Name = *****
REMARK                            x       y       z     vdW  Elec       q    Type
REMARK                         _______ _______ _______ _____ _____    ______ ____
ROOT
ATOM      1  C   LIG    1       24.640 -22.166   6.756  0.00  0.00    +0.131 C 
ATOM      2  C   LIG    1       25.204 -21.904   5.374  0.00  0.00    +0.234 C 
ATOM      3  O   LIG    1       24.775 -22.433   4.351  0.00  0.00    -0.274 OA
ATOM      4  N   LIG    1       26.228 -21.017   5.293  0.00  0.00    -0.266 N 
ATOM      5  H   LIG    1       26.598 -20.816   4.374  0.00  0.00    +0.157 HD
ATOM      6  C   LIG    1       26.947 -20.654   6.373  0.00  0.00    +0.150 C 
ATOM      7  N   LIG    1       26.689 -20.958   7.588  0.00  0.00    -0.158 NA
ATOM      8  C   LIG    1       25.576 -21.704   7.880  0.00  0.00    +0.254 C 
ATOM      9  O   LIG    1       25.290 -21.944   9.055  0.00  0.00    -0.273 OA
ENDROOT
BRANCH   6  10
ATOM     10  S   LIG    1       28.329 -19.691   5.979  0.00  0.00    -0.110 S 
ATOM     11  H   LIG    1       28.690 -20.423   4.914  0.00  0.00    +0.110 HD
ENDBRANCH   6  10
BRANCH   1  12
ATOM     12  C   LIG    1       23.279 -21.377   6.952  0.00  0.00    +0.010 C 
ATOM     13  C   LIG    1       23.469 -20.122   7.828  0.00  0.00    +0.009 C 
BRANCH  12  14
ATOM     14  C   LIG    1       22.527 -21.024   5.637  0.00  0.00    +0.004 C 
BRANCH  14  15
ATOM     15  C   LIG    1       22.479 -19.515   5.339  0.00  0.00    -0.003 C 
ATOM     16  C   LIG    1       23.215 -19.141   4.059  0.00  0.00    +0.004 C 
ENDBRANCH  14  15
ENDBRANCH  12  14
ENDBRANCH   1  12
BRANCH   1  17
ATOM     17  C   LIG    1       24.459 -23.700   6.924  0.00  0.00    +0.052 C 
BRANCH  17  19
ATOM     18  C   LIG    1       25.976 -25.547   6.123  0.00  0.00    +0.004 C 
ATOM     19  C   LIG    1       25.755 -24.482   6.903  0.00  0.00    -0.033 C 
ENDBRANCH  17  19
ENDBRANCH   1  17
TORSDOF 6
ENDMDL
MODEL 6
REMARK VINA RESULT:      -6.2      2.510      4.230
REMARK  Name = *****
REMARK                            x       y       z     vdW  Elec       q    Type
REMARK                         _______ _______ _______ _____ _____    ______ ____
ROOT
ATOM      1  C   LIG    1       24.912 -21.443   6.189  0.00  0.00    +0.131 C 
ATOM      2  C   LIG    1       24.662 -22.084   4.840  0.00  0.00    +0.234 C 
ATOM      3  O   LIG    1       24.461 -21.447   3.807  0.00  0.00    -0.274 OA
ATOM      4  N   LIG    1       24.685 -23.441   4.798  0.00  0.00    -0.266 N 
ATOM      5  H   LIG    1       24.542 -23.881   3.899  0.00  0.00    +0.157 HD
ATOM      6  C   LIG    1       24.578 -24.193   5.910  0.00  0.00    +0.150 C 
ATOM      7  N   LIG    1       24.590 -23.764   7.114  0.00  0.00    -0.158 NA
ATOM      8  C   LIG    1       24.746 -22.423   7.357  0.00  0.00    +0.254 C 
ATOM      9  O   LIG    1       24.822 -22.015   8.517  0.00  0.00    -0.273 OA
ENDROOT
BRANCH   6  10
ATOM     10  S   LIG    1       24.411 -25.882   5.577  0.00  0.00    -0.110 S 
ATOM     11  H   LIG    1       23.791 -25.715   4.399  0.00  0.00    +0.110 HD
ENDBRANCH   6  10
BRANCH   1  12
ATOM     12  C   LIG    1       26.398 -20.895   6.270  0.00  0.00    +0.010 C 
ATOM     13  C   LIG    1       26.684 -19.860   5.164  0.00  0.00    +0.009 C 
BRANCH  12  14
ATOM     14  C   LIG    1       26.824 -20.349   7.662  0.00  0.00    +0.004 C 
BRANCH  14  15
ATOM     15  C   LIG    1       28.315 -19.974   7.748  0.00  0.00    -0.003 C 
ATOM     16  C   LIG    1       29.233 -21.188   7.719  0.00  0.00    +0.004 C 
ENDBRANCH  14  15
ENDBRANCH  12  14
ENDBRANCH   1  12
BRANCH   1  17
ATOM     17  C   LIG    1       23.860 -20.317   6.394  0.00  0.00    +0.052 C 
BRANCH  17  19
ATOM     18  C   LIG    1       22.242 -19.218   4.804  0.00  0.00    +0.004 C 
ATOM     19  C   LIG    1       22.743 -20.322   5.373  0.00  0.00    -0.033 C 
ENDBRANCH  17  19
ENDBRANCH   1  17
TORSDOF 6
ENDMDL
MODEL 7
REMARK VINA RESULT:      -6.2      2.369      3.747
REMARK  Name = *****
REMARK                            x       y       z     vdW  Elec       q    Type
REMARK                         _______ _______ _______ _____ _____    ______ ____
ROOT
ATOM      1  C   LIG    1       25.341 -21.119   6.621  0.00  0.00    +0.131 C 
ATOM      2  C   LIG    1       25.635 -20.300   5.381  0.00  0.00    +0.234 C 
ATOM      3  O   LIG    1       26.771 -20.033   4.993  0.00  0.00    -0.274 OA
ATOM      4  N   LIG    1       24.563 -19.868   4.669  0.00  0.00    -0.266 N 
ATOM      5  H   LIG    1       24.747 -19.340   3.827  0.00  0.00    +0.157 HD
ATOM      6  C   LIG    1       23.322 -19.843   5.190  0.00  0.00    +0.150 C 
ATOM      7  N   LIG    1       22.966 -20.337   6.315  0.00  0.00    -0.158 NA
ATOM      8  C   LIG    1       23.889 -20.983   7.097  0.00  0.00    +0.254 C 
ATOM      9  O   LIG    1       23.536 -21.514   8.151  0.00  0.00    -0.273 OA
ENDROOT
BRANCH   6  10
ATOM     10  S   LIG    1       22.171 -19.048   4.172  0.00  0.00    -0.110 S 
ATOM     11  H   LIG    1       21.354 -18.683   5.172  0.00  0.00    +0.110 HD
ENDBRANCH   6  10
BRANCH   1  12
ATOM     12  C   LIG    1       25.576 -22.660   6.330  0.00  0.00    +0.010 C 
ATOM     13  C   LIG    1       26.006 -23.420   7.601  0.00  0.00    +0.009 C 
BRANCH  12  14
ATOM     14  C   LIG    1       24.393 -23.385   5.626  0.00  0.00    +0.004 C 
BRANCH  14  15
ATOM     15  C   LIG    1       23.857 -24.596   6.411  0.00  0.00    -0.003 C 
ATOM     16  C   LIG    1       24.175 -25.925   5.738  0.00  0.00    +0.004 C 
ENDBRANCH  14  15
ENDBRANCH  12  14
ENDBRANCH   1  12
BRANCH   1  17
ATOM     17  C   LIG    1       26.243 -20.595   7.773  0.00  0.00    +0.052 C 
BRANCH  17  19
ATOM     18  C   LIG    1       28.720 -21.058   7.709  0.00  0.00    +0.004 C 
ATOM     19  C   LIG    1       27.669 -20.305   7.359  0.00  0.00    -0.033 C 
ENDBRANCH  17  19
ENDBRANCH   1  17
TORSDOF 6
ENDMDL
MODEL 8
REMARK VINA RESULT:      -6.1      3.024      4.844
REMARK  Name = *****
REMARK                            x       y       z     vdW  Elec       q    Type
REMARK                         _______ _______ _______ _____ _____    ______ ____
ROOT
ATOM      1  C   LIG    1       24.579 -22.750   6.780  0.00  0.00    +0.131 C 
ATOM      2  C   LIG    1       23.356 -23.629   6.611  0.00  0.00    +0.234 C 
ATOM      3  O   LIG    1       22.213 -23.270   6.889  0.00  0.00    -0.274 OA
ATOM      4  N   LIG    1       23.564 -24.871   6.105  0.00  0.00    -0.266 N 
ATOM      5  H   LIG    1       22.754 -25.458   5.965  0.00  0.00    +0.157 HD
ATOM      6  C   LIG    1       24.786 -25.438   6.082  0.00  0.00    +0.150 C 
ATOM      7  N   LIG    1       25.889 -24.864   6.378  0.00  0.00    -0.158 NA
ATOM      8  C   LIG    1       25.892 -23.541   6.739  0.00  0.00    +0.254 C 
ATOM      9  O   LIG    1       26.960 -22.969   6.963  0.00  0.00    -0.273 OA
ENDROOT
BRANCH   6  10
ATOM     10  S   LIG    1       24.757 -27.098   5.596  0.00  0.00    -0.110 S 
ATOM     11  H   LIG    1       23.464 -27.100   5.240  0.00  0.00    +0.110 HD
ENDBRANCH   6  10
BRANCH   1  12
ATOM     12  C   LIG    1       24.657 -21.686   5.608  0.00  0.00    +0.010 C 
ATOM     13  C   LIG    1       24.260 -22.304   4.252  0.00  0.00    +0.009 C 
BRANCH  12  14
ATOM     14  C   LIG    1       23.876 -20.366   5.863  0.00  0.00    +0.004 C 
BRANCH  14  15
ATOM     15  C   LIG    1       22.562 -20.262   5.069  0.00  0.00    -0.003 C 
ATOM     16  C   LIG    1       22.293 -18.856   4.550  0.00  0.00    +0.004 C 
ENDBRANCH  14  15
ENDBRANCH  12  14
ENDBRANCH   1  12
BRANCH   1  17
ATOM     17  C   LIG    1       24.502 -22.078   8.179  0.00  0.00    +0.052 C 
BRANCH  17  19
ATOM     18  C   LIG    1       26.202 -20.313   8.772  0.00  0.00    +0.004 C 
ATOM     19  C   LIG    1       25.837 -21.600   8.710  0.00  0.00    -0.033 C 
ENDBRANCH  17  19
ENDBRANCH   1  17
TORSDOF 6
ENDMDL
MODEL 9
REMARK VINA RESULT:      -6.0      2.403      4.235
REMARK  Name = *****
REMARK                            x       y       z     vdW  Elec       q    Type
REMARK                         _______ _______ _______ _____ _____    ______ ____
ROOT
ATOM      1  C   LIG    1       25.298 -21.231   6.563  0.00  0.00    +0.131 C 
ATOM      2  C   LIG    1       23.855 -21.148   7.021  0.00  0.00    +0.234 C 
ATOM      3  O   LIG    1       23.391 -21.821   7.939  0.00  0.00    -0.274 OA
ATOM      4  N   LIG    1       23.061 -20.259   6.372  0.00  0.00    -0.266 N 
ATOM      5  H   LIG    1       22.103 -20.178   6.683  0.00  0.00    +0.157 HD
ATOM      6  C   LIG    1       23.400 -19.737   5.177  0.00  0.00    +0.150 C 
ATOM      7  N   LIG    1       24.524 -19.878   4.584  0.00  0.00    -0.158 NA
ATOM      8  C   LIG    1       25.523 -20.600   5.183  0.00  0.00    +0.254 C 
ATOM      9  O   LIG    1       26.627 -20.684   4.643  0.00  0.00    -0.273 OA
ENDROOT
BRANCH   6  10
ATOM     10  S   LIG    1       22.132 -18.807   4.456  0.00  0.00    -0.110 S 
ATOM     11  H   LIG    1       22.933 -18.140   3.612  0.00  0.00    +0.110 HD
ENDBRANCH   6  10
BRANCH   1  12
ATOM     12  C   LIG    1       26.240 -20.453   7.573  0.00  0.00    +0.010 C 
ATOM     13  C   LIG    1       25.700 -20.513   9.016  0.00  0.00    +0.009 C 
BRANCH  12  14
ATOM     14  C   LIG    1       27.739 -20.865   7.526  0.00  0.00    +0.004 C 
BRANCH  14  15
ATOM     15  C   LIG    1       28.709 -19.683   7.700  0.00  0.00    -0.003 C 
ATOM     16  C   LIG    1       29.279 -19.185   6.378  0.00  0.00    +0.004 C 
ENDBRANCH  14  15
ENDBRANCH  12  14
ENDBRANCH   1  12
BRANCH   1  17
ATOM     17  C   LIG    1       25.682 -22.732   6.440  0.00  0.00    +0.052 C 
BRANCH  17  19
ATOM     18  C   LIG    1       25.063 -24.784   5.113  0.00  0.00    +0.004 C 
ATOM     19  C   LIG    1       24.847 -23.504   5.441  0.00  0.00    -0.033 C 
ENDBRANCH  17  19
ENDBRANCH   1  17
TORSDOF 6
ENDMDL
