MODEL 1
REMARK VINA RESULT:      29.0      0.000      0.000
REMARK  Name = *****
REMARK                            x       y       z     vdW  Elec       q    Type
REMARK                         _______ _______ _______ _____ _____    ______ ____
ROOT
ATOM      1  C   LIG    1       26.349 -17.276   3.355  0.00  0.00    +0.338 C 
ATOM      2  O   LIG    1       25.208 -17.405   2.928  0.00  0.00    -0.245 OA
ENDROOT
BRANCH   1   5
ATOM      3  C   LIG    1       26.787 -13.458   3.227  0.00  0.00    +0.065 C 
ATOM      4  C   LIG    1       26.019 -14.777   3.341  0.00  0.00    +0.096 C 
ATOM      5  C   LIG    1       26.919 -15.959   3.730  0.00  0.00    +0.065 C 
ATOM      6  C   LIG    1       28.103 -15.729   4.353  0.00  0.00    +0.016 C 
ATOM      7  C   LIG    1       29.023 -16.781   4.917  0.00  0.00    +0.061 C 
ATOM      8  N   LIG    1       28.538 -14.420   4.517  0.00  0.00    -0.321 N 
ATOM      9  H   LIG    1       29.488 -14.298   4.865  0.00  0.00    +0.152 HD
ATOM     10  C   LIG    1       27.998 -13.329   3.863  0.00  0.00    +0.016 C 
ATOM     11  C   LIG    1       28.844 -12.087   3.887  0.00  0.00    +0.061 C 
BRANCH   4  12
ATOM     12  C   LIG    1       24.867 -14.663   4.357  0.00  0.00    -0.029 A 
ATOM     13  C   LIG    1       23.811 -15.598   4.352  0.00  0.00    +0.088 A 
ATOM     14  C   LIG    1       22.767 -15.499   5.280  0.00  0.00    +0.273 A 
ATOM     15  C   LIG    1       22.766 -14.479   6.236  0.00  0.00    +0.084 A 
ATOM     16  C   LIG    1       23.795 -13.536   6.233  0.00  0.00    +0.007 A 
ATOM     17  C   LIG    1       24.830 -13.618   5.293  0.00  0.00    +0.005 A 
BRANCH  14  18
ATOM     18  N   LIG    1       21.665 -16.468   5.236  0.00  0.00    +0.080 N 
ATOM     19  O   LIG    1       20.517 -16.053   5.453  0.00  0.00    -0.576 OA
ATOM     20  O   LIG    1       21.946 -17.652   4.992  0.00  0.00    +0.041 OA
ENDBRANCH  14  18
ENDBRANCH   4  12
BRANCH   3  21
ATOM     21  C   LIG    1       26.196 -12.473   2.265  0.00  0.00    +0.337 C 
ATOM     22  O   LIG    1       26.762 -11.463   1.848  0.00  0.00    -0.245 OA
BRANCH  21  24
ATOM     23  C   LIG    1       23.908 -12.018   2.652  0.00  0.00    +0.280 C 
ATOM     24  O   LIG    1       24.912 -12.831   2.047  0.00  0.00    -0.465 OA
ENDBRANCH  21  24
ENDBRANCH   3  21
ENDBRANCH   1   5
BRANCH   1  25
ATOM     25  O   LIG    1       27.210 -18.289   3.579  0.00  0.00    -0.460 OA
BRANCH  25  26
ATOM     26  C   LIG    1       27.236 -18.797   4.924  0.00  0.00    +0.247 C 
BRANCH  26  27
ATOM     27  C   LIG    1       27.014 -20.321   4.944  0.00  0.00    +0.125 C 
BRANCH  27  28
ATOM     28  N   LIG    1       25.611 -20.729   5.159  0.00  0.00    -0.297 NA
ATOM     29  C   LIG    1       24.724 -19.554   5.307  0.00  0.00    +0.100 C 
ATOM     30  C   LIG    1       24.465 -18.778   3.989  0.00  0.00    +0.100 C 
ATOM     31  N   LIG    1       23.958 -19.582   2.852  0.00  0.00    -0.289 NA
ATOM     32  C   LIG    1       24.776 -20.821   2.755  0.00  0.00    +0.100 C 
ATOM     33  C   LIG    1       25.071 -21.570   4.078  0.00  0.00    +0.100 C 
BRANCH  31  34
ATOM     34  C   LIG    1       22.493 -19.860   2.924  0.00  0.00    +0.117 C 
BRANCH  34  35
ATOM     35  C   LIG    1       21.650 -18.597   2.626  0.00  0.00    -0.026 A 
ATOM     36  C   LIG    1       20.258 -18.658   2.421  0.00  0.00    +0.005 A 
ATOM     37  C   LIG    1       19.506 -17.501   2.200  0.00  0.00    +0.000 A 
ATOM     38  C   LIG    1       20.129 -16.258   2.195  0.00  0.00    +0.000 A 
ATOM     39  C   LIG    1       21.503 -16.172   2.408  0.00  0.00    +0.000 A 
ATOM     40  C   LIG    1       22.260 -17.330   2.616  0.00  0.00    +0.005 A 
ENDBRANCH  34  35
BRANCH  34  41
ATOM     41  C   LIG    1       22.029 -20.502   4.252  0.00  0.00    -0.026 A 
ATOM     42  C   LIG    1       20.747 -21.076   4.346  0.00  0.00    +0.005 A 
ATOM     43  C   LIG    1       20.259 -21.562   5.566  0.00  0.00    +0.000 A 
ATOM     44  C   LIG    1       21.034 -21.472   6.718  0.00  0.00    +0.000 A 
ATOM     45  C   LIG    1       22.321 -20.945   6.640  0.00  0.00    +0.000 A 
ATOM     46  C   LIG    1       22.821 -20.489   5.415  0.00  0.00    +0.005 A 
ENDBRANCH  34  41
ENDBRANCH  31  34
ENDBRANCH  27  28
ENDBRANCH  26  27
ENDBRANCH  25  26
ENDBRANCH   1  25
TORSDOF 12
ENDMDL
MODEL 2
REMARK VINA RESULT:      30.2      2.023      3.207
REMARK  Name = *****
REMARK                            x       y       z     vdW  Elec       q    Type
REMARK                         _______ _______ _______ _____ _____    ______ ____
ROOT
ATOM      1  C   LIG    1       27.933 -17.209   4.159  0.00  0.00    +0.338 C 
ATOM      2  O   LIG    1       27.067 -17.549   3.362  0.00  0.00    -0.245 OA
ENDROOT
BRANCH   1   5
ATOM      3  C   LIG    1       28.058 -13.371   3.969  0.00  0.00    +0.065 C 
ATOM      4  C   LIG    1       27.490 -14.768   3.711  0.00  0.00    +0.096 C 
ATOM      5  C   LIG    1       28.042 -15.824   4.679  0.00  0.00    +0.065 C 
ATOM      6  C   LIG    1       28.562 -15.439   5.873  0.00  0.00    +0.016 C 
ATOM      7  C   LIG    1       29.011 -16.359   6.978  0.00  0.00    +0.061 C 
ATOM      8  N   LIG    1       28.697 -14.083   6.145  0.00  0.00    -0.321 N 
ATOM      9  H   LIG    1       29.213 -13.840   6.989  0.00  0.00    +0.152 HD
ATOM     10  C   LIG    1       28.598 -13.082   5.199  0.00  0.00    +0.016 C 
ATOM     11  C   LIG    1       29.146 -11.747   5.621  0.00  0.00    +0.061 C 
BRANCH   4  12
ATOM     12  C   LIG    1       25.951 -14.766   3.788  0.00  0.00    -0.029 A 
ATOM     13  C   LIG    1       25.266 -13.705   4.414  0.00  0.00    +0.088 A 
ATOM     14  C   LIG    1       23.867 -13.699   4.478  0.00  0.00    +0.273 A 
ATOM     15  C   LIG    1       23.130 -14.740   3.907  0.00  0.00    +0.084 A 
ATOM     16  C   LIG    1       23.801 -15.806   3.306  0.00  0.00    +0.007 A 
ATOM     17  C   LIG    1       25.200 -15.827   3.259  0.00  0.00    +0.005 A 
BRANCH  14  18
ATOM     18  N   LIG    1       23.179 -12.596   5.160  0.00  0.00    +0.080 N 
ATOM     19  O   LIG    1       22.456 -12.873   6.129  0.00  0.00    -0.576 OA
ATOM     20  O   LIG    1       23.352 -11.448   4.723  0.00  0.00    +0.041 OA
ENDBRANCH  14  18
ENDBRANCH   4  12
BRANCH   3  21
ATOM     21  C   LIG    1       28.117 -12.488   2.760  0.00  0.00    +0.337 C 
ATOM     22  O   LIG    1       28.841 -11.500   2.638  0.00  0.00    -0.245 OA
BRANCH  21  24
ATOM     23  C   LIG    1       25.805 -12.725   2.320  0.00  0.00    +0.280 C 
ATOM     24  O   LIG    1       27.159 -12.900   1.902  0.00  0.00    -0.465 OA
ENDBRANCH  21  24
ENDBRANCH   3  21
ENDBRANCH   1   5
BRANCH   1  25
ATOM     25  O   LIG    1       28.857 -18.031   4.695  0.00  0.00    -0.460 OA
BRANCH  25  26
ATOM     26  C   LIG    1       28.433 -18.779   5.847  0.00  0.00    +0.247 C 
BRANCH  26  27
ATOM     27  C   LIG    1       28.184 -20.255   5.488  0.00  0.00    +0.125 C 
BRANCH  27  28
ATOM     28  N   LIG    1       26.954 -20.493   4.706  0.00  0.00    -0.297 NA
ATOM     29  C   LIG    1       26.048 -21.436   5.398  0.00  0.00    +0.100 C 
ATOM     30  C   LIG    1       25.336 -20.843   6.642  0.00  0.00    +0.100 C 
ATOM     31  N   LIG    1       24.586 -19.584   6.420  0.00  0.00    -0.289 NA
ATOM     32  C   LIG    1       25.448 -18.661   5.634  0.00  0.00    +0.100 C 
ATOM     33  C   LIG    1       26.194 -19.265   4.418  0.00  0.00    +0.100 C 
BRANCH  31  34
ATOM     34  C   LIG    1       23.242 -19.789   5.804  0.00  0.00    +0.117 C 
BRANCH  34  35
ATOM     35  C   LIG    1       23.341 -20.458   4.412  0.00  0.00    -0.026 A 
ATOM     36  C   LIG    1       22.213 -20.991   3.758  0.00  0.00    +0.005 A 
ATOM     37  C   LIG    1       22.312 -21.549   2.480  0.00  0.00    +0.000 A 
ATOM     38  C   LIG    1       23.538 -21.572   1.825  0.00  0.00    +0.000 A 
ATOM     39  C   LIG    1       24.665 -21.039   2.449  0.00  0.00    +0.000 A 
ATOM     40  C   LIG    1       24.570 -20.492   3.733  0.00  0.00    +0.005 A 
ENDBRANCH  34  35
BRANCH  34  41
ATOM     41  C   LIG    1       22.380 -18.508   5.713  0.00  0.00    -0.026 A 
ATOM     42  C   LIG    1       21.366 -18.411   4.742  0.00  0.00    +0.005 A 
ATOM     43  C   LIG    1       20.646 -17.222   4.563  0.00  0.00    +0.000 A 
ATOM     44  C   LIG    1       20.935 -16.104   5.340  0.00  0.00    +0.000 A 
ATOM     45  C   LIG    1       21.906 -16.190   6.334  0.00  0.00    +0.000 A 
ATOM     46  C   LIG    1       22.602 -17.387   6.535  0.00  0.00    +0.005 A 
ENDBRANCH  34  41
ENDBRANCH  31  34
ENDBRANCH  27  28
ENDBRANCH  26  27
ENDBRANCH  25  26
ENDBRANCH   1  25
TORSDOF 12
ENDMDL
MODEL 3
REMARK VINA RESULT:      31.3      2.048      5.253
REMARK  Name = *****
REMARK                            x       y       z     vdW  Elec       q    Type
REMARK                         _______ _______ _______ _____ _____    ______ ____
ROOT
ATOM      1  C   LIG    1       24.100 -13.691   5.091  0.00  0.00    +0.338 C 
ATOM      2  O   LIG    1       24.053 -14.812   5.584  0.00  0.00    -0.245 OA
ENDROOT
BRANCH   1   5
ATOM      3  C   LIG    1       27.634 -12.965   3.761  0.00  0.00    +0.065 C 
ATOM      4  C   LIG    1       26.537 -13.778   4.452  0.00  0.00    +0.096 C 
ATOM      5  C   LIG    1       25.123 -13.300   4.091  0.00  0.00    +0.065 C 
ATOM      6  C   LIG    1       24.921 -12.594   2.949  0.00  0.00    +0.016 C 
ATOM      7  C   LIG    1       23.584 -12.178   2.392  0.00  0.00    +0.061 C 
ATOM      8  N   LIG    1       26.019 -12.209   2.189  0.00  0.00    -0.321 N 
ATOM      9  H   LIG    1       25.834 -11.569   1.418  0.00  0.00    +0.152 HD
ATOM     10  C   LIG    1       27.328 -12.250   2.629  0.00  0.00    +0.016 C 
ATOM     11  C   LIG    1       28.302 -11.448   1.812  0.00  0.00    +0.061 C 
BRANCH   4  12
ATOM     12  C   LIG    1       26.664 -15.277   4.121  0.00  0.00    -0.029 A 
ATOM     13  C   LIG    1       27.565 -16.095   4.833  0.00  0.00    +0.088 A 
ATOM     14  C   LIG    1       27.675 -17.460   4.537  0.00  0.00    +0.273 A 
ATOM     15  C   LIG    1       26.880 -18.033   3.540  0.00  0.00    +0.084 A 
ATOM     16  C   LIG    1       26.002 -17.226   2.815  0.00  0.00    +0.007 A 
ATOM     17  C   LIG    1       25.904 -15.856   3.092  0.00  0.00    +0.005 A 
BRANCH  14  18
ATOM     18  N   LIG    1       28.641 -18.284   5.273  0.00  0.00    +0.080 N 
ATOM     19  O   LIG    1       28.644 -19.505   5.061  0.00  0.00    -0.576 OA
ATOM     20  O   LIG    1       29.396 -17.712   6.075  0.00  0.00    +0.041 OA
ENDBRANCH  14  18
ENDBRANCH   4  12
BRANCH   3  21
ATOM     21  C   LIG    1       28.929 -12.899   4.512  0.00  0.00    +0.337 C 
ATOM     22  O   LIG    1       29.444 -11.870   4.949  0.00  0.00    -0.245 OA
BRANCH  21  24
ATOM     23  C   LIG    1       28.888 -15.088   3.619  0.00  0.00    +0.280 C 
ATOM     24  O   LIG    1       29.468 -14.137   4.510  0.00  0.00    -0.465 OA
ENDBRANCH  21  24
ENDBRANCH   3  21
ENDBRANCH   1   5
BRANCH   1  25
ATOM     25  O   LIG    1       23.227 -12.696   5.345  0.00  0.00    -0.460 OA
BRANCH  25  26
ATOM     26  C   LIG    1       21.853 -13.094   5.492  0.00  0.00    +0.247 C 
BRANCH  26  27
ATOM     27  C   LIG    1       21.746 -14.474   6.166  0.00  0.00    +0.125 C 
BRANCH  27  28
ATOM     28  N   LIG    1       21.315 -15.562   5.264  0.00  0.00    -0.297 NA
ATOM     29  C   LIG    1       22.471 -16.192   4.589  0.00  0.00    +0.100 C 
ATOM     30  C   LIG    1       23.343 -17.084   5.511  0.00  0.00    +0.100 C 
ATOM     31  N   LIG    1       22.623 -18.146   6.254  0.00  0.00    -0.289 NA
ATOM     32  C   LIG    1       21.400 -17.549   6.854  0.00  0.00    +0.100 C 
ATOM     33  C   LIG    1       20.555 -16.623   5.945  0.00  0.00    +0.100 C 
BRANCH  31  34
ATOM     34  C   LIG    1       22.334 -19.358   5.432  0.00  0.00    +0.117 C 
BRANCH  34  35
ATOM     35  C   LIG    1       23.628 -20.089   5.003  0.00  0.00    -0.026 A 
ATOM     36  C   LIG    1       24.130 -20.012   3.690  0.00  0.00    +0.005 A 
ATOM     37  C   LIG    1       25.327 -20.641   3.332  0.00  0.00    +0.000 A 
ATOM     38  C   LIG    1       26.052 -21.346   4.286  0.00  0.00    +0.000 A 
ATOM     39  C   LIG    1       25.581 -21.425   5.595  0.00  0.00    +0.000 A 
ATOM     40  C   LIG    1       24.377 -20.808   5.951  0.00  0.00    +0.005 A 
ENDBRANCH  34  35
BRANCH  34  41
ATOM     41  C   LIG    1       21.445 -19.091   4.194  0.00  0.00    -0.026 A 
ATOM     42  C   LIG    1       21.844 -18.144   3.232  0.00  0.00    +0.005 A 
ATOM     43  C   LIG    1       21.007 -17.802   2.163  0.00  0.00    +0.000 A 
ATOM     44  C   LIG    1       19.750 -18.387   2.040  0.00  0.00    +0.000 A 
ATOM     45  C   LIG    1       19.351 -19.356   2.957  0.00  0.00    +0.000 A 
ATOM     46  C   LIG    1       20.201 -19.722   4.007  0.00  0.00    +0.005 A 
ENDBRANCH  34  41
ENDBRANCH  31  34
ENDBRANCH  27  28
ENDBRANCH  26  27
ENDBRANCH  25  26
ENDBRANCH   1  25
TORSDOF 12
ENDMDL
