MODEL 1
REMARK VINA RESULT:      -0.3      0.000      0.000
REMARK  Name = *****
REMARK                            x       y       z     vdW  Elec       q    Type
REMARK                         _______ _______ _______ _____ _____    ______ ____
ROOT
ATOM      1  C   LIG    1       26.219 -20.082   2.864  0.00  0.00    +0.105 C 
ATOM      2  N   LIG    1       25.205 -19.412   3.682  0.00  0.00    -0.298 NA
ATOM      3  C   LIG    1       25.065 -17.965   3.338  0.00  0.00    +0.092 C 
ATOM      4  C   LIG    1       26.353 -17.179   3.676  0.00  0.00    +0.059 C 
ATOM      5  C   LIG    1       26.213 -15.704   3.362  0.00  0.00    -0.034 A 
ATOM      6  C   LIG    1       24.969 -15.062   3.582  0.00  0.00    +0.031 A 
ATOM      7  C   LIG    1       23.843 -15.873   4.129  0.00  0.00    -0.009 A 
ATOM      8  C   LIG    1       22.742 -15.297   4.790  0.00  0.00    +0.009 A 
ATOM      9  C   LIG    1       21.697 -16.071   5.298  0.00  0.00    +0.001 A 
ATOM     10  C   LIG    1       21.733 -17.452   5.175  0.00  0.00    +0.004 A 
ATOM     11  C   LIG    1       22.817 -18.070   4.546  0.00  0.00    -0.041 A 
ATOM     12  C   LIG    1       22.874 -19.573   4.492  0.00  0.00    +0.051 C 
ATOM     13  C   LIG    1       24.911 -13.694   3.257  0.00  0.00    +0.166 A 
ATOM     14  C   LIG    1       26.036 -12.998   2.790  0.00  0.00    +0.159 A 
ATOM     15  C   LIG    1       27.252 -13.636   2.613  0.00  0.00    +0.049 A 
ATOM     16  C   LIG    1       27.338 -14.993   2.899  0.00  0.00    +0.008 A 
ATOM     17  C   LIG    1       23.881 -17.291   4.040  0.00  0.00    -0.019 A 
ATOM     18  C   LIG    1       23.911 -20.089   3.497  0.00  0.00    +0.089 C 
ENDROOT
BRANCH  13  19
ATOM     19  O   LIG    1       23.750 -12.967   3.354  0.00  0.00    -0.503 OA
ATOM     20  H   LIG    1       24.015 -12.134   3.793  0.00  0.00    +0.292 HD
ENDBRANCH  13  19
BRANCH  14  21
ATOM     21  O   LIG    1       25.882 -11.664   2.515  0.00  0.00    -0.503 OA
ATOM     22  H   LIG    1       25.019 -11.381   2.864  0.00  0.00    +0.292 HD
ENDBRANCH  14  21
TORSDOF 2
ENDMDL
MODEL 2
REMARK VINA RESULT:      -0.2      2.611      4.247
REMARK  Name = *****
REMARK                            x       y       z     vdW  Elec       q    Type
REMARK                         _______ _______ _______ _____ _____    ______ ____
ROOT
ATOM      1  C   LIG    1       23.219 -20.438   4.415  0.00  0.00    +0.105 C 
ATOM      2  N   LIG    1       24.663 -20.532   4.639  0.00  0.00    -0.298 NA
ATOM      3  C   LIG    1       25.317 -19.191   4.693  0.00  0.00    +0.092 C 
ATOM      4  C   LIG    1       25.228 -18.466   3.330  0.00  0.00    +0.059 C 
ATOM      5  C   LIG    1       25.916 -17.118   3.361  0.00  0.00    -0.034 A 
ATOM      6  C   LIG    1       27.105 -16.961   4.116  0.00  0.00    +0.031 A 
ATOM      7  C   LIG    1       27.638 -18.147   4.847  0.00  0.00    -0.009 A 
ATOM      8  C   LIG    1       28.982 -18.252   5.247  0.00  0.00    +0.009 A 
ATOM      9  C   LIG    1       29.466 -19.371   5.928  0.00  0.00    +0.001 A 
ATOM     10  C   LIG    1       28.617 -20.430   6.214  0.00  0.00    +0.004 A 
ATOM     11  C   LIG    1       27.278 -20.379   5.817  0.00  0.00    -0.041 A 
ATOM     12  C   LIG    1       26.395 -21.571   6.068  0.00  0.00    +0.051 C 
ATOM     13  C   LIG    1       27.681 -15.678   4.107  0.00  0.00    +0.166 A 
ATOM     14  C   LIG    1       27.135 -14.629   3.352  0.00  0.00    +0.159 A 
ATOM     15  C   LIG    1       25.992 -14.810   2.593  0.00  0.00    +0.049 A 
ATOM     16  C   LIG    1       25.381 -16.058   2.600  0.00  0.00    +0.008 A 
ATOM     17  C   LIG    1       26.789 -19.254   5.118  0.00  0.00    -0.019 A 
ATOM     18  C   LIG    1       24.911 -21.251   5.900  0.00  0.00    +0.089 C 
ENDROOT
BRANCH  13  19
ATOM     19  O   LIG    1       28.793 -15.369   4.852  0.00  0.00    -0.503 OA
ATOM     20  H   LIG    1       29.399 -14.929   4.222  0.00  0.00    +0.292 HD
ENDBRANCH  13  19
BRANCH  14  21
ATOM     21  O   LIG    1       27.779 -13.419   3.397  0.00  0.00    -0.503 OA
ATOM     22  H   LIG    1       28.119 -13.291   4.300  0.00  0.00    +0.292 HD
ENDBRANCH  14  21
TORSDOF 2
ENDMDL
MODEL 3
REMARK VINA RESULT:       0.0      3.030      6.118
REMARK  Name = *****
REMARK                            x       y       z     vdW  Elec       q    Type
REMARK                         _______ _______ _______ _____ _____    ______ ____
ROOT
ATOM      1  C   LIG    1       23.558 -13.082   3.005  0.00  0.00    +0.105 C 
ATOM      2  N   LIG    1       24.754 -13.750   3.524  0.00  0.00    -0.298 NA
ATOM      3  C   LIG    1       24.687 -15.234   3.367  0.00  0.00    +0.092 C 
ATOM      4  C   LIG    1       23.554 -15.841   4.227  0.00  0.00    +0.059 C 
ATOM      5  C   LIG    1       23.496 -17.349   4.101  0.00  0.00    -0.034 A 
ATOM      6  C   LIG    1       24.703 -18.083   3.983  0.00  0.00    +0.031 A 
ATOM      7  C   LIG    1       25.991 -17.331   3.999  0.00  0.00    -0.009 A 
ATOM      8  C   LIG    1       27.218 -17.933   4.329  0.00  0.00    +0.009 A 
ATOM      9  C   LIG    1       28.416 -17.215   4.341  0.00  0.00    +0.001 A 
ATOM     10  C   LIG    1       28.415 -15.861   4.038  0.00  0.00    +0.004 A 
ATOM     11  C   LIG    1       27.216 -15.215   3.725  0.00  0.00    -0.041 A 
ATOM     12  C   LIG    1       27.226 -13.731   3.476  0.00  0.00    +0.051 C 
ATOM     13  C   LIG    1       24.570 -19.478   3.860  0.00  0.00    +0.166 A 
ATOM     14  C   LIG    1       23.317 -20.107   3.902  0.00  0.00    +0.159 A 
ATOM     15  C   LIG    1       22.151 -19.375   4.052  0.00  0.00    +0.049 A 
ATOM     16  C   LIG    1       22.243 -17.992   4.150  0.00  0.00    +0.008 A 
ATOM     17  C   LIG    1       26.002 -15.937   3.723  0.00  0.00    -0.019 A 
ATOM     18  C   LIG    1       25.939 -13.234   2.822  0.00  0.00    +0.089 C 
ENDROOT
BRANCH  13  19
ATOM     19  O   LIG    1       25.651 -20.303   3.668  0.00  0.00    -0.503 OA
ATOM     20  H   LIG    1       25.331 -20.994   3.055  0.00  0.00    +0.292 HD
ENDBRANCH  13  19
BRANCH  14  21
ATOM     21  O   LIG    1       23.293 -21.473   3.788  0.00  0.00    -0.503 OA
ATOM     22  H   LIG    1       22.407 -21.782   4.046  0.00  0.00    +0.292 HD
ENDBRANCH  14  21
TORSDOF 2
ENDMDL
MODEL 4
REMARK VINA RESULT:       0.5      3.782      5.426
REMARK  Name = *****
REMARK                            x       y       z     vdW  Elec       q    Type
REMARK                         _______ _______ _______ _____ _____    ______ ____
ROOT
ATOM      1  C   LIG    1       24.013 -15.351   3.494  0.00  0.00    +0.105 C 
ATOM      2  N   LIG    1       23.577 -16.747   3.572  0.00  0.00    -0.298 NA
ATOM      3  C   LIG    1       24.506 -17.586   4.386  0.00  0.00    +0.092 C 
ATOM      4  C   LIG    1       25.897 -17.697   3.718  0.00  0.00    +0.059 C 
ATOM      5  C   LIG    1       26.839 -18.572   4.517  0.00  0.00    -0.034 A 
ATOM      6  C   LIG    1       26.331 -19.717   5.180  0.00  0.00    +0.031 A 
ATOM      7  C   LIG    1       24.876 -20.019   5.051  0.00  0.00    -0.009 A 
ATOM      8  C   LIG    1       24.344 -21.303   5.267  0.00  0.00    +0.009 A 
ATOM      9  C   LIG    1       22.979 -21.570   5.141  0.00  0.00    +0.001 A 
ATOM     10  C   LIG    1       22.105 -20.557   4.774  0.00  0.00    +0.004 A 
ATOM     11  C   LIG    1       22.591 -19.270   4.527  0.00  0.00    -0.041 A 
ATOM     12  C   LIG    1       21.639 -18.206   4.054  0.00  0.00    +0.051 C 
ATOM     13  C   LIG    1       27.263 -20.475   5.911  0.00  0.00    +0.166 A 
ATOM     14  C   LIG    1       28.625 -20.142   5.939  0.00  0.00    +0.159 A 
ATOM     15  C   LIG    1       29.109 -19.039   5.258  0.00  0.00    +0.049 A 
ATOM     16  C   LIG    1       28.211 -18.252   4.546  0.00  0.00    +0.008 A 
ATOM     17  C   LIG    1       23.973 -19.000   4.644  0.00  0.00    -0.019 A 
ATOM     18  C   LIG    1       22.227 -16.800   4.156  0.00  0.00    +0.089 C 
ENDROOT
BRANCH  13  19
ATOM     19  O   LIG    1       26.894 -21.568   6.657  0.00  0.00    -0.503 OA
ATOM     20  H   LIG    1       25.934 -21.456   6.805  0.00  0.00    +0.292 HD
ENDBRANCH  13  19
BRANCH  14  21
ATOM     21  O   LIG    1       29.457 -20.952   6.669  0.00  0.00    -0.503 OA
ATOM     22  H   LIG    1       29.881 -21.579   6.057  0.00  0.00    +0.292 HD
ENDBRANCH  14  21
TORSDOF 2
ENDMDL
MODEL 5
REMARK VINA RESULT:       2.3      2.647      5.212
REMARK  Name = *****
REMARK                            x       y       z     vdW  Elec       q    Type
REMARK                         _______ _______ _______ _____ _____    ______ ____
ROOT
ATOM      1  C   LIG    1       28.926 -16.823   4.227  0.00  0.00    +0.105 C 
ATOM      2  N   LIG    1       27.746 -16.040   3.852  0.00  0.00    -0.298 NA
ATOM      3  C   LIG    1       26.471 -16.729   4.213  0.00  0.00    +0.092 C 
ATOM      4  C   LIG    1       26.287 -18.034   3.405  0.00  0.00    +0.059 C 
ATOM      5  C   LIG    1       24.983 -18.725   3.738  0.00  0.00    -0.034 A 
ATOM      6  C   LIG    1       23.830 -17.945   4.004  0.00  0.00    +0.031 A 
ATOM      7  C   LIG    1       23.952 -16.460   3.932  0.00  0.00    -0.009 A 
ATOM      8  C   LIG    1       22.845 -15.615   3.735  0.00  0.00    +0.009 A 
ATOM      9  C   LIG    1       22.976 -14.226   3.669  0.00  0.00    +0.001 A 
ATOM     10  C   LIG    1       24.229 -13.642   3.778  0.00  0.00    +0.004 A 
ATOM     11  C   LIG    1       25.361 -14.443   3.952  0.00  0.00    -0.041 A 
ATOM     12  C   LIG    1       26.718 -13.795   3.990  0.00  0.00    +0.051 C 
ATOM     13  C   LIG    1       22.657 -18.656   4.316  0.00  0.00    +0.166 A 
ATOM     14  C   LIG    1       22.622 -20.058   4.316  0.00  0.00    +0.159 A 
ATOM     15  C   LIG    1       23.751 -20.804   4.021  0.00  0.00    +0.049 A 
ATOM     16  C   LIG    1       24.933 -20.134   3.733  0.00  0.00    +0.008 A 
ATOM     17  C   LIG    1       25.232 -15.849   4.009  0.00  0.00    -0.019 A 
ATOM     18  C   LIG    1       27.804 -14.730   4.519  0.00  0.00    +0.089 C 
ENDROOT
BRANCH  13  19
ATOM     19  O   LIG    1       21.488 -18.024   4.663  0.00  0.00    -0.503 OA
ATOM     20  H   LIG    1       20.883 -18.191   3.912  0.00  0.00    +0.292 HD
ENDBRANCH  13  19
BRANCH  14  21
ATOM     21  O   LIG    1       21.428 -20.659   4.619  0.00  0.00    -0.503 OA
ATOM     22  H   LIG    1       20.799 -20.460   3.903  0.00  0.00    +0.292 HD
ENDBRANCH  14  21
TORSDOF 2
ENDMDL
