MODEL 1
REMARK VINA RESULT:      -6.5      0.000      0.000
REMARK  Name = *****
REMARK                            x       y       z     vdW  Elec       q    Type
REMARK                         _______ _______ _______ _____ _____    ______ ____
ROOT
ATOM      1  C   LIG    1       25.250 -30.970   5.966  0.00  0.00    +0.328 C 
ATOM      2  N   LIG    1       25.861 -31.291   7.242  0.00  0.00    -0.208 N 
ATOM      3  C   LIG    1       26.762 -32.338   7.158  0.00  0.00    +0.275 C 
ATOM      4  O   LIG    1       27.368 -32.891   8.065  0.00  0.00    -0.268 OA
ATOM      5  C   LIG    1       26.832 -32.717   5.740  0.00  0.00    +0.152 A 
ATOM      6  N   LIG    1       27.596 -33.692   5.208  0.00  0.00    -0.247 NA
ATOM      7  C   LIG    1       27.459 -33.800   3.863  0.00  0.00    +0.131 A 
ATOM      8  C   LIG    1       26.618 -32.970   3.116  0.00  0.00    +0.131 A 
ATOM      9  N   LIG    1       25.849 -31.997   3.675  0.00  0.00    -0.251 NA
ATOM     10  C   LIG    1       25.976 -31.904   5.020  0.00  0.00    +0.131 A 
ENDROOT
BRANCH   2  11
ATOM     11  C   LIG    1       25.406 -30.736   8.439  0.00  0.00    +0.131 A 
ATOM     12  N   LIG    1       26.281 -30.038   9.193  0.00  0.00    -0.238 NA
ATOM     13  C   LIG    1       25.799 -29.469  10.332  0.00  0.00    +0.133 A 
ATOM     14  C   LIG    1       24.506 -29.642  10.799  0.00  0.00    +0.059 A 
ATOM     15 CL   LIG    1       23.986 -28.923  12.267  0.00  0.00    -0.082 Cl
ATOM     16  C   LIG    1       23.641 -30.423  10.047  0.00  0.00    +0.025 A 
ATOM     17  C   LIG    1       24.088 -30.955   8.836  0.00  0.00    +0.045 A 
ENDBRANCH   2  11
BRANCH   1  18
ATOM     18  O   LIG    1       25.605 -29.626   5.651  0.00  0.00    -0.422 OA
BRANCH  18  24
ATOM     19  C   LIG    1       25.811 -24.038   6.148  0.00  0.00    +0.105 C 
ATOM     20  N   LIG    1       25.418 -25.258   6.851  0.00  0.00    -0.302 NA
ATOM     21  C   LIG    1       24.071 -25.720   6.428  0.00  0.00    +0.103 C 
ATOM     22  C   LIG    1       24.041 -26.423   5.054  0.00  0.00    +0.126 C 
ATOM     23  N   LIG    1       25.010 -27.515   5.045  0.00  0.00    -0.265 N 
ATOM     24  C   LIG    1       24.576 -28.781   5.410  0.00  0.00    +0.405 C 
ATOM     25  O   LIG    1       23.394 -29.093   5.523  0.00  0.00    -0.226 OA
ATOM     26  C   LIG    1       26.374 -27.067   5.319  0.00  0.00    +0.126 C 
ATOM     27  C   LIG    1       26.421 -26.336   6.680  0.00  0.00    +0.103 C 
ENDBRANCH  18  24
ENDBRANCH   1  18
TORSDOF 3
ENDMDL
MODEL 2
REMARK VINA RESULT:      -5.9      2.882      5.863
REMARK  Name = *****
REMARK                            x       y       z     vdW  Elec       q    Type
REMARK                         _______ _______ _______ _____ _____    ______ ____
ROOT
ATOM      1  C   LIG    1       25.664 -29.750   7.976  0.00  0.00    +0.328 C 
ATOM      2  N   LIG    1       24.818 -29.070   7.013  0.00  0.00    -0.208 N 
ATOM      3  C   LIG    1       24.039 -29.941   6.272  0.00  0.00    +0.275 C 
ATOM      4  O   LIG    1       23.296 -29.684   5.335  0.00  0.00    -0.268 OA
ATOM      5  C   LIG    1       24.306 -31.289   6.794  0.00  0.00    +0.152 A 
ATOM      6  N   LIG    1       23.751 -32.440   6.363  0.00  0.00    -0.247 NA
ATOM      7  C   LIG    1       24.184 -33.527   7.049  0.00  0.00    +0.131 A 
ATOM      8  C   LIG    1       25.100 -33.446   8.101  0.00  0.00    +0.131 A 
ATOM      9  N   LIG    1       25.653 -32.273   8.515  0.00  0.00    -0.251 NA
ATOM     10  C   LIG    1       25.232 -31.193   7.816  0.00  0.00    +0.131 A 
ENDROOT
BRANCH   2  11
ATOM     11  C   LIG    1       24.960 -27.709   6.737  0.00  0.00    +0.131 A 
ATOM     12  N   LIG    1       23.874 -27.024   6.321  0.00  0.00    -0.238 NA
ATOM     13  C   LIG    1       24.031 -25.690   6.104  0.00  0.00    +0.133 A 
ATOM     14  C   LIG    1       25.243 -25.026   6.195  0.00  0.00    +0.059 A 
ATOM     15 CL   LIG    1       25.366 -23.346   5.865  0.00  0.00    -0.082 Cl
ATOM     16  C   LIG    1       26.363 -25.761   6.553  0.00  0.00    +0.025 A 
ATOM     17  C   LIG    1       26.216 -27.116   6.856  0.00  0.00    +0.045 A 
ENDBRANCH   2  11
BRANCH   1  18
ATOM     18  O   LIG    1       25.282 -29.295   9.272  0.00  0.00    -0.422 OA
BRANCH  18  24
ATOM     19  C   LIG    1       24.587 -29.066  14.837  0.00  0.00    +0.105 C 
ATOM     20  N   LIG    1       24.783 -28.235  13.652  0.00  0.00    -0.302 NA
ATOM     21  C   LIG    1       26.218 -28.151  13.276  0.00  0.00    +0.103 C 
ATOM     22  C   LIG    1       26.765 -29.409  12.566  0.00  0.00    +0.126 C 
ATOM     23  N   LIG    1       25.925 -29.720  11.412  0.00  0.00    -0.265 N 
ATOM     24  C   LIG    1       26.279 -29.190  10.181  0.00  0.00    +0.405 C 
ATOM     25  O   LIG    1       27.365 -28.666   9.948  0.00  0.00    -0.226 OA
ATOM     26  C   LIG    1       24.527 -29.948  11.772  0.00  0.00    +0.126 C 
ATOM     27  C   LIG    1       23.967 -28.710  12.508  0.00  0.00    +0.103 C 
ENDBRANCH  18  24
ENDBRANCH   1  18
TORSDOF 3
ENDMDL
MODEL 3
REMARK VINA RESULT:      -5.7      5.823      9.102
REMARK  Name = *****
REMARK                            x       y       z     vdW  Elec       q    Type
REMARK                         _______ _______ _______ _____ _____    ______ ____
ROOT
ATOM      1  C   LIG    1       25.547 -22.949   5.692  0.00  0.00    +0.328 C 
ATOM      2  N   LIG    1       24.147 -22.633   5.902  0.00  0.00    -0.208 N 
ATOM      3  C   LIG    1       23.393 -23.740   6.250  0.00  0.00    +0.275 C 
ATOM      4  O   LIG    1       22.181 -23.813   6.407  0.00  0.00    -0.268 OA
ATOM      5  C   LIG    1       24.328 -24.868   6.354  0.00  0.00    +0.152 A 
ATOM      6  N   LIG    1       24.017 -26.140   6.679  0.00  0.00    -0.247 NA
ATOM      7  C   LIG    1       25.098 -26.959   6.709  0.00  0.00    +0.131 A 
ATOM      8  C   LIG    1       26.395 -26.515   6.442  0.00  0.00    +0.131 A 
ATOM      9  N   LIG    1       26.685 -25.228   6.108  0.00  0.00    -0.251 NA
ATOM     10  C   LIG    1       25.602 -24.417   6.063  0.00  0.00    +0.131 A 
ENDROOT
BRANCH   2  11
ATOM     11  C   LIG    1       23.613 -21.388   5.567  0.00  0.00    +0.131 A 
ATOM     12  N   LIG    1       23.595 -21.028   4.267  0.00  0.00    -0.238 NA
ATOM     13  C   LIG    1       23.027 -19.828   3.965  0.00  0.00    +0.133 A 
ATOM     14  C   LIG    1       22.560 -18.930   4.912  0.00  0.00    +0.059 A 
ATOM     15 CL   LIG    1       21.894 -17.417   4.453  0.00  0.00    -0.082 Cl
ATOM     16  C   LIG    1       22.654 -19.287   6.249  0.00  0.00    +0.025 A 
ATOM     17  C   LIG    1       23.162 -20.544   6.581  0.00  0.00    +0.045 A 
ENDBRANCH   2  11
BRANCH   1  18
ATOM     18  O   LIG    1       26.299 -22.204   6.647  0.00  0.00    -0.422 OA
BRANCH  18  24
ATOM     19  C   LIG    1       31.163 -20.129   8.531  0.00  0.00    +0.105 C 
ATOM     20  N   LIG    1       29.712 -20.002   8.660  0.00  0.00    -0.302 NA
ATOM     21  C   LIG    1       29.141 -19.159   7.579  0.00  0.00    +0.103 C 
ATOM     22  C   LIG    1       29.024 -19.870   6.212  0.00  0.00    +0.126 C 
ATOM     23  N   LIG    1       28.278 -21.115   6.374  0.00  0.00    -0.265 N 
ATOM     24  C   LIG    1       26.904 -21.086   6.183  0.00  0.00    +0.405 C 
ATOM     25  O   LIG    1       26.304 -20.145   5.672  0.00  0.00    -0.226 OA
ATOM     26  C   LIG    1       28.896 -22.028   7.333  0.00  0.00    +0.126 C 
ATOM     27  C   LIG    1       29.048 -21.327   8.701  0.00  0.00    +0.103 C 
ENDBRANCH  18  24
ENDBRANCH   1  18
TORSDOF 3
ENDMDL
MODEL 4
REMARK VINA RESULT:      -5.6      2.882      5.841
REMARK  Name = *****
REMARK                            x       y       z     vdW  Elec       q    Type
REMARK                         _______ _______ _______ _____ _____    ______ ____
ROOT
ATOM      1  C   LIG    1       25.615 -29.899   8.297  0.00  0.00    +0.328 C 
ATOM      2  N   LIG    1       25.358 -29.414   6.954  0.00  0.00    -0.208 N 
ATOM      3  C   LIG    1       25.498 -30.398   5.991  0.00  0.00    +0.275 C 
ATOM      4  O   LIG    1       25.433 -30.282   4.775  0.00  0.00    -0.268 OA
ATOM      5  C   LIG    1       25.802 -31.644   6.707  0.00  0.00    +0.152 A 
ATOM      6  N   LIG    1       26.010 -32.856   6.154  0.00  0.00    -0.247 NA
ATOM      7  C   LIG    1       26.255 -33.823   7.073  0.00  0.00    +0.131 A 
ATOM      8  C   LIG    1       26.275 -33.578   8.448  0.00  0.00    +0.131 A 
ATOM      9  N   LIG    1       26.070 -32.344   8.985  0.00  0.00    -0.251 NA
ATOM     10  C   LIG    1       25.842 -31.378   8.063  0.00  0.00    +0.131 A 
ENDROOT
BRANCH   2  11
ATOM     11  C   LIG    1       25.204 -28.054   6.677  0.00  0.00    +0.131 A 
ATOM     12  N   LIG    1       24.180 -27.675   5.884  0.00  0.00    -0.238 NA
ATOM     13  C   LIG    1       24.027 -26.340   5.668  0.00  0.00    +0.133 A 
ATOM     14  C   LIG    1       24.905 -25.373   6.133  0.00  0.00    +0.059 A 
ATOM     15 CL   LIG    1       24.665 -23.710   5.783  0.00  0.00    -0.082 Cl
ATOM     16  C   LIG    1       25.993 -25.789   6.885  0.00  0.00    +0.025 A 
ATOM     17  C   LIG    1       26.130 -27.145   7.186  0.00  0.00    +0.045 A 
ENDBRANCH   2  11
BRANCH   1  18
ATOM     18  O   LIG    1       24.416 -29.728   9.048  0.00  0.00    -0.422 OA
BRANCH  18  24
ATOM     19  C   LIG    1       20.513 -31.397  12.721  0.00  0.00    +0.105 C 
ATOM     20  N   LIG    1       21.068 -30.214  12.066  0.00  0.00    -0.302 NA
ATOM     21  C   LIG    1       22.295 -29.737  12.752  0.00  0.00    +0.103 C 
ATOM     22  C   LIG    1       23.558 -30.576  12.455  0.00  0.00    +0.126 C 
ATOM     23  N   LIG    1       23.752 -30.668  11.011  0.00  0.00    -0.265 N 
ATOM     24  C   LIG    1       24.554 -29.720  10.393  0.00  0.00    +0.405 C 
ATOM     25  O   LIG    1       25.289 -28.946  11.001  0.00  0.00    -0.226 OA
ATOM     26  C   LIG    1       22.611 -31.267  10.321  0.00  0.00    +0.126 C 
ATOM     27  C   LIG    1       21.330 -30.458  10.627  0.00  0.00    +0.103 C 
ENDBRANCH  18  24
ENDBRANCH   1  18
TORSDOF 3
ENDMDL
MODEL 5
REMARK VINA RESULT:      -5.5      1.655      2.192
REMARK  Name = *****
REMARK                            x       y       z     vdW  Elec       q    Type
REMARK                         _______ _______ _______ _____ _____    ______ ____
ROOT
ATOM      1  C   LIG    1       24.891 -30.795   7.952  0.00  0.00    +0.328 C 
ATOM      2  N   LIG    1       25.043 -30.931   9.388  0.00  0.00    -0.208 N 
ATOM      3  C   LIG    1       25.999 -31.868   9.741  0.00  0.00    +0.275 C 
ATOM      4  O   LIG    1       26.293 -32.266  10.860  0.00  0.00    -0.268 OA
ATOM      5  C   LIG    1       26.588 -32.357   8.487  0.00  0.00    +0.152 A 
ATOM      6  N   LIG    1       27.565 -33.278   8.367  0.00  0.00    -0.247 NA
ATOM      7  C   LIG    1       27.914 -33.517   7.078  0.00  0.00    +0.131 A 
ATOM      8  C   LIG    1       27.322 -32.859   5.997  0.00  0.00    +0.131 A 
ATOM      9  N   LIG    1       26.330 -31.938   6.141  0.00  0.00    -0.251 NA
ATOM     10  C   LIG    1       25.974 -31.715   7.428  0.00  0.00    +0.131 A 
ENDROOT
BRANCH   2  11
ATOM     11  C   LIG    1       24.157 -30.331  10.285  0.00  0.00    +0.131 A 
ATOM     12  N   LIG    1       24.666 -29.550  11.261  0.00  0.00    -0.238 NA
ATOM     13  C   LIG    1       23.776 -28.942  12.092  0.00  0.00    +0.133 A 
ATOM     14  C   LIG    1       22.407 -29.151  12.051  0.00  0.00    +0.059 A 
ATOM     15 CL   LIG    1       21.354 -28.377  13.162  0.00  0.00    -0.082 Cl
ATOM     16  C   LIG    1       21.909 -30.015  11.087  0.00  0.00    +0.025 A 
ATOM     17  C   LIG    1       22.792 -30.592  10.173  0.00  0.00    +0.045 A 
ENDBRANCH   2  11
BRANCH   1  18
ATOM     18  O   LIG    1       25.225 -29.450   7.615  0.00  0.00    -0.422 OA
BRANCH  18  24
ATOM     19  C   LIG    1       25.680 -24.158   5.802  0.00  0.00    +0.105 C 
ATOM     20  N   LIG    1       24.834 -25.051   6.591  0.00  0.00    -0.302 NA
ATOM     21  C   LIG    1       23.930 -25.849   5.725  0.00  0.00    +0.103 C 
ATOM     22  C   LIG    1       24.616 -27.029   5.002  0.00  0.00    +0.126 C 
ATOM     23  N   LIG    1       25.300 -27.869   5.982  0.00  0.00    -0.265 N 
ATOM     24  C   LIG    1       24.609 -28.942   6.523  0.00  0.00    +0.405 C 
ATOM     25  O   LIG    1       23.549 -29.369   6.074  0.00  0.00    -0.226 OA
ATOM     26  C   LIG    1       26.302 -27.138   6.756  0.00  0.00    +0.126 C 
ATOM     27  C   LIG    1       25.640 -25.936   7.467  0.00  0.00    +0.103 C 
ENDBRANCH  18  24
ENDBRANCH   1  18
TORSDOF 3
ENDMDL
MODEL 6
REMARK VINA RESULT:      -5.3      3.116      5.375
REMARK  Name = *****
REMARK                            x       y       z     vdW  Elec       q    Type
REMARK                         _______ _______ _______ _____ _____    ______ ____
ROOT
ATOM      1  C   LIG    1       24.853 -30.667  10.099  0.00  0.00    +0.328 C 
ATOM      2  N   LIG    1       23.821 -30.683  11.118  0.00  0.00    -0.208 N 
ATOM      3  C   LIG    1       24.292 -30.318  12.367  0.00  0.00    +0.275 C 
ATOM      4  O   LIG    1       23.692 -30.318  13.433  0.00  0.00    -0.268 OA
ATOM      5  C   LIG    1       25.708 -29.965  12.194  0.00  0.00    +0.152 A 
ATOM      6  N   LIG    1       26.553 -29.547  13.157  0.00  0.00    -0.247 NA
ATOM      7  C   LIG    1       27.799 -29.281  12.691  0.00  0.00    +0.131 A 
ATOM      8  C   LIG    1       28.153 -29.420  11.346  0.00  0.00    +0.131 A 
ATOM      9  N   LIG    1       27.284 -29.852  10.391  0.00  0.00    -0.251 NA
ATOM     10  C   LIG    1       26.047 -30.132  10.864  0.00  0.00    +0.131 A 
ENDROOT
BRANCH   2  11
ATOM     11  C   LIG    1       22.556 -31.222  10.879  0.00  0.00    +0.131 A 
ATOM     12  N   LIG    1       22.462 -32.542  10.613  0.00  0.00    -0.238 NA
ATOM     13  C   LIG    1       21.212 -33.048  10.429  0.00  0.00    +0.133 A 
ATOM     14  C   LIG    1       20.059 -32.280  10.406  0.00  0.00    +0.059 A 
ATOM     15 CL   LIG    1       18.522 -32.989  10.126  0.00  0.00    -0.082 Cl
ATOM     16  C   LIG    1       20.183 -30.914  10.609  0.00  0.00    +0.025 A 
ATOM     17  C   LIG    1       21.444 -30.380  10.877  0.00  0.00    +0.045 A 
ENDBRANCH   2  11
BRANCH   1  18
ATOM     18  O   LIG    1       24.467 -29.708   9.117  0.00  0.00    -0.422 OA
BRANCH  18  24
ATOM     19  C   LIG    1       25.801 -26.673   4.588  0.00  0.00    +0.105 C 
ATOM     20  N   LIG    1       24.671 -27.120   5.401  0.00  0.00    -0.302 NA
ATOM     21  C   LIG    1       24.245 -28.494   5.032  0.00  0.00    +0.103 C 
ATOM     22  C   LIG    1       25.163 -29.612   5.572  0.00  0.00    +0.126 C 
ATOM     23  N   LIG    1       25.308 -29.466   7.018  0.00  0.00    -0.265 N 
ATOM     24  C   LIG    1       24.426 -30.151   7.840  0.00  0.00    +0.405 C 
ATOM     25  O   LIG    1       23.679 -31.043   7.448  0.00  0.00    -0.226 OA
ATOM     26  C   LIG    1       25.862 -28.169   7.405  0.00  0.00    +0.126 C 
ATOM     27  C   LIG    1       24.972 -27.034   6.851  0.00  0.00    +0.103 C 
ENDBRANCH  18  24
ENDBRANCH   1  18
TORSDOF 3
ENDMDL
MODEL 7
REMARK VINA RESULT:      -5.3      4.787      7.569
REMARK  Name = *****
REMARK                            x       y       z     vdW  Elec       q    Type
REMARK                         _______ _______ _______ _____ _____    ______ ____
ROOT
ATOM      1  C   LIG    1       21.421 -30.022  11.365  0.00  0.00    +0.328 C 
ATOM      2  N   LIG    1       21.189 -29.604  12.735  0.00  0.00    -0.208 N 
ATOM      3  C   LIG    1       20.015 -30.113  13.261  0.00  0.00    +0.275 C 
ATOM      4  O   LIG    1       19.506 -29.875  14.348  0.00  0.00    -0.268 OA
ATOM      5  C   LIG    1       19.437 -30.983  12.229  0.00  0.00    +0.152 A 
ATOM      6  N   LIG    1       18.291 -31.689  12.325  0.00  0.00    -0.247 NA
ATOM      7  C   LIG    1       18.021 -32.415  11.212  0.00  0.00    +0.131 A 
ATOM      8  C   LIG    1       18.858 -32.433  10.094  0.00  0.00    +0.131 A 
ATOM      9  N   LIG    1       20.007 -31.706  10.015  0.00  0.00    -0.251 NA
ATOM     10  C   LIG    1       20.264 -30.969  11.122  0.00  0.00    +0.131 A 
ENDROOT
BRANCH   2  11
ATOM     11  C   LIG    1       21.969 -28.622  13.348  0.00  0.00    +0.131 A 
ATOM     12  N   LIG    1       22.756 -28.984  14.383  0.00  0.00    -0.238 NA
ATOM     13  C   LIG    1       23.539 -28.016  14.933  0.00  0.00    +0.133 A 
ATOM     14  C   LIG    1       23.504 -26.683  14.556  0.00  0.00    +0.059 A 
ATOM     15 CL   LIG    1       24.496 -25.513  15.327  0.00  0.00    -0.082 Cl
ATOM     16  C   LIG    1       22.636 -26.316  13.539  0.00  0.00    +0.025 A 
ATOM     17  C   LIG    1       21.878 -27.303  12.907  0.00  0.00    +0.045 A 
ENDBRANCH   2  11
BRANCH   1  18
ATOM     18  O   LIG    1       22.637 -30.765  11.348  0.00  0.00    -0.422 OA
BRANCH  18  24
ATOM     19  C   LIG    1       28.060 -29.323  11.509  0.00  0.00    +0.105 C 
ATOM     20  N   LIG    1       26.713 -28.779  11.351  0.00  0.00    -0.302 NA
ATOM     21  C   LIG    1       26.228 -28.925   9.955  0.00  0.00    +0.103 C 
ATOM     22  C   LIG    1       25.767 -30.353   9.587  0.00  0.00    +0.126 C 
ATOM     23  N   LIG    1       24.768 -30.805  10.552  0.00  0.00    -0.265 N 
ATOM     24  C   LIG    1       23.430 -30.580  10.267  0.00  0.00    +0.405 C 
ATOM     25  O   LIG    1       23.014 -30.232   9.166  0.00  0.00    -0.226 OA
ATOM     26  C   LIG    1       25.266 -30.806  11.926  0.00  0.00    +0.126 C 
ATOM     27  C   LIG    1       25.758 -29.392  12.306  0.00  0.00    +0.103 C 
ENDBRANCH  18  24
ENDBRANCH   1  18
TORSDOF 3
ENDMDL
MODEL 8
REMARK VINA RESULT:      -5.2      3.057      5.875
REMARK  Name = *****
REMARK                            x       y       z     vdW  Elec       q    Type
REMARK                         _______ _______ _______ _____ _____    ______ ____
ROOT
ATOM      1  C   LIG    1       25.002 -28.963   8.527  0.00  0.00    +0.328 C 
ATOM      2  N   LIG    1       24.185 -30.007   7.938  0.00  0.00    -0.208 N 
ATOM      3  C   LIG    1       24.018 -29.854   6.573  0.00  0.00    +0.275 C 
ATOM      4  O   LIG    1       23.321 -30.514   5.816  0.00  0.00    -0.268 OA
ATOM      5  C   LIG    1       24.816 -28.683   6.183  0.00  0.00    +0.152 A 
ATOM      6  N   LIG    1       24.944 -28.179   4.939  0.00  0.00    -0.247 NA
ATOM      7  C   LIG    1       25.761 -27.097   4.886  0.00  0.00    +0.131 A 
ATOM      8  C   LIG    1       26.407 -26.578   6.011  0.00  0.00    +0.131 A 
ATOM      9  N   LIG    1       26.257 -27.098   7.260  0.00  0.00    -0.251 NA
ATOM     10  C   LIG    1       25.427 -28.167   7.311  0.00  0.00    +0.131 A 
ENDROOT
BRANCH   2  11
ATOM     11  C   LIG    1       23.481 -30.923   8.721  0.00  0.00    +0.131 A 
ATOM     12  N   LIG    1       22.544 -30.452   9.570  0.00  0.00    -0.238 NA
ATOM     13  C   LIG    1       21.841 -31.371  10.287  0.00  0.00    +0.133 A 
ATOM     14  C   LIG    1       22.095 -32.734  10.264  0.00  0.00    +0.059 A 
ATOM     15 CL   LIG    1       21.190 -33.825  11.230  0.00  0.00    -0.082 Cl
ATOM     16  C   LIG    1       23.111 -33.192   9.439  0.00  0.00    +0.025 A 
ATOM     17  C   LIG    1       23.796 -32.279   8.635  0.00  0.00    +0.045 A 
ENDBRANCH   2  11
BRANCH   1  18
ATOM     18  O   LIG    1       26.151 -29.591   9.092  0.00  0.00    -0.422 OA
BRANCH  18  24
ATOM     19  C   LIG    1       25.744 -31.634  14.304  0.00  0.00    +0.105 C 
ATOM     20  N   LIG    1       25.133 -30.689  13.371  0.00  0.00    -0.302 NA
ATOM     21  C   LIG    1       25.867 -29.398  13.346  0.00  0.00    +0.103 C 
ATOM     22  C   LIG    1       27.191 -29.433  12.550  0.00  0.00    +0.126 C 
ATOM     23  N   LIG    1       26.933 -29.930  11.201  0.00  0.00    -0.265 N 
ATOM     24  C   LIG    1       26.659 -29.008  10.202  0.00  0.00    +0.405 C 
ATOM     25  O   LIG    1       26.837 -27.799  10.320  0.00  0.00    -0.226 OA
ATOM     26  C   LIG    1       26.338 -31.265  11.192  0.00  0.00    +0.126 C 
ATOM     27  C   LIG    1       25.025 -31.259  12.006  0.00  0.00    +0.103 C 
ENDBRANCH  18  24
ENDBRANCH   1  18
TORSDOF 3
ENDMDL
MODEL 9
REMARK VINA RESULT:      -5.2      5.204      9.682
REMARK  Name = *****
REMARK                            x       y       z     vdW  Elec       q    Type
REMARK                         _______ _______ _______ _____ _____    ______ ____
ROOT
ATOM      1  C   LIG    1       26.731 -21.760   7.377  0.00  0.00    +0.328 C 
ATOM      2  N   LIG    1       26.403 -20.912   6.247  0.00  0.00    -0.208 N 
ATOM      3  C   LIG    1       27.444 -20.075   5.882  0.00  0.00    +0.275 C 
ATOM      4  O   LIG    1       27.446 -19.194   5.034  0.00  0.00    -0.268 OA
ATOM      5  C   LIG    1       28.574 -20.407   6.760  0.00  0.00    +0.152 A 
ATOM      6  N   LIG    1       29.796 -19.835   6.745  0.00  0.00    -0.247 NA
ATOM      7  C   LIG    1       30.640 -20.362   7.667  0.00  0.00    +0.131 A 
ATOM      8  C   LIG    1       30.273 -21.399   8.528  0.00  0.00    +0.131 A 
ATOM      9  N   LIG    1       29.031 -21.956   8.532  0.00  0.00    -0.251 NA
ATOM     10  C   LIG    1       28.186 -21.416   7.622  0.00  0.00    +0.131 A 
ENDROOT
BRANCH   2  11
ATOM     11  C   LIG    1       25.104 -20.819   5.747  0.00  0.00    +0.131 A 
ATOM     12  N   LIG    1       24.881 -21.192   4.469  0.00  0.00    -0.238 NA
ATOM     13  C   LIG    1       23.597 -21.134   4.023  0.00  0.00    +0.133 A 
ATOM     14  C   LIG    1       22.539 -20.633   4.764  0.00  0.00    +0.059 A 
ATOM     15 CL   LIG    1       20.953 -20.556   4.114  0.00  0.00    -0.082 Cl
ATOM     16  C   LIG    1       22.800 -20.186   6.051  0.00  0.00    +0.025 A 
ATOM     17  C   LIG    1       24.094 -20.306   6.560  0.00  0.00    +0.045 A 
ENDBRANCH   2  11
BRANCH   1  18
ATOM     18  O   LIG    1       26.645 -23.112   6.934  0.00  0.00    -0.422 OA
BRANCH  18  24
ATOM     19  C   LIG    1       25.284 -28.226   5.063  0.00  0.00    +0.105 C 
ATOM     20  N   LIG    1       25.164 -26.802   4.756  0.00  0.00    -0.302 NA
ATOM     21  C   LIG    1       24.043 -26.177   5.502  0.00  0.00    +0.103 C 
ATOM     22  C   LIG    1       24.345 -25.899   6.991  0.00  0.00    +0.126 C 
ATOM     23  N   LIG    1       25.568 -25.109   7.100  0.00  0.00    -0.265 N 
ATOM     24  C   LIG    1       25.457 -23.727   7.134  0.00  0.00    +0.405 C 
ATOM     25  O   LIG    1       24.398 -23.130   7.304  0.00  0.00    -0.226 OA
ATOM     26  C   LIG    1       26.725 -25.767   6.495  0.00  0.00    +0.126 C 
ATOM     27  C   LIG    1       26.434 -26.079   5.010  0.00  0.00    +0.103 C 
ENDBRANCH  18  24
ENDBRANCH   1  18
TORSDOF 3
ENDMDL
