MODEL 1
REMARK VINA RESULT:       0.8      0.000      0.000
REMARK  Name = *****
REMARK                            x       y       z     vdW  Elec       q    Type
REMARK                         _______ _______ _______ _____ _____    ______ ____
ROOT
ATOM      1  C   LIG    1       27.191 -25.234  13.025  0.00  0.00    +0.010 C 
ATOM      2  C   LIG    1       26.749 -26.242  13.790  0.00  0.00    -0.046 C 
ATOM      3  C   LIG    1       26.846 -27.726  13.530  0.00  0.00    +0.144 C 
ATOM      4  O   LIG    1       26.318 -28.343  14.732  0.00  0.00    -0.369 OA
ATOM      5  C   LIG    1       25.525 -27.372  15.438  0.00  0.00    +0.123 C 
ATOM      6  C   LIG    1       24.050 -27.419  15.008  0.00  0.00    +0.037 C 
ATOM      7  C   LIG    1       23.436 -28.789  15.297  0.00  0.00    +0.068 C 
ATOM      8  C   LIG    1       21.992 -28.950  14.821  0.00  0.00    +0.174 C 
ATOM      9  O   LIG    1       21.533 -30.265  15.299  0.00  0.00    -0.340 OA
ATOM     10  C   LIG    1       20.076 -30.287  15.294  0.00  0.00    +0.182 C 
ATOM     11  C   LIG    1       19.703 -28.795  15.266  0.00  0.00    +0.155 C 
ATOM     12  O   LIG    1       19.308 -28.497  13.918  0.00  0.00    -0.365 OA
ATOM     13  C   LIG    1       19.682 -29.622  13.121  0.00  0.00    +0.181 C 
ATOM     14  C   LIG    1       21.181 -29.821  12.811  0.00  0.00    +0.184 C 
ATOM     15  C   LIG    1       21.222 -30.627  11.514  0.00  0.00    +0.179 C 
ATOM     16  C   LIG    1       20.266 -31.875  11.886  0.00  0.00    +0.150 C 
ATOM     17  C   LIG    1       20.750 -33.227  11.367  0.00  0.00    +0.037 C 
ATOM     18  C   LIG    1       22.264 -33.309  11.228  0.00  0.00    +0.034 C 
ATOM     19  C   LIG    1       22.846 -32.115  10.478  0.00  0.00    +0.126 C 
ATOM     20  C   LIG    1       22.396 -31.948   9.021  0.00  0.00    +0.106 C 
ATOM     21  C   LIG    1       23.282 -32.718   8.051  0.00  0.00    +0.136 C 
ATOM     22  C   LIG    1       23.461 -32.119   6.663  0.00  0.00    +0.083 C 
ATOM     23  C   LIG    1       24.848 -32.262   6.023  0.00  0.00    +0.056 C 
ATOM     24  C   LIG    1       26.085 -31.826   6.826  0.00  0.00    +0.128 C 
ATOM     25  C   LIG    1       25.965 -31.031   8.134  0.00  0.00    +0.068 C 
ATOM     26  C   LIG    1       26.774 -29.715   8.054  0.00  0.00    +0.147 C 
ATOM     27  C   LIG    1       26.242 -28.743   7.008  0.00  0.00    -0.045 C 
ATOM     28  C   LIG    1       26.919 -28.505   5.868  0.00  0.00    +0.010 C 
ATOM     29  C   LIG    1       24.950 -28.060   7.403  0.00  0.00    +0.016 C 
ATOM     30  C   LIG    1       24.369 -27.062   6.397  0.00  0.00    +0.012 C 
ATOM     31  C   LIG    1       25.202 -27.369   8.741  0.00  0.00    +0.039 C 
ATOM     32  C   LIG    1       25.726 -28.356   9.794  0.00  0.00    +0.120 C 
ATOM     33  C   LIG    1       26.178 -27.559  11.031  0.00  0.00    +0.034 C 
ATOM     34  O   LIG    1       26.877 -29.064   9.324  0.00  0.00    -0.369 OA
ATOM     35  O   LIG    1       26.876 -33.021   7.018  0.00  0.00    -0.370 OA
ATOM     36  C   LIG    1       26.691 -33.815   5.821  0.00  0.00    +0.150 C 
ATOM     37  C   LIG    1       25.185 -33.684   5.534  0.00  0.00    +0.152 C 
ATOM     38  O   LIG    1       23.758 -33.822   8.344  0.00  0.00    -0.297 OA
ATOM     39  O   LIG    1       20.014 -32.013  13.350  0.00  0.00    -0.365 OA
ATOM     40  O   LIG    1       22.590 -30.930  11.231  0.00  0.00    -0.368 OA
ATOM     41  C   LIG    1       19.431 -30.834  13.969  0.00  0.00    +0.181 C 
ATOM     42  O   LIG    1       21.977 -28.784  13.346  0.00  0.00    -0.340 OA
ATOM     43  C   LIG    1       20.990 -28.028  15.498  0.00  0.00    +0.099 C 
ATOM     44  C   LIG    1       26.126 -28.367  12.324  0.00  0.00    +0.038 C 
ATOM     45  C   LIG    1       26.177 -26.033  15.151  0.00  0.00    +0.064 C 
ENDROOT
BRANCH  37  46
ATOM     46  O   LIG    1       24.794 -33.822   4.168  0.00  0.00    -0.377 OA
ATOM     47  C   LIG    1       23.388 -33.795   3.949  0.00  0.00    +0.194 C 
ENDBRANCH  37  46
BRANCH  36  48
ATOM     48  C   LIG    1       27.660 -33.319   4.718  0.00  0.00    +0.066 C 
BRANCH  48  49
ATOM     49  C   LIG    1       27.109 -33.583   3.298  0.00  0.00    +0.131 C 
BRANCH  49  50
ATOM     50  O   LIG    1       28.174 -33.757   2.363  0.00  0.00    -0.391 OA
ATOM     51  H   LIG    1       27.802 -34.191   1.567  0.00  0.00    +0.210 HD
ENDBRANCH  49  50
BRANCH  49  52
ATOM     52  C   LIG    1       26.218 -32.446   2.747  0.00  0.00    +0.109 C 
BRANCH  52  53
ATOM     53  N   LIG    1       25.754 -32.630   1.374  0.00  0.00    -0.328 NA
ATOM     54  H   LIG    1       25.518 -33.609   1.219  0.00  0.00    +0.118 HD
ATOM     55  H   LIG    1       26.505 -32.399   0.727  0.00  0.00    +0.118 HD
ENDBRANCH  52  53
ENDBRANCH  49  52
ENDBRANCH  48  49
ENDBRANCH  36  48
TORSDOF 6
ENDMDL
