MODEL 1
REMARK VINA RESULT:      -4.7      0.000      0.000
REMARK  Name = *****
REMARK                            x       y       z     vdW  Elec       q    Type
REMARK                         _______ _______ _______ _____ _____    ______ ____
ROOT
ATOM      1  O   LIG    1       29.104 -12.192   4.804  0.00  0.00    -0.247 OA
ATOM      2  C   LIG    1       28.057 -12.774   4.541  0.00  0.00    +0.327 C 
ATOM      3  N   LIG    1       27.769 -13.236   3.285  0.00  0.00    -0.273 N 
ATOM      4  H   LIG    1       28.466 -13.090   2.572  0.00  0.00    +0.173 HD
ATOM      5  C   LIG    1       26.654 -13.958   2.938  0.00  0.00    +0.289 C 
ATOM      6  O   LIG    1       26.495 -14.415   1.812  0.00  0.00    -0.265 OA
ATOM      7  C   LIG    1       25.667 -14.150   4.025  0.00  0.00    +0.203 C 
ATOM      8  F   LIG    1       24.538 -14.820   3.736  0.00  0.00    -0.198 F 
ATOM      9  C   LIG    1       25.930 -13.674   5.243  0.00  0.00    +0.131 C 
ATOM     10  N   LIG    1       27.100 -13.008   5.496  0.00  0.00    -0.311 N 
ATOM     11  H   LIG    1       27.308 -12.662   6.426  0.00  0.00    +0.170 HD
ENDROOT
TORSDOF 0
ENDMDL
MODEL 2
REMARK VINA RESULT:      -4.6      7.028      7.213
REMARK  Name = *****
REMARK                            x       y       z     vdW  Elec       q    Type
REMARK                         _______ _______ _______ _____ _____    ______ ____
ROOT
ATOM      1  O   LIG    1       28.236 -19.950   5.617  0.00  0.00    -0.247 OA
ATOM      2  C   LIG    1       27.030 -20.168   5.667  0.00  0.00    +0.327 C 
ATOM      3  N   LIG    1       26.237 -20.167   4.550  0.00  0.00    -0.273 N 
ATOM      4  H   LIG    1       26.689 -19.991   3.667  0.00  0.00    +0.173 HD
ATOM      5  C   LIG    1       24.899 -20.474   4.523  0.00  0.00    +0.289 C 
ATOM      6  O   LIG    1       24.264 -20.537   3.477  0.00  0.00    -0.265 OA
ATOM      7  C   LIG    1       24.287 -20.732   5.846  0.00  0.00    +0.203 C 
ATOM      8  F   LIG    1       22.971 -21.004   5.887  0.00  0.00    -0.198 F 
ATOM      9  C   LIG    1       25.049 -20.703   6.940  0.00  0.00    +0.131 C 
ATOM     10  N   LIG    1       26.390 -20.434   6.851  0.00  0.00    -0.311 N 
ATOM     11  H   LIG    1       26.973 -20.430   7.680  0.00  0.00    +0.170 HD
ENDROOT
TORSDOF 0
ENDMDL
MODEL 3
REMARK VINA RESULT:      -4.4      7.218      7.709
REMARK  Name = *****
REMARK                            x       y       z     vdW  Elec       q    Type
REMARK                         _______ _______ _______ _____ _____    ______ ____
ROOT
ATOM      1  O   LIG    1       27.628 -20.404   6.114  0.00  0.00    -0.247 OA
ATOM      2  C   LIG    1       26.462 -20.457   5.739  0.00  0.00    +0.327 C 
ATOM      3  N   LIG    1       25.438 -20.815   6.574  0.00  0.00    -0.273 N 
ATOM      4  H   LIG    1       25.678 -21.027   7.530  0.00  0.00    +0.173 HD
ATOM      5  C   LIG    1       24.105 -20.824   6.243  0.00  0.00    +0.289 C 
ATOM      6  O   LIG    1       23.229 -21.075   7.062  0.00  0.00    -0.265 OA
ATOM      7  C   LIG    1       23.808 -20.498   4.829  0.00  0.00    +0.203 C 
ATOM      8  F   LIG    1       22.522 -20.525   4.436  0.00  0.00    -0.198 F 
ATOM      9  C   LIG    1       24.806 -20.179   4.004  0.00  0.00    +0.131 C 
ATOM     10  N   LIG    1       26.101 -20.152   4.451  0.00  0.00    -0.311 N 
ATOM     11  H   LIG    1       26.858 -19.891   3.829  0.00  0.00    +0.170 HD
ENDROOT
TORSDOF 0
ENDMDL
MODEL 4
REMARK VINA RESULT:      -4.4      1.488      1.517
REMARK  Name = *****
REMARK                            x       y       z     vdW  Elec       q    Type
REMARK                         _______ _______ _______ _____ _____    ______ ____
ROOT
ATOM      1  O   LIG    1       28.932 -13.210   3.774  0.00  0.00    -0.247 OA
ATOM      2  C   LIG    1       27.797 -13.672   3.794  0.00  0.00    +0.327 C 
ATOM      3  N   LIG    1       27.515 -14.946   3.380  0.00  0.00    -0.273 N 
ATOM      4  H   LIG    1       28.290 -15.508   3.063  0.00  0.00    +0.173 HD
ATOM      5  C   LIG    1       26.284 -15.552   3.444  0.00  0.00    +0.289 C 
ATOM      6  O   LIG    1       26.115 -16.725   3.134  0.00  0.00    -0.265 OA
ATOM      7  C   LIG    1       25.183 -14.685   3.923  0.00  0.00    +0.203 C 
ATOM      8  F   LIG    1       23.947 -15.212   3.975  0.00  0.00    -0.198 F 
ATOM      9  C   LIG    1       25.448 -13.433   4.298  0.00  0.00    +0.131 C 
ATOM     10  N   LIG    1       26.725 -12.941   4.241  0.00  0.00    -0.311 N 
ATOM     11  H   LIG    1       26.929 -11.995   4.543  0.00  0.00    +0.170 HD
ENDROOT
TORSDOF 0
ENDMDL
MODEL 5
REMARK VINA RESULT:      -4.4      2.317      2.861
REMARK  Name = *****
REMARK                            x       y       z     vdW  Elec       q    Type
REMARK                         _______ _______ _______ _____ _____    ______ ____
ROOT
ATOM      1  O   LIG    1       23.479 -11.775   3.302  0.00  0.00    -0.247 OA
ATOM      2  C   LIG    1       24.457 -12.474   3.542  0.00  0.00    +0.327 C 
ATOM      3  N   LIG    1       25.138 -13.144   2.561  0.00  0.00    -0.273 N 
ATOM      4  H   LIG    1       24.810 -13.031   1.615  0.00  0.00    +0.173 HD
ATOM      5  C   LIG    1       26.281 -13.883   2.746  0.00  0.00    +0.289 C 
ATOM      6  O   LIG    1       26.891 -14.390   1.812  0.00  0.00    -0.265 OA
ATOM      7  C   LIG    1       26.724 -14.010   4.154  0.00  0.00    +0.203 C 
ATOM      8  F   LIG    1       27.818 -14.752   4.402  0.00  0.00    -0.198 F 
ATOM      9  C   LIG    1       26.045 -13.386   5.116  0.00  0.00    +0.131 C 
ATOM     10  N   LIG    1       24.942 -12.630   4.816  0.00  0.00    -0.311 N 
ATOM     11  H   LIG    1       24.436 -12.140   5.545  0.00  0.00    +0.170 HD
ENDROOT
TORSDOF 0
ENDMDL
MODEL 6
REMARK VINA RESULT:      -4.3      7.148      7.930
REMARK  Name = *****
REMARK                            x       y       z     vdW  Elec       q    Type
REMARK                         _______ _______ _______ _____ _____    ______ ____
ROOT
ATOM      1  O   LIG    1       21.664 -18.286   4.060  0.00  0.00    -0.247 OA
ATOM      2  C   LIG    1       22.602 -18.979   4.438  0.00  0.00    +0.327 C 
ATOM      3  N   LIG    1       22.562 -19.697   5.602  0.00  0.00    -0.273 N 
ATOM      4  H   LIG    1       21.713 -19.645   6.144  0.00  0.00    +0.173 HD
ATOM      5  C   LIG    1       23.542 -20.549   6.049  0.00  0.00    +0.289 C 
ATOM      6  O   LIG    1       23.409 -21.227   7.061  0.00  0.00    -0.265 OA
ATOM      7  C   LIG    1       24.763 -20.593   5.212  0.00  0.00    +0.203 C 
ATOM      8  F   LIG    1       25.773 -21.383   5.617  0.00  0.00    -0.198 F 
ATOM      9  C   LIG    1       24.819 -19.871   4.093  0.00  0.00    +0.131 C 
ATOM     10  N   LIG    1       23.761 -19.088   3.711  0.00  0.00    -0.311 N 
ATOM     11  H   LIG    1       23.796 -18.554   2.850  0.00  0.00    +0.170 HD
ENDROOT
TORSDOF 0
ENDMDL
MODEL 7
REMARK VINA RESULT:      -4.3      6.316      6.942
REMARK  Name = *****
REMARK                            x       y       z     vdW  Elec       q    Type
REMARK                         _______ _______ _______ _____ _____    ______ ____
ROOT
ATOM      1  O   LIG    1       25.985 -17.945   2.994  0.00  0.00    -0.247 OA
ATOM      2  C   LIG    1       25.267 -18.754   3.571  0.00  0.00    +0.327 C 
ATOM      3  N   LIG    1       23.940 -18.516   3.813  0.00  0.00    -0.273 N 
ATOM      4  H   LIG    1       23.563 -17.641   3.484  0.00  0.00    +0.173 HD
ATOM      5  C   LIG    1       23.062 -19.403   4.386  0.00  0.00    +0.289 C 
ATOM      6  O   LIG    1       21.867 -19.160   4.499  0.00  0.00    -0.265 OA
ATOM      7  C   LIG    1       23.667 -20.676   4.843  0.00  0.00    +0.203 C 
ATOM      8  F   LIG    1       22.863 -21.571   5.444  0.00  0.00    -0.198 F 
ATOM      9  C   LIG    1       24.965 -20.899   4.638  0.00  0.00    +0.131 C 
ATOM     10  N   LIG    1       25.744 -19.963   4.010  0.00  0.00    -0.311 N 
ATOM     11  H   LIG    1       26.727 -20.140   3.837  0.00  0.00    +0.170 HD
ENDROOT
TORSDOF 0
ENDMDL
MODEL 8
REMARK VINA RESULT:      -4.2      2.423      3.724
REMARK  Name = *****
REMARK                            x       y       z     vdW  Elec       q    Type
REMARK                         _______ _______ _______ _____ _____    ______ ____
ROOT
ATOM      1  O   LIG    1       23.544 -13.701   3.233  0.00  0.00    -0.247 OA
ATOM      2  C   LIG    1       24.761 -13.678   3.383  0.00  0.00    +0.327 C 
ATOM      3  N   LIG    1       25.346 -13.539   4.612  0.00  0.00    -0.273 N 
ATOM      4  H   LIG    1       24.732 -13.468   5.408  0.00  0.00    +0.173 HD
ATOM      5  C   LIG    1       26.696 -13.579   4.862  0.00  0.00    +0.289 C 
ATOM      6  O   LIG    1       27.153 -13.532   5.998  0.00  0.00    -0.265 OA
ATOM      7  C   LIG    1       27.553 -13.694   3.660  0.00  0.00    +0.203 C 
ATOM      8  F   LIG    1       28.886 -13.702   3.838  0.00  0.00    -0.198 F 
ATOM      9  C   LIG    1       26.988 -13.797   2.457  0.00  0.00    +0.131 C 
ATOM     10  N   LIG    1       25.624 -13.797   2.323  0.00  0.00    -0.311 N 
ATOM     11  H   LIG    1       25.193 -13.894   1.410  0.00  0.00    +0.170 HD
ENDROOT
TORSDOF 0
ENDMDL
MODEL 9
REMARK VINA RESULT:      -4.2      2.194      3.054
REMARK  Name = *****
REMARK                            x       y       z     vdW  Elec       q    Type
REMARK                         _______ _______ _______ _____ _____    ______ ____
ROOT
ATOM      1  O   LIG    1       24.891 -12.178   2.001  0.00  0.00    -0.247 OA
ATOM      2  C   LIG    1       25.636 -13.003   2.517  0.00  0.00    +0.327 C 
ATOM      3  N   LIG    1       26.958 -12.746   2.765  0.00  0.00    -0.273 N 
ATOM      4  H   LIG    1       27.302 -11.832   2.515  0.00  0.00    +0.173 HD
ATOM      5  C   LIG    1       27.829 -13.593   3.405  0.00  0.00    +0.289 C 
ATOM      6  O   LIG    1       28.981 -13.269   3.670  0.00  0.00    -0.265 OA
ATOM      7  C   LIG    1       27.270 -14.918   3.757  0.00  0.00    +0.203 C 
ATOM      8  F   LIG    1       28.086 -15.805   4.355  0.00  0.00    -0.198 F 
ATOM      9  C   LIG    1       25.992 -15.185   3.489  0.00  0.00    +0.131 C 
ATOM     10  N   LIG    1       25.193 -14.247   2.890  0.00  0.00    -0.311 N 
ATOM     11  H   LIG    1       24.215 -14.443   2.703  0.00  0.00    +0.170 HD
ENDROOT
TORSDOF 0
ENDMDL
