MODEL 1
REMARK VINA RESULT:      -9.0      0.000      0.000
REMARK  Name = *****
REMARK                            x       y       z     vdW  Elec       q    Type
REMARK                         _______ _______ _______ _____ _____    ______ ____
ROOT
ATOM      1  C   LIG    1       30.890 -19.437   7.793  0.00  0.00    +0.127 A 
ATOM      2  C   LIG    1       29.731 -19.389   6.994  0.00  0.00    +0.013 A 
ATOM      3  C   LIG    1       29.494 -18.250   6.038  0.00  0.00    +0.049 C 
ATOM      4  C   LIG    1       28.795 -20.424   7.147  0.00  0.00    +0.060 A 
ATOM      5  N   LIG    1       29.006 -21.470   7.987  0.00  0.00    -0.259 NA
ATOM      6  C   LIG    1       30.134 -21.494   8.716  0.00  0.00    +0.114 A 
ATOM      7  C   LIG    1       31.098 -20.513   8.652  0.00  0.00    +0.065 A 
ENDROOT
BRANCH   1   8
ATOM      8  O   LIG    1       31.764 -18.388   7.663  0.00  0.00    -0.491 OA
BRANCH   8   9
ATOM      9  C   LIG    1       32.189 -17.724   8.855  0.00  0.00    +0.231 C 
BRANCH   9  10
ATOM     10  C   LIG    1       31.080 -16.782   9.297  0.00  0.00    +0.069 C 
BRANCH  10  11
ATOM     11  C   LIG    1       30.441 -17.215  10.614  0.00  0.00    +0.163 C 
BRANCH  11  13
ATOM     12  C   LIG    1       31.748 -16.162  12.309  0.00  0.00    +0.193 C 
ATOM     13  O   LIG    1       30.514 -16.184  11.602  0.00  0.00    -0.383 OA
ENDBRANCH  11  13
ENDBRANCH  10  11
ENDBRANCH   9  10
ENDBRANCH   8   9
ENDBRANCH   1   8
BRANCH   4  14
ATOM     14  C   LIG    1       27.458 -20.451   6.445  0.00  0.00    +0.167 C 
BRANCH  14  15
ATOM     15  S   LIG    1       26.039 -20.583   7.584  0.00  0.00    +0.095 S 
ATOM     16  O   LIG    1       26.533 -20.610   9.002  0.00  0.00    -0.249 OA
BRANCH  15  17
ATOM     17  C   LIG    1       25.600 -22.215   7.196  0.00  0.00    +0.198 A 
ATOM     18  N   LIG    1       26.529 -23.215   7.069  0.00  0.00    -0.331 N 
ATOM     19  H   LIG    1       27.519 -23.089   7.190  0.00  0.00    +0.168 HD
ATOM     20  C   LIG    1       25.868 -24.356   6.696  0.00  0.00    +0.067 A 
ATOM     21  C   LIG    1       24.529 -23.978   6.664  0.00  0.00    +0.090 A 
ATOM     22  C   LIG    1       23.558 -24.939   6.352  0.00  0.00    +0.030 A 
ATOM     23  C   LIG    1       23.974 -26.249   6.079  0.00  0.00    +0.002 A 
ATOM     24  C   LIG    1       25.330 -26.590   6.095  0.00  0.00    +0.002 A 
ATOM     25  C   LIG    1       26.314 -25.645   6.404  0.00  0.00    +0.028 A 
ATOM     26  N   LIG    1       24.381 -22.645   6.973  0.00  0.00    -0.220 NA
ENDBRANCH  15  17
ENDBRANCH  14  15
ENDBRANCH   4  14
TORSDOF 8
ENDMDL
MODEL 2
REMARK VINA RESULT:      -8.3      2.589      3.440
REMARK  Name = *****
REMARK                            x       y       z     vdW  Elec       q    Type
REMARK                         _______ _______ _______ _____ _____    ______ ____
ROOT
ATOM      1  C   LIG    1       31.143 -19.205   8.122  0.00  0.00    +0.127 A 
ATOM      2  C   LIG    1       30.088 -19.640   7.296  0.00  0.00    +0.013 A 
ATOM      3  C   LIG    1       29.540 -18.756   6.208  0.00  0.00    +0.049 C 
ATOM      4  C   LIG    1       29.551 -20.912   7.548  0.00  0.00    +0.060 A 
ATOM      5  N   LIG    1       30.051 -21.730   8.509  0.00  0.00    -0.259 NA
ATOM      6  C   LIG    1       31.072 -21.290   9.262  0.00  0.00    +0.114 A 
ATOM      7  C   LIG    1       31.649 -20.050   9.107  0.00  0.00    +0.065 A 
ENDROOT
BRANCH   1   8
ATOM      8  O   LIG    1       31.616 -17.939   7.891  0.00  0.00    -0.491 OA
BRANCH   8   9
ATOM      9  C   LIG    1       32.030 -17.166   9.019  0.00  0.00    +0.231 C 
BRANCH   9  10
ATOM     10  C   LIG    1       30.787 -16.675   9.743  0.00  0.00    +0.069 C 
BRANCH  10  11
ATOM     11  C   LIG    1       30.739 -17.144  11.196  0.00  0.00    +0.163 C 
BRANCH  11  13
ATOM     12  C   LIG    1       32.297 -16.114  12.680  0.00  0.00    +0.193 C 
ATOM     13  O   LIG    1       30.996 -16.072  12.106  0.00  0.00    -0.383 OA
ENDBRANCH  11  13
ENDBRANCH  10  11
ENDBRANCH   9  10
ENDBRANCH   8   9
ENDBRANCH   1   8
BRANCH   4  14
ATOM     14  C   LIG    1       28.349 -21.469   6.823  0.00  0.00    +0.167 C 
BRANCH  14  15
ATOM     15  S   LIG    1       26.855 -21.579   7.864  0.00  0.00    +0.095 S 
ATOM     16  O   LIG    1       26.435 -23.015   7.989  0.00  0.00    -0.249 OA
BRANCH  15  17
ATOM     17  C   LIG    1       25.752 -20.851   6.741  0.00  0.00    +0.198 A 
ATOM     18  N   LIG    1       24.411 -20.737   6.999  0.00  0.00    -0.331 N 
ATOM     19  H   LIG    1       23.966 -21.056   7.842  0.00  0.00    +0.168 HD
ATOM     20  C   LIG    1       23.818 -20.184   5.894  0.00  0.00    +0.067 A 
ATOM     21  C   LIG    1       24.877 -19.945   5.024  0.00  0.00    +0.090 A 
ATOM     22  C   LIG    1       24.618 -19.334   3.789  0.00  0.00    +0.030 A 
ATOM     23  C   LIG    1       23.297 -18.988   3.476  0.00  0.00    +0.002 A 
ATOM     24  C   LIG    1       22.252 -19.264   4.363  0.00  0.00    +0.002 A 
ATOM     25  C   LIG    1       22.490 -19.874   5.599  0.00  0.00    +0.028 A 
ATOM     26  N   LIG    1       26.070 -20.369   5.563  0.00  0.00    -0.220 NA
ENDBRANCH  15  17
ENDBRANCH  14  15
ENDBRANCH   4  14
TORSDOF 8
ENDMDL
MODEL 3
REMARK VINA RESULT:      -8.3      1.375      2.231
REMARK  Name = *****
REMARK                            x       y       z     vdW  Elec       q    Type
REMARK                         _______ _______ _______ _____ _____    ______ ____
ROOT
ATOM      1  C   LIG    1       30.414 -19.560   7.057  0.00  0.00    +0.127 A 
ATOM      2  C   LIG    1       29.580 -20.571   7.575  0.00  0.00    +0.013 A 
ATOM      3  C   LIG    1       30.047 -21.465   8.692  0.00  0.00    +0.049 C 
ATOM      4  C   LIG    1       28.314 -20.729   6.989  0.00  0.00    +0.060 A 
ATOM      5  N   LIG    1       27.869 -19.914   5.999  0.00  0.00    -0.259 NA
ATOM      6  C   LIG    1       28.683 -18.947   5.546  0.00  0.00    +0.114 A 
ATOM      7  C   LIG    1       29.950 -18.730   6.040  0.00  0.00    +0.065 A 
ENDROOT
BRANCH   1   8
ATOM      8  O   LIG    1       31.665 -19.459   7.610  0.00  0.00    -0.491 OA
BRANCH   8   9
ATOM      9  C   LIG    1       32.039 -18.204   8.183  0.00  0.00    +0.231 C 
BRANCH   9  10
ATOM     10  C   LIG    1       31.443 -18.120   9.579  0.00  0.00    +0.069 C 
BRANCH  10  11
ATOM     11  C   LIG    1       30.369 -17.039   9.687  0.00  0.00    +0.163 C 
BRANCH  11  13
ATOM     12  C   LIG    1       31.427 -16.423  11.734  0.00  0.00    +0.193 C 
ATOM     13  O   LIG    1       30.200 -16.594  11.035  0.00  0.00    -0.383 OA
ENDBRANCH  11  13
ENDBRANCH  10  11
ENDBRANCH   9  10
ENDBRANCH   8   9
ENDBRANCH   1   8
BRANCH   4  14
ATOM     14  C   LIG    1       27.356 -21.836   7.360  0.00  0.00    +0.167 C 
BRANCH  14  15
ATOM     15  S   LIG    1       25.804 -21.809   6.401  0.00  0.00    +0.095 S 
ATOM     16  O   LIG    1       24.683 -21.320   7.273  0.00  0.00    -0.249 OA
BRANCH  15  17
ATOM     17  C   LIG    1       25.598 -23.526   6.272  0.00  0.00    +0.198 A 
ATOM     18  N   LIG    1       24.902 -24.107   5.243  0.00  0.00    -0.331 N 
ATOM     19  H   LIG    1       24.465 -23.597   4.495  0.00  0.00    +0.168 HD
ATOM     20  C   LIG    1       24.869 -25.457   5.470  0.00  0.00    +0.067 A 
ATOM     21  C   LIG    1       25.611 -25.625   6.635  0.00  0.00    +0.090 A 
ATOM     22  C   LIG    1       25.814 -26.919   7.132  0.00  0.00    +0.030 A 
ATOM     23  C   LIG    1       25.256 -28.000   6.437  0.00  0.00    +0.002 A 
ATOM     24  C   LIG    1       24.494 -27.796   5.282  0.00  0.00    +0.002 A 
ATOM     25  C   LIG    1       24.280 -26.511   4.771  0.00  0.00    +0.028 A 
ATOM     26  N   LIG    1       26.054 -24.416   7.122  0.00  0.00    -0.220 NA
ENDBRANCH  15  17
ENDBRANCH  14  15
ENDBRANCH   4  14
TORSDOF 8
ENDMDL
MODEL 4
REMARK VINA RESULT:      -8.3      2.469      3.525
REMARK  Name = *****
REMARK                            x       y       z     vdW  Elec       q    Type
REMARK                         _______ _______ _______ _____ _____    ______ ____
ROOT
ATOM      1  C   LIG    1       30.772 -19.334   7.408  0.00  0.00    +0.127 A 
ATOM      2  C   LIG    1       30.006 -20.487   7.674  0.00  0.00    +0.013 A 
ATOM      3  C   LIG    1       30.409 -21.454   8.754  0.00  0.00    +0.049 C 
ATOM      4  C   LIG    1       28.875 -20.711   6.873  0.00  0.00    +0.060 A 
ATOM      5  N   LIG    1       28.485 -19.835   5.912  0.00  0.00    -0.259 NA
ATOM      6  C   LIG    1       29.227 -18.736   5.702  0.00  0.00    +0.114 A 
ATOM      7  C   LIG    1       30.365 -18.442   6.419  0.00  0.00    +0.065 A 
ENDROOT
BRANCH   1   8
ATOM      8  O   LIG    1       31.900 -19.164   8.168  0.00  0.00    -0.491 OA
BRANCH   8   9
ATOM      9  C   LIG    1       32.109 -17.886   8.773  0.00  0.00    +0.231 C 
BRANCH   9  10
ATOM     10  C   LIG    1       31.678 -17.970  10.228  0.00  0.00    +0.069 C 
BRANCH  10  11
ATOM     11  C   LIG    1       30.308 -17.338  10.466  0.00  0.00    +0.163 C 
BRANCH  11  13
ATOM     12  C   LIG    1       31.578 -16.239  12.160  0.00  0.00    +0.193 C 
ATOM     13  O   LIG    1       30.381 -16.251  11.391  0.00  0.00    -0.383 OA
ENDBRANCH  11  13
ENDBRANCH  10  11
ENDBRANCH   9  10
ENDBRANCH   8   9
ENDBRANCH   1   8
BRANCH   4  14
ATOM     14  C   LIG    1       28.022 -21.954   6.964  0.00  0.00    +0.167 C 
BRANCH  14  15
ATOM     15  S   LIG    1       26.590 -21.776   8.080  0.00  0.00    +0.095 S 
ATOM     16  O   LIG    1       26.055 -23.135   8.431  0.00  0.00    -0.249 OA
BRANCH  15  17
ATOM     17  C   LIG    1       25.489 -21.111   6.918  0.00  0.00    +0.198 A 
ATOM     18  N   LIG    1       25.837 -20.908   5.608  0.00  0.00    -0.331 N 
ATOM     19  H   LIG    1       26.739 -21.127   5.220  0.00  0.00    +0.168 HD
ATOM     20  C   LIG    1       24.775 -20.314   4.980  0.00  0.00    +0.067 A 
ATOM     21  C   LIG    1       23.798 -20.232   5.967  0.00  0.00    +0.090 A 
ATOM     22  C   LIG    1       22.543 -19.700   5.640  0.00  0.00    +0.030 A 
ATOM     23  C   LIG    1       22.320 -19.265   4.327  0.00  0.00    +0.002 A 
ATOM     24  C   LIG    1       23.332 -19.339   3.364  0.00  0.00    +0.002 A 
ATOM     25  C   LIG    1       24.590 -19.866   3.671  0.00  0.00    +0.028 A 
ATOM     26  N   LIG    1       24.259 -20.727   7.165  0.00  0.00    -0.220 NA
ENDBRANCH  15  17
ENDBRANCH  14  15
ENDBRANCH   4  14
TORSDOF 8
ENDMDL
MODEL 5
REMARK VINA RESULT:      -8.0      2.160      3.019
REMARK  Name = *****
REMARK                            x       y       z     vdW  Elec       q    Type
REMARK                         _______ _______ _______ _____ _____    ______ ____
ROOT
ATOM      1  C   LIG    1       28.285 -20.153   7.375  0.00  0.00    +0.127 A 
ATOM      2  C   LIG    1       26.909 -20.374   7.588  0.00  0.00    +0.013 A 
ATOM      3  C   LIG    1       26.383 -20.726   8.953  0.00  0.00    +0.049 C 
ATOM      4  C   LIG    1       26.059 -20.284   6.475  0.00  0.00    +0.060 A 
ATOM      5  N   LIG    1       26.516 -19.943   5.243  0.00  0.00    -0.259 NA
ATOM      6  C   LIG    1       27.830 -19.717   5.082  0.00  0.00    +0.114 A 
ATOM      7  C   LIG    1       28.744 -19.805   6.107  0.00  0.00    +0.065 A 
ENDROOT
BRANCH   1   8
ATOM      8  O   LIG    1       29.101 -20.298   8.467  0.00  0.00    -0.491 OA
BRANCH   8   9
ATOM      9  C   LIG    1       30.435 -19.793   8.372  0.00  0.00    +0.231 C 
BRANCH   9  10
ATOM     10  C   LIG    1       30.462 -18.398   8.975  0.00  0.00    +0.069 C 
BRANCH  10  11
ATOM     11  C   LIG    1       31.885 -17.895   9.210  0.00  0.00    +0.163 C 
BRANCH  11  13
ATOM     12  C   LIG    1       31.006 -17.485  11.390  0.00  0.00    +0.193 C 
ATOM     13  O   LIG    1       32.165 -17.733  10.603  0.00  0.00    -0.383 OA
ENDBRANCH  11  13
ENDBRANCH  10  11
ENDBRANCH   9  10
ENDBRANCH   8   9
ENDBRANCH   1   8
BRANCH   4  14
ATOM     14  C   LIG    1       24.584 -20.603   6.524  0.00  0.00    +0.167 C 
BRANCH  14  15
ATOM     15  S   LIG    1       23.965 -21.424   5.018  0.00  0.00    +0.095 S 
ATOM     16  O   LIG    1       22.468 -21.534   5.084  0.00  0.00    -0.249 OA
BRANCH  15  17
ATOM     17  C   LIG    1       24.579 -23.008   5.365  0.00  0.00    +0.198 A 
ATOM     18  N   LIG    1       24.763 -23.955   4.390  0.00  0.00    -0.331 N 
ATOM     19  H   LIG    1       24.564 -23.811   3.415  0.00  0.00    +0.168 HD
ATOM     20  C   LIG    1       25.192 -25.104   4.999  0.00  0.00    +0.067 A 
ATOM     21  C   LIG    1       25.289 -24.761   6.344  0.00  0.00    +0.090 A 
ATOM     22  C   LIG    1       25.750 -25.718   7.258  0.00  0.00    +0.030 A 
ATOM     23  C   LIG    1       26.093 -26.991   6.782  0.00  0.00    +0.002 A 
ATOM     24  C   LIG    1       25.959 -27.312   5.427  0.00  0.00    +0.002 A 
ATOM     25  C   LIG    1       25.500 -26.370   4.500  0.00  0.00    +0.028 A 
ATOM     26  N   LIG    1       24.902 -23.458   6.554  0.00  0.00    -0.220 NA
ENDBRANCH  15  17
ENDBRANCH  14  15
ENDBRANCH   4  14
TORSDOF 8
ENDMDL
MODEL 6
REMARK VINA RESULT:      -7.9      2.588      8.957
REMARK  Name = *****
REMARK                            x       y       z     vdW  Elec       q    Type
REMARK                         _______ _______ _______ _____ _____    ______ ____
ROOT
ATOM      1  C   LIG    1       24.566 -22.377   6.453  0.00  0.00    +0.127 A 
ATOM      2  C   LIG    1       25.578 -21.758   7.213  0.00  0.00    +0.013 A 
ATOM      3  C   LIG    1       25.867 -22.197   8.623  0.00  0.00    +0.049 C 
ATOM      4  C   LIG    1       26.282 -20.701   6.616  0.00  0.00    +0.060 A 
ATOM      5  N   LIG    1       26.049 -20.310   5.336  0.00  0.00    -0.259 NA
ATOM      6  C   LIG    1       25.092 -20.938   4.635  0.00  0.00    +0.114 A 
ATOM      7  C   LIG    1       24.334 -21.968   5.142  0.00  0.00    +0.065 A 
ENDROOT
BRANCH   1   8
ATOM      8  O   LIG    1       23.858 -23.372   7.076  0.00  0.00    -0.491 OA
BRANCH   8   9
ATOM      9  C   LIG    1       23.594 -24.565   6.335  0.00  0.00    +0.231 C 
BRANCH   9  10
ATOM     10  C   LIG    1       24.826 -25.453   6.404  0.00  0.00    +0.069 C 
BRANCH  10  11
ATOM     11  C   LIG    1       25.452 -25.686   5.031  0.00  0.00    +0.163 C 
BRANCH  11  13
ATOM     12  C   LIG    1       25.010 -27.923   5.731  0.00  0.00    +0.193 C 
ATOM     13  O   LIG    1       25.578 -27.079   4.737  0.00  0.00    -0.383 OA
ENDBRANCH  11  13
ENDBRANCH  10  11
ENDBRANCH   9  10
ENDBRANCH   8   9
ENDBRANCH   1   8
BRANCH   4  14
ATOM     14  C   LIG    1       27.314 -19.871   7.341  0.00  0.00    +0.167 C 
BRANCH  14  15
ATOM     15  S   LIG    1       29.032 -20.298   6.904  0.00  0.00    +0.095 S 
ATOM     16  O   LIG    1       29.356 -21.670   7.422  0.00  0.00    -0.249 OA
BRANCH  15  17
ATOM     17  C   LIG    1       29.815 -19.183   7.976  0.00  0.00    +0.198 A 
ATOM     18  N   LIG    1       31.029 -18.615   7.688  0.00  0.00    -0.331 N 
ATOM     19  H   LIG    1       31.553 -18.792   6.848  0.00  0.00    +0.168 HD
ATOM     20  C   LIG    1       31.394 -17.843   8.758  0.00  0.00    +0.067 A 
ATOM     21  C   LIG    1       30.324 -17.955   9.640  0.00  0.00    +0.090 A 
ATOM     22  C   LIG    1       30.358 -17.240  10.845  0.00  0.00    +0.030 A 
ATOM     23  C   LIG    1       31.474 -16.438  11.119  0.00  0.00    +0.002 A 
ATOM     24  C   LIG    1       32.545 -16.367  10.222  0.00  0.00    +0.002 A 
ATOM     25  C   LIG    1       32.530 -17.074   9.015  0.00  0.00    +0.028 A 
ATOM     26  N   LIG    1       29.354 -18.793   9.141  0.00  0.00    -0.220 NA
ENDBRANCH  15  17
ENDBRANCH  14  15
ENDBRANCH   4  14
TORSDOF 8
ENDMDL
MODEL 7
REMARK VINA RESULT:      -7.8      2.583      8.947
REMARK  Name = *****
REMARK                            x       y       z     vdW  Elec       q    Type
REMARK                         _______ _______ _______ _____ _____    ______ ____
ROOT
ATOM      1  C   LIG    1       25.730 -20.513   6.345  0.00  0.00    +0.127 A 
ATOM      2  C   LIG    1       26.690 -20.439   7.374  0.00  0.00    +0.013 A 
ATOM      3  C   LIG    1       26.346 -20.835   8.785  0.00  0.00    +0.049 C 
ATOM      4  C   LIG    1       27.964 -19.955   7.038  0.00  0.00    +0.060 A 
ATOM      5  N   LIG    1       28.296 -19.619   5.765  0.00  0.00    -0.259 NA
ATOM      6  C   LIG    1       27.362 -19.723   4.807  0.00  0.00    +0.114 A 
ATOM      7  C   LIG    1       26.080 -20.164   5.043  0.00  0.00    +0.065 A 
ENDROOT
BRANCH   1   8
ATOM      8  O   LIG    1       24.478 -20.939   6.709  0.00  0.00    -0.491 OA
BRANCH   8   9
ATOM      9  C   LIG    1       23.899 -22.013   5.965  0.00  0.00    +0.231 C 
BRANCH   9  10
ATOM     10  C   LIG    1       23.979 -23.275   6.809  0.00  0.00    +0.069 C 
BRANCH  10  11
ATOM     11  C   LIG    1       25.308 -24.007   6.633  0.00  0.00    +0.163 C 
BRANCH  11  13
ATOM     12  C   LIG    1       25.446 -26.056   5.419  0.00  0.00    +0.193 C 
ATOM     13  O   LIG    1       25.401 -24.636   5.353  0.00  0.00    -0.383 OA
ENDBRANCH  11  13
ENDBRANCH  10  11
ENDBRANCH   9  10
ENDBRANCH   8   9
ENDBRANCH   1   8
BRANCH   4  14
ATOM     14  C   LIG    1       29.059 -19.715   8.050  0.00  0.00    +0.167 C 
BRANCH  14  15
ATOM     15  S   LIG    1       30.643 -19.205   7.303  0.00  0.00    +0.095 S 
ATOM     16  O   LIG    1       31.552 -20.395   7.190  0.00  0.00    -0.249 OA
BRANCH  15  17
ATOM     17  C   LIG    1       31.229 -18.278   8.647  0.00  0.00    +0.198 A 
ATOM     18  N   LIG    1       30.803 -18.498   9.932  0.00  0.00    -0.331 N 
ATOM     19  H   LIG    1       30.134 -19.200  10.196  0.00  0.00    +0.168 HD
ATOM     20  C   LIG    1       31.402 -17.564  10.736  0.00  0.00    +0.067 A 
ATOM     21  C   LIG    1       32.216 -16.841   9.870  0.00  0.00    +0.090 A 
ATOM     22  C   LIG    1       33.016 -15.813  10.388  0.00  0.00    +0.030 A 
ATOM     23  C   LIG    1       32.963 -15.549  11.763  0.00  0.00    +0.002 A 
ATOM     24  C   LIG    1       32.115 -16.278  12.602  0.00  0.00    +0.002 A 
ATOM     25  C   LIG    1       31.308 -17.307  12.104  0.00  0.00    +0.028 A 
ATOM     26  N   LIG    1       32.094 -17.295   8.576  0.00  0.00    -0.220 NA
ENDBRANCH  15  17
ENDBRANCH  14  15
ENDBRANCH   4  14
TORSDOF 8
ENDMDL
MODEL 8
REMARK VINA RESULT:      -7.4      4.865      7.079
REMARK  Name = *****
REMARK                            x       y       z     vdW  Elec       q    Type
REMARK                         _______ _______ _______ _____ _____    ______ ____
ROOT
ATOM      1  C   LIG    1       24.161 -21.487   6.735  0.00  0.00    +0.127 A 
ATOM      2  C   LIG    1       24.199 -22.894   6.813  0.00  0.00    +0.013 A 
ATOM      3  C   LIG    1       22.938 -23.710   6.718  0.00  0.00    +0.049 C 
ATOM      4  C   LIG    1       25.450 -23.497   7.013  0.00  0.00    +0.060 A 
ATOM      5  N   LIG    1       26.598 -22.776   7.076  0.00  0.00    -0.259 NA
ATOM      6  C   LIG    1       26.526 -21.438   6.975  0.00  0.00    +0.114 A 
ATOM      7  C   LIG    1       25.343 -20.755   6.802  0.00  0.00    +0.065 A 
ENDROOT
BRANCH   1   8
ATOM      8  O   LIG    1       22.921 -20.918   6.591  0.00  0.00    -0.491 OA
BRANCH   8   9
ATOM      9  C   LIG    1       22.439 -20.700   5.264  0.00  0.00    +0.231 C 
BRANCH   9  10
ATOM     10  C   LIG    1       22.374 -19.201   5.019  0.00  0.00    +0.069 C 
BRANCH  10  11
ATOM     11  C   LIG    1       23.278 -18.762   3.868  0.00  0.00    +0.163 C 
BRANCH  11  13
ATOM     12  C   LIG    1       25.565 -19.368   3.571  0.00  0.00    +0.193 C 
ATOM     13  O   LIG    1       24.207 -19.785   3.506  0.00  0.00    -0.383 OA
ENDBRANCH  11  13
ENDBRANCH  10  11
ENDBRANCH   9  10
ENDBRANCH   8   9
ENDBRANCH   1   8
BRANCH   4  14
ATOM     14  C   LIG    1       25.636 -24.980   7.228  0.00  0.00    +0.167 C 
BRANCH  14  15
ATOM     15  S   LIG    1       26.032 -25.894   5.700  0.00  0.00    +0.095 S 
ATOM     16  O   LIG    1       25.067 -25.505   4.617  0.00  0.00    -0.249 OA
BRANCH  15  17
ATOM     17  C   LIG    1       25.532 -27.462   6.248  0.00  0.00    +0.198 A 
ATOM     18  N   LIG    1       25.837 -27.935   7.498  0.00  0.00    -0.331 N 
ATOM     19  H   LIG    1       26.361 -27.422   8.186  0.00  0.00    +0.168 HD
ATOM     20  C   LIG    1       25.359 -29.215   7.589  0.00  0.00    +0.067 A 
ATOM     21  C   LIG    1       24.732 -29.432   6.366  0.00  0.00    +0.090 A 
ATOM     22  C   LIG    1       24.088 -30.656   6.139  0.00  0.00    +0.030 A 
ATOM     23  C   LIG    1       24.103 -31.621   7.155  0.00  0.00    +0.002 A 
ATOM     24  C   LIG    1       24.764 -31.381   8.364  0.00  0.00    +0.002 A 
ATOM     25  C   LIG    1       25.412 -30.166   8.609  0.00  0.00    +0.028 A 
ATOM     26  N   LIG    1       24.852 -28.335   5.544  0.00  0.00    -0.220 NA
ENDBRANCH  15  17
ENDBRANCH  14  15
ENDBRANCH   4  14
TORSDOF 8
ENDMDL
MODEL 9
REMARK VINA RESULT:      -7.4      3.170      8.590
REMARK  Name = *****
REMARK                            x       y       z     vdW  Elec       q    Type
REMARK                         _______ _______ _______ _____ _____    ______ ____
ROOT
ATOM      1  C   LIG    1       25.530 -20.879   6.704  0.00  0.00    +0.127 A 
ATOM      2  C   LIG    1       26.726 -20.284   6.258  0.00  0.00    +0.013 A 
ATOM      3  C   LIG    1       26.963 -20.021   4.795  0.00  0.00    +0.049 C 
ATOM      4  C   LIG    1       27.696 -19.976   7.225  0.00  0.00    +0.060 A 
ATOM      5  N   LIG    1       27.487 -20.184   8.550  0.00  0.00    -0.259 NA
ATOM      6  C   LIG    1       26.325 -20.732   8.940  0.00  0.00    +0.114 A 
ATOM      7  C   LIG    1       25.325 -21.090   8.065  0.00  0.00    +0.065 A 
ENDROOT
BRANCH   1   8
ATOM      8  O   LIG    1       24.619 -21.218   5.736  0.00  0.00    -0.491 OA
BRANCH   8   9
ATOM      9  C   LIG    1       23.242 -21.286   6.112  0.00  0.00    +0.231 C 
BRANCH   9  10
ATOM     10  C   LIG    1       22.403 -20.806   4.939  0.00  0.00    +0.069 C 
BRANCH  10  11
ATOM     11  C   LIG    1       22.380 -19.283   4.826  0.00  0.00    +0.163 C 
BRANCH  11  13
ATOM     12  C   LIG    1       24.248 -18.405   3.631  0.00  0.00    +0.193 C 
ATOM     13  O   LIG    1       22.895 -18.839   3.569  0.00  0.00    -0.383 OA
ENDBRANCH  11  13
ENDBRANCH  10  11
ENDBRANCH   9  10
ENDBRANCH   8   9
ENDBRANCH   1   8
BRANCH   4  14
ATOM     14  C   LIG    1       29.068 -19.440   6.889  0.00  0.00    +0.167 C 
BRANCH  14  15
ATOM     15  S   LIG    1       30.427 -20.382   7.659  0.00  0.00    +0.095 S 
ATOM     16  O   LIG    1       29.860 -21.391   8.616  0.00  0.00    -0.249 OA
BRANCH  15  17
ATOM     17  C   LIG    1       31.058 -19.095   8.635  0.00  0.00    +0.198 A 
ATOM     18  N   LIG    1       30.789 -18.990   9.975  0.00  0.00    -0.331 N 
ATOM     19  H   LIG    1       30.219 -19.637  10.492  0.00  0.00    +0.168 HD
ATOM     20  C   LIG    1       31.376 -17.839  10.431  0.00  0.00    +0.067 A 
ATOM     21  C   LIG    1       32.025 -17.323   9.313  0.00  0.00    +0.090 A 
ATOM     22  C   LIG    1       32.774 -16.145   9.445  0.00  0.00    +0.030 A 
ATOM     23  C   LIG    1       32.838 -15.527  10.701  0.00  0.00    +0.002 A 
ATOM     24  C   LIG    1       32.153 -16.059  11.799  0.00  0.00    +0.002 A 
ATOM     25  C   LIG    1       31.400 -17.232  11.687  0.00  0.00    +0.028 A 
ATOM     26  N   LIG    1       31.815 -18.113   8.206  0.00  0.00    -0.220 NA
ENDBRANCH  15  17
ENDBRANCH  14  15
ENDBRANCH   4  14
TORSDOF 8
ENDMDL
