MODEL 1
REMARK VINA RESULT:      -8.0      0.000      0.000
REMARK  Name = *****
REMARK                            x       y       z     vdW  Elec       q    Type
REMARK                         _______ _______ _______ _____ _____    ______ ____
ROOT
ATOM      1  O   LIG    1       28.102 -20.121   7.747  0.00  0.00    -0.461 OA
ENDROOT
BRANCH   1   6
ATOM      2  N   LIG    1       24.969 -22.237   6.518  0.00  0.00    +0.247 N 
ATOM      3  C   LIG    1       25.310 -22.833   5.148  0.00  0.00    +0.193 C 
ATOM      4  C   LIG    1       25.136 -20.691   6.588  0.00  0.00    +0.070 C 
ATOM      5  C   LIG    1       26.491 -20.268   5.998  0.00  0.00    +0.099 C 
ATOM      6  C   LIG    1       27.703 -20.955   6.642  0.00  0.00    +0.187 C 
ATOM      7  C   LIG    1       27.430 -22.367   7.178  0.00  0.00    +0.099 C 
ATOM      8  C   LIG    1       25.056 -20.403   8.095  0.00  0.00    +0.060 C 
ATOM      9  C   LIG    1       25.605 -21.654   8.782  0.00  0.00    +0.060 C 
ATOM     10  C   LIG    1       25.983 -22.608   7.642  0.00  0.00    +0.070 C 
BRANCH   2  12
ATOM     11  C   LIG    1       23.234 -24.164   6.747  0.00  0.00    +0.063 C 
ATOM     12  C   LIG    1       23.477 -22.661   6.908  0.00  0.00    +0.060 C 
ATOM     13  C   LIG    1       22.427 -21.862   6.128  0.00  0.00    +0.063 C 
ENDBRANCH   2  12
ENDBRANCH   1   6
BRANCH   1  14
ATOM     14  C   LIG    1       29.302 -19.461   7.595  0.00  0.00    +0.317 C 
ATOM     15  O   LIG    1       29.555 -18.692   6.681  0.00  0.00    -0.250 OA
BRANCH  14  16
ATOM     16  C   LIG    1       30.206 -19.714   8.801  0.00  0.00    +0.153 C 
BRANCH  16  17
ATOM     17  C   LIG    1       30.823 -18.427   9.337  0.00  0.00    -0.032 A 
ATOM     18  C   LIG    1       31.934 -17.809   8.743  0.00  0.00    +0.004 A 
ATOM     19  C   LIG    1       32.487 -16.649   9.291  0.00  0.00    +0.000 A 
ATOM     20  C   LIG    1       31.910 -16.064  10.414  0.00  0.00    +0.000 A 
ATOM     21  C   LIG    1       30.782 -16.639  10.993  0.00  0.00    +0.000 A 
ATOM     22  C   LIG    1       30.252 -17.820  10.470  0.00  0.00    +0.004 A 
ENDBRANCH  16  17
BRANCH  16  23
ATOM     23  C   LIG    1       31.222 -20.801   8.394  0.00  0.00    +0.175 C 
BRANCH  23  24
ATOM     24  O   LIG    1       32.103 -21.166   9.452  0.00  0.00    -0.394 OA
ATOM     25  H   LIG    1       32.942 -21.476   9.065  0.00  0.00    +0.209 HD
ENDBRANCH  23  24
ENDBRANCH  16  23
ENDBRANCH  14  16
ENDBRANCH   1  14
TORSDOF 7
ENDMDL
MODEL 2
REMARK VINA RESULT:      -7.3      0.788      1.447
REMARK  Name = *****
REMARK                            x       y       z     vdW  Elec       q    Type
REMARK                         _______ _______ _______ _____ _____    ______ ____
ROOT
ATOM      1  O   LIG    1       28.173 -20.583   7.962  0.00  0.00    -0.461 OA
ENDROOT
BRANCH   1   6
ATOM      2  N   LIG    1       24.560 -21.967   7.047  0.00  0.00    +0.247 N 
ATOM      3  C   LIG    1       23.676 -20.770   6.680  0.00  0.00    +0.193 C 
ATOM      4  C   LIG    1       25.233 -21.842   8.446  0.00  0.00    +0.070 C 
ATOM      5  C   LIG    1       25.884 -20.460   8.609  0.00  0.00    +0.099 C 
ATOM      6  C   LIG    1       26.893 -20.102   7.510  0.00  0.00    +0.187 C 
ATOM      7  C   LIG    1       26.598 -20.728   6.140  0.00  0.00    +0.099 C 
ATOM      8  C   LIG    1       26.281 -22.967   8.426  0.00  0.00    +0.060 C 
ATOM      9  C   LIG    1       26.689 -23.122   6.960  0.00  0.00    +0.060 C 
ATOM     10  C   LIG    1       25.863 -22.078   6.197  0.00  0.00    +0.070 C 
BRANCH   2  12
ATOM     11  C   LIG    1       24.191 -24.264   5.882  0.00  0.00    +0.063 C 
ATOM     12  C   LIG    1       23.684 -23.303   6.960  0.00  0.00    +0.060 C 
ATOM     13  C   LIG    1       22.196 -23.004   6.755  0.00  0.00    +0.063 C 
ENDBRANCH   2  12
ENDBRANCH   1   6
BRANCH   1  14
ATOM     14  C   LIG    1       29.228 -19.710   7.812  0.00  0.00    +0.317 C 
ATOM     15  O   LIG    1       29.283 -18.836   6.960  0.00  0.00    -0.250 OA
BRANCH  14  16
ATOM     16  C   LIG    1       30.240 -19.894   8.942  0.00  0.00    +0.153 C 
BRANCH  16  17
ATOM     17  C   LIG    1       30.834 -18.568   9.403  0.00  0.00    -0.032 A 
ATOM     18  C   LIG    1       31.925 -17.958   8.766  0.00  0.00    +0.004 A 
ATOM     19  C   LIG    1       32.459 -16.760   9.247  0.00  0.00    +0.000 A 
ATOM     20  C   LIG    1       31.880 -16.129  10.343  0.00  0.00    +0.000 A 
ATOM     21  C   LIG    1       30.770 -16.696  10.963  0.00  0.00    +0.000 A 
ATOM     22  C   LIG    1       30.261 -17.914  10.508  0.00  0.00    +0.004 A 
ENDBRANCH  16  17
BRANCH  16  23
ATOM     23  C   LIG    1       31.272 -20.939   8.470  0.00  0.00    +0.175 C 
BRANCH  23  24
ATOM     24  O   LIG    1       32.125 -21.391   9.516  0.00  0.00    -0.394 OA
ATOM     25  H   LIG    1       32.736 -20.669   9.753  0.00  0.00    +0.209 HD
ENDBRANCH  23  24
ENDBRANCH  16  23
ENDBRANCH  14  16
ENDBRANCH   1  14
TORSDOF 7
ENDMDL
MODEL 3
REMARK VINA RESULT:      -7.2      1.337      2.665
REMARK  Name = *****
REMARK                            x       y       z     vdW  Elec       q    Type
REMARK                         _______ _______ _______ _____ _____    ______ ____
ROOT
ATOM      1  O   LIG    1       28.053 -21.343   6.926  0.00  0.00    -0.461 OA
ENDROOT
BRANCH   1   6
ATOM      2  N   LIG    1       24.112 -21.426   6.411  0.00  0.00    +0.247 N 
ATOM      3  C   LIG    1       23.485 -22.026   7.673  0.00  0.00    +0.193 C 
ATOM      4  C   LIG    1       25.201 -22.330   5.762  0.00  0.00    +0.070 C 
ATOM      5  C   LIG    1       26.193 -22.827   6.826  0.00  0.00    +0.099 C 
ATOM      6  C   LIG    1       26.858 -21.710   7.641  0.00  0.00    +0.187 C 
ATOM      7  C   LIG    1       26.000 -20.451   7.825  0.00  0.00    +0.099 C 
ATOM      8  C   LIG    1       25.875 -21.388   4.752  0.00  0.00    +0.060 C 
ATOM      9  C   LIG    1       25.747 -19.986   5.348  0.00  0.00    +0.060 C 
ATOM     10  C   LIG    1       25.009 -20.179   6.680  0.00  0.00    +0.070 C 
BRANCH   2  12
ATOM     11  C   LIG    1       22.475 -19.648   5.446  0.00  0.00    +0.063 C 
ATOM     12  C   LIG    1       22.951 -21.100   5.360  0.00  0.00    +0.060 C 
ATOM     13  C   LIG    1       21.765 -22.062   5.494  0.00  0.00    +0.063 C 
ENDBRANCH   2  12
ENDBRANCH   1   6
BRANCH   1  14
ATOM     14  C   LIG    1       29.140 -21.014   7.706  0.00  0.00    +0.317 C 
ATOM     15  O   LIG    1       29.468 -21.612   8.719  0.00  0.00    -0.250 OA
BRANCH  14  16
ATOM     16  C   LIG    1       29.951 -19.898   7.049  0.00  0.00    +0.153 C 
BRANCH  16  17
ATOM     17  C   LIG    1       30.476 -18.892   8.068  0.00  0.00    -0.032 A 
ATOM     18  C   LIG    1       31.810 -18.459   8.095  0.00  0.00    +0.004 A 
ATOM     19  C   LIG    1       32.253 -17.563   9.071  0.00  0.00    +0.000 A 
ATOM     20  C   LIG    1       31.359 -17.050  10.005  0.00  0.00    +0.000 A 
ATOM     21  C   LIG    1       30.022 -17.436   9.969  0.00  0.00    +0.000 A 
ATOM     22  C   LIG    1       29.586 -18.362   9.019  0.00  0.00    +0.004 A 
ENDBRANCH  16  17
BRANCH  16  23
ATOM     23  C   LIG    1       29.080 -19.294   5.929  0.00  0.00    +0.175 C 
BRANCH  23  24
ATOM     24  O   LIG    1       29.668 -18.149   5.320  0.00  0.00    -0.394 OA
ATOM     25  H   LIG    1       30.637 -18.208   5.418  0.00  0.00    +0.209 HD
ENDBRANCH  23  24
ENDBRANCH  16  23
ENDBRANCH  14  16
ENDBRANCH   1  14
TORSDOF 7
ENDMDL
MODEL 4
REMARK VINA RESULT:      -6.8      5.486      8.699
REMARK  Name = *****
REMARK                            x       y       z     vdW  Elec       q    Type
REMARK                         _______ _______ _______ _____ _____    ______ ____
ROOT
ATOM      1  O   LIG    1       24.978 -25.543   6.842  0.00  0.00    -0.461 OA
ENDROOT
BRANCH   1   6
ATOM      2  N   LIG    1       23.814 -21.938   5.637  0.00  0.00    +0.247 N 
ATOM      3  C   LIG    1       22.702 -22.124   4.599  0.00  0.00    +0.193 C 
ATOM      4  C   LIG    1       25.124 -22.707   5.294  0.00  0.00    +0.070 C 
ATOM      5  C   LIG    1       24.811 -24.161   4.910  0.00  0.00    +0.099 C 
ATOM      6  C   LIG    1       24.011 -24.936   5.965  0.00  0.00    +0.187 C 
ATOM      7  C   LIG    1       23.063 -24.075   6.812  0.00  0.00    +0.099 C 
ATOM      8  C   LIG    1       25.925 -22.624   6.604  0.00  0.00    +0.060 C 
ATOM      9  C   LIG    1       24.882 -22.564   7.720  0.00  0.00    +0.060 C 
ATOM     10  C   LIG    1       23.524 -22.620   7.008  0.00  0.00    +0.070 C 
BRANCH   2  12
ATOM     11  C   LIG    1       22.826 -19.535   5.789  0.00  0.00    +0.063 C 
ATOM     12  C   LIG    1       24.106 -20.375   5.807  0.00  0.00    +0.060 C 
ATOM     13  C   LIG    1       25.101 -19.856   4.763  0.00  0.00    +0.063 C 
ENDBRANCH   2  12
ENDBRANCH   1   6
BRANCH   1  14
ATOM     14  C   LIG    1       25.621 -26.656   6.346  0.00  0.00    +0.317 C 
ATOM     15  O   LIG    1       26.723 -26.636   5.819  0.00  0.00    -0.250 OA
BRANCH  14  16
ATOM     16  C   LIG    1       24.833 -27.922   6.677  0.00  0.00    +0.153 C 
BRANCH  16  17
ATOM     17  C   LIG    1       25.532 -28.775   7.729  0.00  0.00    -0.032 A 
ATOM     18  C   LIG    1       26.264 -28.227   8.793  0.00  0.00    +0.004 A 
ATOM     19  C   LIG    1       26.919 -29.050   9.713  0.00  0.00    +0.000 A 
ATOM     20  C   LIG    1       26.812 -30.433   9.611  0.00  0.00    +0.000 A 
ATOM     21  C   LIG    1       26.056 -30.996   8.586  0.00  0.00    +0.000 A 
ATOM     22  C   LIG    1       25.434 -30.176   7.643  0.00  0.00    +0.004 A 
ENDBRANCH  16  17
BRANCH  16  23
ATOM     23  C   LIG    1       24.540 -28.643   5.346  0.00  0.00    +0.175 C 
BRANCH  23  24
ATOM     24  O   LIG    1       23.234 -29.208   5.293  0.00  0.00    -0.394 OA
ATOM     25  H   LIG    1       23.310 -30.142   5.024  0.00  0.00    +0.209 HD
ENDBRANCH  23  24
ENDBRANCH  16  23
ENDBRANCH  14  16
ENDBRANCH   1  14
TORSDOF 7
ENDMDL
MODEL 5
REMARK VINA RESULT:      -6.8      5.257      7.396
REMARK  Name = *****
REMARK                            x       y       z     vdW  Elec       q    Type
REMARK                         _______ _______ _______ _____ _____    ______ ____
ROOT
ATOM      1  O   LIG    1       25.640 -24.320   5.618  0.00  0.00    -0.461 OA
ENDROOT
BRANCH   1   6
ATOM      2  N   LIG    1       24.992 -28.241   5.750  0.00  0.00    +0.247 N 
ATOM      3  C   LIG    1       23.707 -28.532   4.969  0.00  0.00    +0.193 C 
ATOM      4  C   LIG    1       24.813 -27.182   6.878  0.00  0.00    +0.070 C 
ATOM      5  C   LIG    1       24.063 -25.950   6.346  0.00  0.00    +0.099 C 
ATOM      6  C   LIG    1       24.709 -25.299   5.117  0.00  0.00    +0.187 C 
ATOM      7  C   LIG    1       25.473 -26.268   4.204  0.00  0.00    +0.099 C 
ATOM      8  C   LIG    1       26.260 -26.844   7.267  0.00  0.00    +0.060 C 
ATOM      9  C   LIG    1       27.086 -27.045   5.995  0.00  0.00    +0.060 C 
ATOM     10  C   LIG    1       26.078 -27.485   4.925  0.00  0.00    +0.070 C 
BRANCH   2  12
ATOM     11  C   LIG    1       25.609 -30.729   5.302  0.00  0.00    +0.063 C 
ATOM     12  C   LIG    1       25.556 -29.612   6.348  0.00  0.00    +0.060 C 
ATOM     13  C   LIG    1       24.770 -30.070   7.581  0.00  0.00    +0.063 C 
ENDBRANCH   2  12
ENDBRANCH   1   6
BRANCH   1  14
ATOM     14  C   LIG    1       25.128 -23.417   6.524  0.00  0.00    +0.317 C 
ATOM     15  O   LIG    1       25.622 -23.183   7.616  0.00  0.00    -0.250 OA
BRANCH  14  16
ATOM     16  C   LIG    1       23.954 -22.655   5.914  0.00  0.00    +0.153 C 
BRANCH  16  17
ATOM     17  C   LIG    1       24.405 -21.405   5.167  0.00  0.00    -0.032 A 
ATOM     18  C   LIG    1       25.717 -20.910   5.231  0.00  0.00    +0.004 A 
ATOM     19  C   LIG    1       26.075 -19.739   4.558  0.00  0.00    +0.000 A 
ATOM     20  C   LIG    1       25.141 -19.072   3.772  0.00  0.00    +0.000 A 
ATOM     21  C   LIG    1       23.845 -19.571   3.662  0.00  0.00    +0.000 A 
ATOM     22  C   LIG    1       23.475 -20.718   4.366  0.00  0.00    +0.004 A 
ENDBRANCH  16  17
BRANCH  16  23
ATOM     23  C   LIG    1       22.932 -22.403   7.042  0.00  0.00    +0.175 C 
BRANCH  23  24
ATOM     24  O   LIG    1       23.314 -21.346   7.916  0.00  0.00    -0.394 OA
ATOM     25  H   LIG    1       23.866 -21.717   8.629  0.00  0.00    +0.209 HD
ENDBRANCH  23  24
ENDBRANCH  16  23
ENDBRANCH  14  16
ENDBRANCH   1  14
TORSDOF 7
ENDMDL
MODEL 6
REMARK VINA RESULT:      -6.7      6.897     10.032
REMARK  Name = *****
REMARK                            x       y       z     vdW  Elec       q    Type
REMARK                         _______ _______ _______ _____ _____    ______ ____
ROOT
ATOM      1  O   LIG    1       25.041 -28.589   7.777  0.00  0.00    -0.461 OA
ENDROOT
BRANCH   1   6
ATOM      2  N   LIG    1       24.803 -31.912   9.946  0.00  0.00    +0.247 N 
ATOM      3  C   LIG    1       25.673 -32.978   9.272  0.00  0.00    +0.193 C 
ATOM      4  C   LIG    1       23.737 -31.285   8.999  0.00  0.00    +0.070 C 
ATOM      5  C   LIG    1       24.377 -30.873   7.664  0.00  0.00    +0.099 C 
ATOM      6  C   LIG    1       25.576 -29.926   7.802  0.00  0.00    +0.187 C 
ATOM      7  C   LIG    1       26.384 -30.098   9.097  0.00  0.00    +0.099 C 
ATOM      8  C   LIG    1       23.246 -30.065   9.795  0.00  0.00    +0.060 C 
ATOM      9  C   LIG    1       24.437 -29.621  10.644  0.00  0.00    +0.060 C 
ATOM     10  C   LIG    1       25.567 -30.600  10.300  0.00  0.00    +0.070 C 
BRANCH   2  12
ATOM     11  C   LIG    1       25.102 -32.826  12.364  0.00  0.00    +0.063 C 
ATOM     12  C   LIG    1       24.105 -32.553  11.234  0.00  0.00    +0.060 C 
ATOM     13  C   LIG    1       23.321 -33.825  10.893  0.00  0.00    +0.063 C 
ENDBRANCH   2  12
ENDBRANCH   1   6
BRANCH   1  14
ATOM     14  C   LIG    1       24.883 -28.032   6.526  0.00  0.00    +0.317 C 
ATOM     15  O   LIG    1       24.004 -28.345   5.739  0.00  0.00    -0.250 OA
BRANCH  14  16
ATOM     16  C   LIG    1       25.864 -26.877   6.327  0.00  0.00    +0.153 C 
BRANCH  16  17
ATOM     17  C   LIG    1       25.208 -25.520   6.554  0.00  0.00    -0.032 A 
ATOM     18  C   LIG    1       23.830 -25.302   6.395  0.00  0.00    +0.004 A 
ATOM     19  C   LIG    1       23.280 -24.032   6.578  0.00  0.00    +0.000 A 
ATOM     20  C   LIG    1       24.089 -22.970   6.969  0.00  0.00    +0.000 A 
ATOM     21  C   LIG    1       25.451 -23.175   7.172  0.00  0.00    +0.000 A 
ATOM     22  C   LIG    1       26.010 -24.435   6.951  0.00  0.00    +0.004 A 
ENDBRANCH  16  17
BRANCH  16  23
ATOM     23  C   LIG    1       26.515 -27.061   4.941  0.00  0.00    +0.175 C 
BRANCH  23  24
ATOM     24  O   LIG    1       27.936 -27.133   4.997  0.00  0.00    -0.394 OA
ATOM     25  H   LIG    1       28.189 -28.007   5.348  0.00  0.00    +0.209 HD
ENDBRANCH  23  24
ENDBRANCH  16  23
ENDBRANCH  14  16
ENDBRANCH   1  14
TORSDOF 7
ENDMDL
MODEL 7
REMARK VINA RESULT:      -6.2      5.634      7.455
REMARK  Name = *****
REMARK                            x       y       z     vdW  Elec       q    Type
REMARK                         _______ _______ _______ _____ _____    ______ ____
ROOT
ATOM      1  O   LIG    1       25.656 -24.016   5.732  0.00  0.00    -0.461 OA
ENDROOT
BRANCH   1   6
ATOM      2  N   LIG    1       25.277 -27.945   6.206  0.00  0.00    +0.247 N 
ATOM      3  C   LIG    1       25.691 -28.289   7.641  0.00  0.00    +0.193 C 
ATOM      4  C   LIG    1       26.361 -27.157   5.414  0.00  0.00    +0.070 C 
ATOM      5  C   LIG    1       26.894 -25.984   6.251  0.00  0.00    +0.099 C 
ATOM      6  C   LIG    1       25.810 -25.021   6.753  0.00  0.00    +0.187 C 
ATOM      7  C   LIG    1       24.442 -25.669   7.002  0.00  0.00    +0.099 C 
ATOM      8  C   LIG    1       25.596 -26.670   4.174  0.00  0.00    +0.060 C 
ATOM      9  C   LIG    1       24.146 -26.497   4.627  0.00  0.00    +0.060 C 
ATOM     10  C   LIG    1       24.137 -26.886   6.111  0.00  0.00    +0.070 C 
BRANCH   2  12
ATOM     11  C   LIG    1       23.664 -29.981   6.050  0.00  0.00    +0.063 C 
ATOM     12  C   LIG    1       24.891 -29.296   5.442  0.00  0.00    +0.060 C 
ATOM     13  C   LIG    1       26.068 -30.274   5.368  0.00  0.00    +0.063 C 
ENDBRANCH   2  12
ENDBRANCH   1   6
BRANCH   1  14
ATOM     14  C   LIG    1       25.357 -22.748   6.180  0.00  0.00    +0.317 C 
ATOM     15  O   LIG    1       26.170 -21.982   6.673  0.00  0.00    -0.250 OA
BRANCH  14  16
ATOM     16  C   LIG    1       23.911 -22.389   5.842  0.00  0.00    +0.153 C 
BRANCH  16  17
ATOM     17  C   LIG    1       23.811 -21.082   5.063  0.00  0.00    -0.032 A 
ATOM     18  C   LIG    1       24.762 -20.686   4.110  0.00  0.00    +0.004 A 
ATOM     19  C   LIG    1       24.647 -19.462   3.449  0.00  0.00    +0.000 A 
ATOM     20  C   LIG    1       23.555 -18.635   3.694  0.00  0.00    +0.000 A 
ATOM     21  C   LIG    1       22.579 -19.029   4.605  0.00  0.00    +0.000 A 
ATOM     22  C   LIG    1       22.713 -20.234   5.297  0.00  0.00    +0.004 A 
ENDBRANCH  16  17
BRANCH  16  23
ATOM     23  C   LIG    1       23.108 -22.424   7.158  0.00  0.00    +0.175 C 
BRANCH  23  24
ATOM     24  O   LIG    1       23.667 -21.601   8.176  0.00  0.00    -0.394 OA
ATOM     25  H   LIG    1       24.346 -22.113   8.651  0.00  0.00    +0.209 HD
ENDBRANCH  23  24
ENDBRANCH  16  23
ENDBRANCH  14  16
ENDBRANCH   1  14
TORSDOF 7
ENDMDL
MODEL 8
REMARK VINA RESULT:      -6.1      3.941      6.639
REMARK  Name = *****
REMARK                            x       y       z     vdW  Elec       q    Type
REMARK                         _______ _______ _______ _____ _____    ______ ____
ROOT
ATOM      1  O   LIG    1       25.434 -24.191   5.601  0.00  0.00    -0.461 OA
ENDROOT
BRANCH   1   6
ATOM      2  N   LIG    1       25.005 -28.143   5.666  0.00  0.00    +0.247 N 
ATOM      3  C   LIG    1       23.796 -28.500   4.797  0.00  0.00    +0.193 C 
ATOM      4  C   LIG    1       24.688 -27.107   6.785  0.00  0.00    +0.070 C 
ATOM      5  C   LIG    1       23.907 -25.915   6.210  0.00  0.00    +0.099 C 
ATOM      6  C   LIG    1       24.598 -25.216   5.031  0.00  0.00    +0.187 C 
ATOM      7  C   LIG    1       25.477 -26.132   4.168  0.00  0.00    +0.099 C 
ATOM      8  C   LIG    1       26.083 -26.691   7.275  0.00  0.00    +0.060 C 
ATOM      9  C   LIG    1       27.004 -26.832   6.063  0.00  0.00    +0.060 C 
ATOM     10  C   LIG    1       26.100 -27.319   4.923  0.00  0.00    +0.070 C 
BRANCH   2  12
ATOM     11  C   LIG    1       25.667 -30.630   5.280  0.00  0.00    +0.063 C 
ATOM     12  C   LIG    1       25.605 -29.486   6.295  0.00  0.00    +0.060 C 
ATOM     13  C   LIG    1       24.844 -29.925   7.551  0.00  0.00    +0.063 C 
ENDBRANCH   2  12
ENDBRANCH   1   6
BRANCH   1  14
ATOM     14  C   LIG    1       24.772 -23.165   6.239  0.00  0.00    +0.317 C 
ATOM     15  O   LIG    1       24.145 -23.291   7.279  0.00  0.00    -0.250 OA
BRANCH  14  16
ATOM     16  C   LIG    1       25.054 -21.834   5.545  0.00  0.00    +0.153 C 
BRANCH  16  17
ATOM     17  C   LIG    1       26.314 -21.162   6.080  0.00  0.00    -0.032 A 
ATOM     18  C   LIG    1       26.915 -21.525   7.294  0.00  0.00    +0.004 A 
ATOM     19  C   LIG    1       28.048 -20.856   7.762  0.00  0.00    +0.000 A 
ATOM     20  C   LIG    1       28.626 -19.845   7.000  0.00  0.00    +0.000 A 
ATOM     21  C   LIG    1       28.069 -19.498   5.773  0.00  0.00    +0.000 A 
ATOM     22  C   LIG    1       26.913 -20.139   5.322  0.00  0.00    +0.004 A 
ENDBRANCH  16  17
BRANCH  16  23
ATOM     23  C   LIG    1       23.772 -20.982   5.644  0.00  0.00    +0.175 C 
BRANCH  23  24
ATOM     24  O   LIG    1       22.584 -21.731   5.411  0.00  0.00    -0.394 OA
ATOM     25  H   LIG    1       22.172 -21.936   6.271  0.00  0.00    +0.209 HD
ENDBRANCH  23  24
ENDBRANCH  16  23
ENDBRANCH  14  16
ENDBRANCH   1  14
TORSDOF 7
ENDMDL
MODEL 9
REMARK VINA RESULT:      -6.1      7.884     11.056
REMARK  Name = *****
REMARK                            x       y       z     vdW  Elec       q    Type
REMARK                         _______ _______ _______ _____ _____    ______ ____
ROOT
ATOM      1  O   LIG    1       25.010 -29.328   9.464  0.00  0.00    -0.461 OA
ENDROOT
BRANCH   1   6
ATOM      2  N   LIG    1       26.621 -29.554  13.092  0.00  0.00    +0.247 N 
ATOM      3  C   LIG    1       25.931 -30.697  13.843  0.00  0.00    +0.193 C 
ATOM      4  C   LIG    1       25.633 -28.491  12.526  0.00  0.00    +0.070 C 
ATOM      5  C   LIG    1       24.476 -29.174  11.780  0.00  0.00    +0.099 C 
ATOM      6  C   LIG    1       24.919 -30.125  10.660  0.00  0.00    +0.187 C 
ATOM      7  C   LIG    1       26.276 -30.803  10.894  0.00  0.00    +0.099 C 
ATOM      8  C   LIG    1       26.518 -27.670  11.575  0.00  0.00    +0.060 C 
ATOM      9  C   LIG    1       27.584 -28.641  11.064  0.00  0.00    +0.060 C 
ATOM     10  C   LIG    1       27.266 -29.982  11.738  0.00  0.00    +0.070 C 
BRANCH   2  12
ATOM     11  C   LIG    1       28.767 -29.850  14.533  0.00  0.00    +0.063 C 
ATOM     12  C   LIG    1       27.691 -28.868  14.063  0.00  0.00    +0.060 C 
ATOM     13  C   LIG    1       27.026 -28.186  15.264  0.00  0.00    +0.063 C 
ENDBRANCH   2  12
ENDBRANCH   1   6
BRANCH   1  14
ATOM     14  C   LIG    1       24.368 -29.836   8.356  0.00  0.00    +0.317 C 
ATOM     15  O   LIG    1       23.255 -30.336   8.374  0.00  0.00    -0.250 OA
BRANCH  14  16
ATOM     16  C   LIG    1       25.179 -29.553   7.092  0.00  0.00    +0.153 C 
BRANCH  16  17
ATOM     17  C   LIG    1       25.126 -28.083   6.692  0.00  0.00    -0.032 A 
ATOM     18  C   LIG    1       24.194 -27.575   5.774  0.00  0.00    +0.004 A 
ATOM     19  C   LIG    1       24.208 -26.226   5.410  0.00  0.00    +0.000 A 
ATOM     20  C   LIG    1       25.122 -25.355   5.994  0.00  0.00    +0.000 A 
ATOM     21  C   LIG    1       26.027 -25.831   6.938  0.00  0.00    +0.000 A 
ATOM     22  C   LIG    1       26.041 -27.187   7.273  0.00  0.00    +0.004 A 
ENDBRANCH  16  17
BRANCH  16  23
ATOM     23  C   LIG    1       24.699 -30.539   6.007  0.00  0.00    +0.175 C 
BRANCH  23  24
ATOM     24  O   LIG    1       23.323 -30.381   5.679  0.00  0.00    -0.394 OA
ATOM     25  H   LIG    1       23.027 -29.507   5.992  0.00  0.00    +0.209 HD
ENDBRANCH  23  24
ENDBRANCH  16  23
ENDBRANCH  14  16
ENDBRANCH   1  14
TORSDOF 7
ENDMDL
