MODEL 1
REMARK VINA RESULT:      -5.0      0.000      0.000
REMARK  Name = *****
REMARK                            x       y       z     vdW  Elec       q    Type
REMARK                         _______ _______ _______ _____ _____    ______ ____
ROOT
ATOM      1  N   LIG    1       27.769 -17.030   4.207  0.00  0.00    -0.084 NA
ATOM      2  C   LIG    1       26.557 -16.962   3.723  0.00  0.00    +0.118 C 
ENDROOT
BRANCH   2   3
ATOM      3  C   LIG    1       25.611 -18.117   3.487  0.00  0.00    +0.005 A 
ATOM      4  C   LIG    1       24.356 -18.164   4.106  0.00  0.00    +0.022 A 
ATOM      5  C   LIG    1       23.476 -19.241   3.896  0.00  0.00    +0.055 A 
ATOM      6  C   LIG    1       23.820 -20.235   2.972  0.00  0.00    +0.012 A 
ATOM      7  C   LIG    1       25.050 -20.186   2.320  0.00  0.00    +0.001 A 
ATOM      8  C   LIG    1       25.954 -19.159   2.607  0.00  0.00    +0.010 A 
BRANCH   5   9
ATOM      9  C   LIG    1       22.201 -19.323   4.701  0.00  0.00    +0.417 C 
ATOM     10  F   LIG    1       21.185 -18.606   4.149  0.00  0.00    -0.166 F 
ATOM     11  F   LIG    1       22.360 -18.837   5.964  0.00  0.00    -0.166 F 
ATOM     12  F   LIG    1       21.730 -20.592   4.850  0.00  0.00    -0.166 F 
ENDBRANCH   5   9
ENDBRANCH   2   3
BRANCH   2  13
ATOM     13  C   LIG    1       26.083 -15.569   3.400  0.00  0.00    +0.022 A 
ATOM     14  C   LIG    1       26.790 -14.725   2.549  0.00  0.00    +0.120 A 
ATOM     15  N   LIG    1       26.389 -13.478   2.201  0.00  0.00    -0.263 NA
ATOM     16  C   LIG    1       25.200 -13.065   2.691  0.00  0.00    +0.111 A 
ATOM     17  C   LIG    1       24.408 -13.832   3.530  0.00  0.00    +0.020 A 
ATOM     18  C   LIG    1       24.861 -15.100   3.893  0.00  0.00    +0.013 A 
ENDBRANCH   2  13
BRANCH   1  19
ATOM     19  O   LIG    1       28.249 -18.314   4.501  0.00  0.00    -0.393 OA
BRANCH  19  20
ATOM     20  C   LIG    1       29.216 -18.192   5.554  0.00  0.00    +0.263 C 
BRANCH  20  21
ATOM     21  C   LIG    1       29.157 -19.420   6.467  0.00  0.00    +0.044 C 
BRANCH  21  22
ATOM     22  C   LIG    1       27.976 -20.332   6.113  0.00  0.00    +0.014 C 
BRANCH  22  23
ATOM     23  C   LIG    1       26.773 -20.118   7.033  0.00  0.00    +0.120 C 
BRANCH  23  25
ATOM     24  O   LIG    1       24.474 -20.899   7.062  0.00  0.00    -0.251 OA
ATOM     25  C   LIG    1       25.562 -20.882   6.531  0.00  0.00    +0.305 C 
BRANCH  25  26
ATOM     26  O   LIG    1       25.821 -21.570   5.396  0.00  0.00    -0.481 OA
ATOM     27  H   LIG    1       25.041 -21.791   4.866  0.00  0.00    +0.295 HD
ENDBRANCH  25  26
ENDBRANCH  23  25
ENDBRANCH  22  23
ENDBRANCH  21  22
ENDBRANCH  20  21
ENDBRANCH  19  20
ENDBRANCH   1  19
TORSDOF 10
ENDMDL
MODEL 2
REMARK VINA RESULT:      -3.2      2.492      4.497
REMARK  Name = *****
REMARK                            x       y       z     vdW  Elec       q    Type
REMARK                         _______ _______ _______ _____ _____    ______ ____
ROOT
ATOM      1  N   LIG    1       27.451 -18.397   4.456  0.00  0.00    -0.084 NA
ATOM      2  C   LIG    1       26.458 -17.677   4.004  0.00  0.00    +0.118 C 
ENDROOT
BRANCH   2   3
ATOM      3  C   LIG    1       26.469 -16.189   3.734  0.00  0.00    +0.005 A 
ATOM      4  C   LIG    1       25.280 -15.453   3.687  0.00  0.00    +0.022 A 
ATOM      5  C   LIG    1       25.285 -14.069   3.428  0.00  0.00    +0.055 A 
ATOM      6  C   LIG    1       26.509 -13.399   3.316  0.00  0.00    +0.012 A 
ATOM      7  C   LIG    1       27.704 -14.111   3.395  0.00  0.00    +0.001 A 
ATOM      8  C   LIG    1       27.683 -15.500   3.560  0.00  0.00    +0.010 A 
BRANCH   5   9
ATOM      9  C   LIG    1       23.974 -13.348   3.237  0.00  0.00    +0.417 C 
ATOM     10  F   LIG    1       23.940 -12.612   2.093  0.00  0.00    -0.166 F 
ATOM     11  F   LIG    1       23.716 -12.474   4.251  0.00  0.00    -0.166 F 
ATOM     12  F   LIG    1       22.896 -14.178   3.183  0.00  0.00    -0.166 F 
ENDBRANCH   5   9
ENDBRANCH   2   3
BRANCH   2  13
ATOM     13  C   LIG    1       25.198 -18.449   3.714  0.00  0.00    +0.022 A 
ATOM     14  C   LIG    1       25.222 -19.717   3.140  0.00  0.00    +0.120 A 
ATOM     15  N   LIG    1       24.120 -20.465   2.890  0.00  0.00    -0.263 NA
ATOM     16  C   LIG    1       22.934 -19.944   3.272  0.00  0.00    +0.111 A 
ATOM     17  C   LIG    1       22.799 -18.701   3.869  0.00  0.00    +0.020 A 
ATOM     18  C   LIG    1       23.949 -17.941   4.087  0.00  0.00    +0.013 A 
ENDBRANCH   2  13
BRANCH   1  19
ATOM     19  O   LIG    1       28.633 -17.706   4.755  0.00  0.00    -0.393 OA
BRANCH  19  20
ATOM     20  C   LIG    1       29.441 -18.555   5.583  0.00  0.00    +0.263 C 
BRANCH  20  21
ATOM     21  C   LIG    1       28.797 -19.939   5.705  0.00  0.00    +0.044 C 
BRANCH  21  22
ATOM     22  C   LIG    1       28.025 -20.088   7.021  0.00  0.00    +0.014 C 
BRANCH  22  23
ATOM     23  C   LIG    1       27.175 -21.360   7.062  0.00  0.00    +0.120 C 
BRANCH  23  25
ATOM     24  O   LIG    1       24.876 -20.581   7.029  0.00  0.00    -0.251 OA
ATOM     25  C   LIG    1       25.802 -21.116   6.463  0.00  0.00    +0.305 C 
BRANCH  25  26
ATOM     26  O   LIG    1       25.706 -21.572   5.193  0.00  0.00    -0.481 OA
ATOM     27  H   LIG    1       25.654 -22.536   5.109  0.00  0.00    +0.295 HD
ENDBRANCH  25  26
ENDBRANCH  23  25
ENDBRANCH  22  23
ENDBRANCH  21  22
ENDBRANCH  20  21
ENDBRANCH  19  20
ENDBRANCH   1  19
TORSDOF 10
ENDMDL
MODEL 3
REMARK VINA RESULT:      -3.1      1.459      2.124
REMARK  Name = *****
REMARK                            x       y       z     vdW  Elec       q    Type
REMARK                         _______ _______ _______ _____ _____    ______ ____
ROOT
ATOM      1  N   LIG    1       27.055 -16.318   3.847  0.00  0.00    -0.084 NA
ATOM      2  C   LIG    1       25.783 -16.065   3.690  0.00  0.00    +0.118 C 
ENDROOT
BRANCH   2   3
ATOM      3  C   LIG    1       24.637 -17.032   3.888  0.00  0.00    +0.005 A 
ATOM      4  C   LIG    1       24.831 -18.414   3.786  0.00  0.00    +0.022 A 
ATOM      5  C   LIG    1       23.766 -19.318   3.961  0.00  0.00    +0.055 A 
ATOM      6  C   LIG    1       22.511 -18.829   4.344  0.00  0.00    +0.012 A 
ATOM      7  C   LIG    1       22.309 -17.458   4.484  0.00  0.00    +0.001 A 
ATOM      8  C   LIG    1       23.352 -16.565   4.217  0.00  0.00    +0.010 A 
BRANCH   5   9
ATOM      9  C   LIG    1       23.990 -20.786   3.693  0.00  0.00    +0.417 C 
ATOM     10  F   LIG    1       23.398 -21.206   2.543  0.00  0.00    -0.166 F 
ATOM     11  F   LIG    1       23.482 -21.572   4.684  0.00  0.00    -0.166 F 
ATOM     12  F   LIG    1       25.304 -21.128   3.588  0.00  0.00    -0.166 F 
ENDBRANCH   5   9
ENDBRANCH   2   3
BRANCH   2  13
ATOM     13  C   LIG    1       25.464 -14.647   3.293  0.00  0.00    +0.022 A 
ATOM     14  C   LIG    1       26.335 -13.881   2.524  0.00  0.00    +0.120 A 
ATOM     15  N   LIG    1       26.080 -12.614   2.112  0.00  0.00    -0.263 NA
ATOM     16  C   LIG    1       24.877 -12.099   2.446  0.00  0.00    +0.111 A 
ATOM     17  C   LIG    1       23.930 -12.782   3.190  0.00  0.00    +0.020 A 
ATOM     18  C   LIG    1       24.232 -14.073   3.624  0.00  0.00    +0.013 A 
ENDBRANCH   2  13
BRANCH   1  19
ATOM     19  O   LIG    1       27.388 -17.633   4.199  0.00  0.00    -0.393 OA
BRANCH  19  20
ATOM     20  C   LIG    1       28.801 -17.679   4.443  0.00  0.00    +0.263 C 
BRANCH  20  21
ATOM     21  C   LIG    1       29.070 -17.982   5.920  0.00  0.00    +0.044 C 
BRANCH  21  22
ATOM     22  C   LIG    1       29.314 -19.477   6.156  0.00  0.00    +0.014 C 
BRANCH  22  23
ATOM     23  C   LIG    1       28.256 -20.110   7.062  0.00  0.00    +0.120 C 
BRANCH  23  25
ATOM     24  O   LIG    1       25.899 -20.618   6.778  0.00  0.00    -0.251 OA
ATOM     25  C   LIG    1       26.987 -20.412   6.288  0.00  0.00    +0.305 C 
BRANCH  25  26
ATOM     26  O   LIG    1       27.191 -20.432   4.950  0.00  0.00    -0.481 OA
ATOM     27  H   LIG    1       27.676 -21.206   4.624  0.00  0.00    +0.295 HD
ENDBRANCH  25  26
ENDBRANCH  23  25
ENDBRANCH  22  23
ENDBRANCH  21  22
ENDBRANCH  20  21
ENDBRANCH  19  20
ENDBRANCH   1  19
TORSDOF 10
ENDMDL
MODEL 4
REMARK VINA RESULT:      -3.0      2.563      5.501
REMARK  Name = *****
REMARK                            x       y       z     vdW  Elec       q    Type
REMARK                         _______ _______ _______ _____ _____    ______ ____
ROOT
ATOM      1  N   LIG    1       26.712 -17.634   3.862  0.00  0.00    -0.084 NA
ATOM      2  C   LIG    1       26.290 -18.752   4.391  0.00  0.00    +0.118 C 
ENDROOT
BRANCH   2   3
ATOM      3  C   LIG    1       24.954 -19.417   4.153  0.00  0.00    +0.005 A 
ATOM      4  C   LIG    1       23.786 -18.662   3.997  0.00  0.00    +0.022 A 
ATOM      5  C   LIG    1       22.538 -19.278   3.784  0.00  0.00    +0.055 A 
ATOM      6  C   LIG    1       22.480 -20.667   3.623  0.00  0.00    +0.012 A 
ATOM      7  C   LIG    1       23.639 -21.432   3.740  0.00  0.00    +0.001 A 
ATOM      8  C   LIG    1       24.857 -20.816   4.044  0.00  0.00    +0.010 A 
BRANCH   5   9
ATOM      9  C   LIG    1       21.288 -18.432   3.773  0.00  0.00    +0.417 C 
ATOM     10  F   LIG    1       20.171 -19.142   4.091  0.00  0.00    -0.166 F 
ATOM     11  F   LIG    1       21.049 -17.885   2.548  0.00  0.00    -0.166 F 
ATOM     12  F   LIG    1       21.329 -17.385   4.643  0.00  0.00    -0.166 F 
ENDBRANCH   5   9
ENDBRANCH   2   3
BRANCH   2  13
ATOM     13  C   LIG    1       27.275 -19.427   5.309  0.00  0.00    +0.022 A 
ATOM     14  C   LIG    1       28.561 -18.934   5.508  0.00  0.00    +0.120 A 
ATOM     15  N   LIG    1       29.471 -19.485   6.348  0.00  0.00    -0.263 NA
ATOM     16  C   LIG    1       29.065 -20.557   7.062  0.00  0.00    +0.111 A 
ATOM     17  C   LIG    1       27.802 -21.116   6.956  0.00  0.00    +0.020 A 
ATOM     18  C   LIG    1       26.897 -20.544   6.062  0.00  0.00    +0.013 A 
ENDBRANCH   2  13
BRANCH   1  19
ATOM     19  O   LIG    1       25.813 -16.969   3.016  0.00  0.00    -0.393 OA
BRANCH  19  20
ATOM     20  C   LIG    1       26.295 -15.632   2.825  0.00  0.00    +0.263 C 
BRANCH  20  21
ATOM     21  C   LIG    1       27.098 -15.182   4.049  0.00  0.00    +0.044 C 
BRANCH  21  22
ATOM     22  C   LIG    1       26.591 -13.842   4.596  0.00  0.00    +0.014 C 
BRANCH  22  23
ATOM     23  C   LIG    1       25.066 -13.731   4.557  0.00  0.00    +0.120 C 
BRANCH  23  25
ATOM     24  O   LIG    1       23.657 -11.904   3.801  0.00  0.00    -0.251 OA
ATOM     25  C   LIG    1       24.626 -12.610   3.634  0.00  0.00    +0.305 C 
BRANCH  25  26
ATOM     26  O   LIG    1       25.446 -12.469   2.567  0.00  0.00    -0.481 OA
ATOM     27  H   LIG    1       25.873 -11.602   2.493  0.00  0.00    +0.295 HD
ENDBRANCH  25  26
ENDBRANCH  23  25
ENDBRANCH  22  23
ENDBRANCH  21  22
ENDBRANCH  20  21
ENDBRANCH  19  20
ENDBRANCH   1  19
TORSDOF 10
ENDMDL
MODEL 5
REMARK VINA RESULT:      -2.9      2.389      5.641
REMARK  Name = *****
REMARK                            x       y       z     vdW  Elec       q    Type
REMARK                         _______ _______ _______ _____ _____    ______ ____
ROOT
ATOM      1  N   LIG    1       26.883 -17.805   3.928  0.00  0.00    -0.084 NA
ATOM      2  C   LIG    1       26.388 -18.904   4.433  0.00  0.00    +0.118 C 
ENDROOT
BRANCH   2   3
ATOM      3  C   LIG    1       25.035 -19.508   4.133  0.00  0.00    +0.005 A 
ATOM      4  C   LIG    1       23.886 -18.711   4.059  0.00  0.00    +0.022 A 
ATOM      5  C   LIG    1       22.623 -19.270   3.788  0.00  0.00    +0.055 A 
ATOM      6  C   LIG    1       22.530 -20.634   3.486  0.00  0.00    +0.012 A 
ATOM      7  C   LIG    1       23.668 -21.435   3.519  0.00  0.00    +0.001 A 
ATOM      8  C   LIG    1       24.902 -20.885   3.881  0.00  0.00    +0.010 A 
BRANCH   5   9
ATOM      9  C   LIG    1       21.395 -18.397   3.870  0.00  0.00    +0.417 C 
ATOM     10  F   LIG    1       21.228 -17.620   2.765  0.00  0.00    -0.166 F 
ATOM     11  F   LIG    1       21.445 -17.538   4.927  0.00  0.00    -0.166 F 
ATOM     12  F   LIG    1       20.236 -19.097   4.016  0.00  0.00    -0.166 F 
ENDBRANCH   5   9
ENDBRANCH   2   3
BRANCH   2  13
ATOM     13  C   LIG    1       27.299 -19.626   5.391  0.00  0.00    +0.022 A 
ATOM     14  C   LIG    1       26.895 -20.765   6.081  0.00  0.00    +0.120 A 
ATOM     15  N   LIG    1       27.687 -21.469   6.927  0.00  0.00    -0.263 NA
ATOM     16  C   LIG    1       28.961 -21.042   7.060  0.00  0.00    +0.111 A 
ATOM     17  C   LIG    1       29.471 -19.933   6.405  0.00  0.00    +0.020 A 
ATOM     18  C   LIG    1       28.625 -19.212   5.563  0.00  0.00    +0.013 A 
ENDBRANCH   2  13
BRANCH   1  19
ATOM     19  O   LIG    1       26.054 -17.098   3.047  0.00  0.00    -0.393 OA
BRANCH  19  20
ATOM     20  C   LIG    1       26.474 -15.727   3.052  0.00  0.00    +0.263 C 
BRANCH  20  21
ATOM     21  C   LIG    1       25.362 -14.838   3.616  0.00  0.00    +0.044 C 
BRANCH  21  22
ATOM     22  C   LIG    1       25.905 -13.836   4.642  0.00  0.00    +0.014 C 
BRANCH  22  23
ATOM     23  C   LIG    1       27.432 -13.850   4.725  0.00  0.00    +0.120 C 
BRANCH  23  25
ATOM     24  O   LIG    1       27.441 -12.190   2.953  0.00  0.00    -0.251 OA
ATOM     25  C   LIG    1       28.044 -12.983   3.641  0.00  0.00    +0.305 C 
BRANCH  25  26
ATOM     26  O   LIG    1       29.375 -13.189   3.507  0.00  0.00    -0.481 OA
ATOM     27  H   LIG    1       29.791 -13.660   4.244  0.00  0.00    +0.295 HD
ENDBRANCH  25  26
ENDBRANCH  23  25
ENDBRANCH  22  23
ENDBRANCH  21  22
ENDBRANCH  20  21
ENDBRANCH  19  20
ENDBRANCH   1  19
TORSDOF 10
ENDMDL
MODEL 6
REMARK VINA RESULT:      -2.7      3.526      6.303
REMARK  Name = *****
REMARK                            x       y       z     vdW  Elec       q    Type
REMARK                         _______ _______ _______ _____ _____    ______ ____
ROOT
ATOM      1  N   LIG    1       24.843 -18.170   3.299  0.00  0.00    -0.084 NA
ATOM      2  C   LIG    1       24.377 -19.081   4.112  0.00  0.00    +0.118 C 
ENDROOT
BRANCH   2   3
ATOM      3  C   LIG    1       25.169 -19.888   5.116  0.00  0.00    +0.005 A 
ATOM      4  C   LIG    1       26.531 -19.644   5.327  0.00  0.00    +0.022 A 
ATOM      5  C   LIG    1       27.274 -20.399   6.255  0.00  0.00    +0.055 A 
ATOM      6  C   LIG    1       26.615 -21.341   7.054  0.00  0.00    +0.012 A 
ATOM      7  C   LIG    1       25.253 -21.571   6.881  0.00  0.00    +0.001 A 
ATOM      8  C   LIG    1       24.545 -20.881   5.892  0.00  0.00    +0.010 A 
BRANCH   5   9
ATOM      9  C   LIG    1       28.768 -20.204   6.339  0.00  0.00    +0.417 C 
ATOM     10  F   LIG    1       29.402 -21.248   6.939  0.00  0.00    -0.166 F 
ATOM     11  F   LIG    1       29.102 -19.098   7.062  0.00  0.00    -0.166 F 
ATOM     12  F   LIG    1       29.368 -20.046   5.126  0.00  0.00    -0.166 F 
ENDBRANCH   5   9
ENDBRANCH   2   3
BRANCH   2  13
ATOM     13  C   LIG    1       22.889 -19.304   4.025  0.00  0.00    +0.022 A 
ATOM     14  C   LIG    1       22.289 -20.474   4.480  0.00  0.00    +0.120 A 
ATOM     15  N   LIG    1       20.954 -20.708   4.455  0.00  0.00    -0.263 NA
ATOM     16  C   LIG    1       20.171 -19.709   3.994  0.00  0.00    +0.111 A 
ATOM     17  C   LIG    1       20.664 -18.498   3.536  0.00  0.00    +0.020 A 
ATOM     18  C   LIG    1       22.044 -18.296   3.548  0.00  0.00    +0.013 A 
ENDBRANCH   2  13
BRANCH   1  19
ATOM     19  O   LIG    1       26.226 -17.951   3.340  0.00  0.00    -0.393 OA
BRANCH  19  20
ATOM     20  C   LIG    1       26.450 -16.536   3.258  0.00  0.00    +0.263 C 
BRANCH  20  21
ATOM     21  C   LIG    1       25.128 -15.783   3.427  0.00  0.00    +0.044 C 
BRANCH  21  22
ATOM     22  C   LIG    1       25.332 -14.265   3.386  0.00  0.00    +0.014 C 
BRANCH  22  23
ATOM     23  C   LIG    1       26.781 -13.875   3.085  0.00  0.00    +0.120 C 
BRANCH  23  25
ATOM     24  O   LIG    1       26.933 -13.149   5.397  0.00  0.00    -0.251 OA
ATOM     25  C   LIG    1       27.456 -13.300   4.316  0.00  0.00    +0.305 C 
BRANCH  25  26
ATOM     26  O   LIG    1       28.744 -12.956   4.083  0.00  0.00    -0.481 OA
ATOM     27  H   LIG    1       29.317 -12.971   4.864  0.00  0.00    +0.295 HD
ENDBRANCH  25  26
ENDBRANCH  23  25
ENDBRANCH  22  23
ENDBRANCH  21  22
ENDBRANCH  20  21
ENDBRANCH  19  20
ENDBRANCH   1  19
TORSDOF 10
ENDMDL
MODEL 7
REMARK VINA RESULT:      -2.7      2.606      5.335
REMARK  Name = *****
REMARK                            x       y       z     vdW  Elec       q    Type
REMARK                         _______ _______ _______ _____ _____    ______ ____
ROOT
ATOM      1  N   LIG    1       25.252 -18.766   3.632  0.00  0.00    -0.084 NA
ATOM      2  C   LIG    1       26.164 -17.892   3.969  0.00  0.00    +0.118 C 
ENDROOT
BRANCH   2   3
ATOM      3  C   LIG    1       26.164 -16.415   3.649  0.00  0.00    +0.005 A 
ATOM      4  C   LIG    1       25.105 -15.589   4.044  0.00  0.00    +0.022 A 
ATOM      5  C   LIG    1       25.096 -14.214   3.741  0.00  0.00    +0.055 A 
ATOM      6  C   LIG    1       26.216 -13.643   3.123  0.00  0.00    +0.012 A 
ATOM      7  C   LIG    1       27.294 -14.445   2.755  0.00  0.00    +0.001 A 
ATOM      8  C   LIG    1       27.250 -15.824   2.978  0.00  0.00    +0.010 A 
BRANCH   5   9
ATOM      9  C   LIG    1       23.867 -13.396   4.052  0.00  0.00    +0.417 C 
ATOM     10  F   LIG    1       22.845 -14.148   4.543  0.00  0.00    -0.166 F 
ATOM     11  F   LIG    1       23.374 -12.769   2.947  0.00  0.00    -0.166 F 
ATOM     12  F   LIG    1       24.084 -12.412   4.969  0.00  0.00    -0.166 F 
ENDBRANCH   5   9
ENDBRANCH   2   3
BRANCH   2  13
ATOM     13  C   LIG    1       27.306 -18.451   4.778  0.00  0.00    +0.022 A 
ATOM     14  C   LIG    1       28.437 -17.700   5.079  0.00  0.00    +0.120 A 
ATOM     15  N   LIG    1       29.474 -18.145   5.830  0.00  0.00    -0.263 NA
ATOM     16  C   LIG    1       29.360 -19.388   6.346  0.00  0.00    +0.111 A 
ATOM     17  C   LIG    1       28.269 -20.212   6.125  0.00  0.00    +0.020 A 
ATOM     18  C   LIG    1       27.230 -19.737   5.324  0.00  0.00    +0.013 A 
ENDBRANCH   2  13
BRANCH   1  19
ATOM     19  O   LIG    1       24.185 -18.282   2.862  0.00  0.00    -0.393 OA
BRANCH  19  20
ATOM     20  C   LIG    1       23.050 -19.125   3.106  0.00  0.00    +0.263 C 
BRANCH  20  21
ATOM     21  C   LIG    1       22.226 -18.572   4.273  0.00  0.00    +0.044 C 
BRANCH  21  22
ATOM     22  C   LIG    1       22.454 -19.377   5.557  0.00  0.00    +0.014 C 
BRANCH  22  23
ATOM     23  C   LIG    1       22.713 -20.860   5.284  0.00  0.00    +0.120 C 
BRANCH  23  25
ATOM     24  O   LIG    1       24.474 -21.312   6.893  0.00  0.00    -0.251 OA
ATOM     25  C   LIG    1       24.102 -21.263   5.742  0.00  0.00    +0.305 C 
BRANCH  25  26
ATOM     26  O   LIG    1       24.917 -21.571   4.707  0.00  0.00    -0.481 OA
ATOM     27  H   LIG    1       24.945 -20.910   4.000  0.00  0.00    +0.295 HD
ENDBRANCH  25  26
ENDBRANCH  23  25
ENDBRANCH  22  23
ENDBRANCH  21  22
ENDBRANCH  20  21
ENDBRANCH  19  20
ENDBRANCH   1  19
TORSDOF 10
ENDMDL
MODEL 8
REMARK VINA RESULT:      -2.6      3.790      6.442
REMARK  Name = *****
REMARK                            x       y       z     vdW  Elec       q    Type
REMARK                         _______ _______ _______ _____ _____    ______ ____
ROOT
ATOM      1  N   LIG    1       24.994 -17.981   3.499  0.00  0.00    -0.084 NA
ATOM      2  C   LIG    1       24.506 -18.942   4.238  0.00  0.00    +0.118 C 
ENDROOT
BRANCH   2   3
ATOM      3  C   LIG    1       25.275 -19.829   5.192  0.00  0.00    +0.005 A 
ATOM      4  C   LIG    1       26.655 -19.676   5.370  0.00  0.00    +0.022 A 
ATOM      5  C   LIG    1       27.376 -20.504   6.251  0.00  0.00    +0.055 A 
ATOM      6  C   LIG    1       26.682 -21.431   7.040  0.00  0.00    +0.012 A 
ATOM      7  C   LIG    1       25.304 -21.572   6.901  0.00  0.00    +0.001 A 
ATOM      8  C   LIG    1       24.613 -20.807   5.956  0.00  0.00    +0.010 A 
BRANCH   5   9
ATOM      9  C   LIG    1       28.881 -20.404   6.296  0.00  0.00    +0.417 C 
ATOM     10  F   LIG    1       29.456 -21.428   6.983  0.00  0.00    -0.166 F 
ATOM     11  F   LIG    1       29.301 -19.261   6.908  0.00  0.00    -0.166 F 
ATOM     12  F   LIG    1       29.465 -20.400   5.066  0.00  0.00    -0.166 F 
ENDBRANCH   5   9
ENDBRANCH   2   3
BRANCH   2  13
ATOM     13  C   LIG    1       23.018 -19.141   4.115  0.00  0.00    +0.022 A 
ATOM     14  C   LIG    1       22.166 -18.118   3.711  0.00  0.00    +0.120 A 
ATOM     15  N   LIG    1       20.827 -18.255   3.553  0.00  0.00    -0.263 NA
ATOM     16  C   LIG    1       20.314 -19.486   3.765  0.00  0.00    +0.111 A 
ATOM     17  C   LIG    1       21.075 -20.578   4.151  0.00  0.00    +0.020 A 
ATOM     18  C   LIG    1       22.447 -20.399   4.333  0.00  0.00    +0.013 A 
ENDBRANCH   2  13
BRANCH   1  19
ATOM     19  O   LIG    1       26.380 -17.782   3.575  0.00  0.00    -0.393 OA
BRANCH  19  20
ATOM     20  C   LIG    1       26.666 -16.476   3.056  0.00  0.00    +0.263 C 
BRANCH  20  21
ATOM     21  C   LIG    1       25.579 -15.488   3.490  0.00  0.00    +0.044 C 
BRANCH  21  22
ATOM     22  C   LIG    1       26.159 -14.096   3.766  0.00  0.00    +0.014 C 
BRANCH  22  23
ATOM     23  C   LIG    1       25.723 -13.061   2.727  0.00  0.00    +0.120 C 
BRANCH  23  25
ATOM     24  O   LIG    1       23.832 -12.552   4.163  0.00  0.00    -0.251 OA
ATOM     25  C   LIG    1       24.371 -12.470   3.082  0.00  0.00    +0.305 C 
BRANCH  25  26
ATOM     26  O   LIG    1       23.802 -11.821   2.040  0.00  0.00    -0.481 OA
ATOM     27  H   LIG    1       24.353 -11.132   1.639  0.00  0.00    +0.295 HD
ENDBRANCH  25  26
ENDBRANCH  23  25
ENDBRANCH  22  23
ENDBRANCH  21  22
ENDBRANCH  20  21
ENDBRANCH  19  20
ENDBRANCH   1  19
TORSDOF 10
ENDMDL
