MODEL 1
REMARK VINA RESULT:     -11.6      0.000      0.000
REMARK  Name = *****
REMARK                            x       y       z     vdW  Elec       q    Type
REMARK                         _______ _______ _______ _____ _____    ______ ____
ROOT
ATOM      1  C   LIG    1       25.382 -27.213   6.714  0.00  0.00    +0.039 A 
ATOM      2  C   LIG    1       26.103 -27.877   7.711  0.00  0.00    +0.036 A 
ATOM      3  C   LIG    1       25.758 -29.163   8.143  0.00  0.00    +0.037 A 
ATOM      4  C   LIG    1       24.655 -29.792   7.527  0.00  0.00    -0.029 A 
ATOM      5  C   LIG    1       24.218 -31.180   7.912  0.00  0.00    +0.045 C 
ATOM      6  C   LIG    1       23.927 -29.120   6.525  0.00  0.00    +0.006 A 
ATOM      7  C   LIG    1       24.286 -27.837   6.123  0.00  0.00    +0.013 A 
ENDROOT
BRANCH   1  10
ATOM      8  N   LIG    1       24.944 -24.822   6.870  0.00  0.00    -0.281 N 
ATOM      9  H   LIG    1       24.301 -25.074   7.614  0.00  0.00    +0.155 HD
ATOM     10  C   LIG    1       25.735 -25.829   6.334  0.00  0.00    +0.248 C 
ATOM     11  O   LIG    1       26.722 -25.678   5.608  0.00  0.00    -0.270 OA
BRANCH   8  16
ATOM     12  C   LIG    1       26.349 -21.373   6.722  0.00  0.00    +0.050 A 
ATOM     13  C   LIG    1       25.243 -20.685   6.210  0.00  0.00    +0.038 A 
ATOM     14  C   LIG    1       24.065 -21.372   5.860  0.00  0.00    +0.059 A 
ATOM     15  C   LIG    1       23.999 -22.760   6.051  0.00  0.00    +0.035 A 
ATOM     16  C   LIG    1       25.082 -23.448   6.599  0.00  0.00    +0.036 A 
ATOM     17  C   LIG    1       26.261 -22.755   6.888  0.00  0.00    +0.049 A 
BRANCH  12  22
ATOM     18  C   LIG    1       30.884 -19.225   6.771  0.00  0.00    +0.067 C 
ATOM     19  C   LIG    1       29.542 -19.747   7.105  0.00  0.00    +0.056 A 
ATOM     20  N   LIG    1       28.996 -19.518   8.337  0.00  0.00    -0.241 NA
ATOM     21  C   LIG    1       27.814 -20.090   8.302  0.00  0.00    +0.204 A 
ATOM     22  N   LIG    1       27.542 -20.688   7.092  0.00  0.00    -0.305 N 
ATOM     23  C   LIG    1       28.674 -20.482   6.327  0.00  0.00    +0.115 A 
ENDBRANCH  12  22
BRANCH  14  24
ATOM     24  C   LIG    1       22.895 -20.590   5.316  0.00  0.00    +0.417 C 
ATOM     25  F   LIG    1       21.781 -21.363   5.181  0.00  0.00    -0.166 F 
ATOM     26  F   LIG    1       23.144 -20.080   4.078  0.00  0.00    -0.166 F 
ATOM     27  F   LIG    1       22.519 -19.533   6.083  0.00  0.00    -0.166 F 
ENDBRANCH  14  24
ENDBRANCH   8  16
ENDBRANCH   1  10
BRANCH   3  28
ATOM     28  N   LIG    1       26.523 -29.834   9.117  0.00  0.00    -0.283 N 
ATOM     29  H   LIG    1       26.497 -30.841   9.099  0.00  0.00    +0.155 HD
BRANCH  28  30
ATOM     30  C   LIG    1       26.989 -29.400  10.358  0.00  0.00    +0.220 A 
ATOM     31  N   LIG    1       26.346 -28.424  11.018  0.00  0.00    -0.214 NA
ATOM     32  C   LIG    1       26.821 -28.018  12.212  0.00  0.00    +0.077 A 
ATOM     33  C   LIG    1       27.946 -28.590  12.764  0.00  0.00    +0.048 A 
ATOM     34  C   LIG    1       28.549 -29.574  12.021  0.00  0.00    +0.116 A 
ATOM     35  N   LIG    1       28.103 -29.983  10.820  0.00  0.00    -0.223 NA
BRANCH  32  36
ATOM     36  C   LIG    1       26.071 -26.927  12.851  0.00  0.00    +0.019 A 
ATOM     37  C   LIG    1       26.646 -25.670  13.058  0.00  0.00    +0.120 A 
ATOM     38  N   LIG    1       26.029 -24.621  13.657  0.00  0.00    -0.263 NA
ATOM     39  C   LIG    1       24.765 -24.822  14.083  0.00  0.00    +0.111 A 
ATOM     40  C   LIG    1       24.088 -26.014  13.920  0.00  0.00    +0.020 A 
ATOM     41  C   LIG    1       24.750 -27.071  13.296  0.00  0.00    +0.013 A 
ENDBRANCH  32  36
ENDBRANCH  28  30
ENDBRANCH   3  28
TORSDOF 7
ENDMDL
MODEL 2
REMARK VINA RESULT:     -11.5      1.484      1.940
REMARK  Name = *****
REMARK                            x       y       z     vdW  Elec       q    Type
REMARK                         _______ _______ _______ _____ _____    ______ ____
ROOT
ATOM      1  C   LIG    1       25.228 -27.344   6.421  0.00  0.00    +0.039 A 
ATOM      2  C   LIG    1       25.900 -27.834   7.545  0.00  0.00    +0.036 A 
ATOM      3  C   LIG    1       25.669 -29.122   8.043  0.00  0.00    +0.037 A 
ATOM      4  C   LIG    1       24.736 -29.935   7.363  0.00  0.00    -0.029 A 
ATOM      5  C   LIG    1       24.433 -31.338   7.814  0.00  0.00    +0.045 C 
ATOM      6  C   LIG    1       24.057 -29.437   6.233  0.00  0.00    +0.006 A 
ATOM      7  C   LIG    1       24.299 -28.148   5.767  0.00  0.00    +0.013 A 
ENDROOT
BRANCH   1  10
ATOM      8  N   LIG    1       25.140 -24.953   6.878  0.00  0.00    -0.281 N 
ATOM      9  H   LIG    1       24.958 -25.228   7.838  0.00  0.00    +0.155 HD
ATOM     10  C   LIG    1       25.449 -25.955   5.968  0.00  0.00    +0.248 C 
ATOM     11  O   LIG    1       25.922 -25.798   4.839  0.00  0.00    -0.270 OA
BRANCH   8  16
ATOM     12  C   LIG    1       26.437 -21.460   6.777  0.00  0.00    +0.050 A 
ATOM     13  C   LIG    1       25.305 -20.798   6.286  0.00  0.00    +0.038 A 
ATOM     14  C   LIG    1       24.146 -21.515   5.934  0.00  0.00    +0.059 A 
ATOM     15  C   LIG    1       24.125 -22.907   6.102  0.00  0.00    +0.035 A 
ATOM     16  C   LIG    1       25.233 -23.571   6.629  0.00  0.00    +0.036 A 
ATOM     17  C   LIG    1       26.393 -22.847   6.920  0.00  0.00    +0.049 A 
BRANCH  12  22
ATOM     18  C   LIG    1       30.947 -19.262   6.858  0.00  0.00    +0.067 C 
ATOM     19  C   LIG    1       29.601 -19.782   7.176  0.00  0.00    +0.056 A 
ATOM     20  N   LIG    1       29.014 -19.498   8.378  0.00  0.00    -0.241 NA
ATOM     21  C   LIG    1       27.839 -20.084   8.335  0.00  0.00    +0.204 A 
ATOM     22  N   LIG    1       27.611 -20.744   7.149  0.00  0.00    -0.305 N 
ATOM     23  C   LIG    1       28.764 -20.564   6.409  0.00  0.00    +0.115 A 
ENDBRANCH  12  22
BRANCH  14  24
ATOM     24  C   LIG    1       22.948 -20.761   5.414  0.00  0.00    +0.417 C 
ATOM     25  F   LIG    1       23.169 -20.241   4.173  0.00  0.00    -0.166 F 
ATOM     26  F   LIG    1       22.619 -19.702   6.205  0.00  0.00    -0.166 F 
ATOM     27  F   LIG    1       21.817 -21.506   5.304  0.00  0.00    -0.166 F 
ENDBRANCH  14  24
ENDBRANCH   8  16
ENDBRANCH   1  10
BRANCH   3  28
ATOM     28  N   LIG    1       26.388 -29.615   9.149  0.00  0.00    -0.283 N 
ATOM     29  H   LIG    1       27.063 -30.341   8.964  0.00  0.00    +0.155 HD
BRANCH  28  30
ATOM     30  C   LIG    1       26.079 -29.599  10.509  0.00  0.00    +0.220 A 
ATOM     31  N   LIG    1       24.936 -29.038  10.936  0.00  0.00    -0.214 NA
ATOM     32  C   LIG    1       24.664 -29.030  12.255  0.00  0.00    +0.077 A 
ATOM     33  C   LIG    1       25.532 -29.589  13.166  0.00  0.00    +0.048 A 
ATOM     34  C   LIG    1       26.681 -30.135  12.650  0.00  0.00    +0.116 A 
ATOM     35  N   LIG    1       26.982 -30.138  11.338  0.00  0.00    -0.223 NA
BRANCH  32  36
ATOM     36  C   LIG    1       23.405 -28.370  12.636  0.00  0.00    +0.019 A 
ATOM     37  C   LIG    1       22.166 -28.963  12.380  0.00  0.00    +0.120 A 
ATOM     38  N   LIG    1       20.963 -28.411  12.681  0.00  0.00    -0.263 NA
ATOM     39  C   LIG    1       20.981 -27.198  13.269  0.00  0.00    +0.111 A 
ATOM     40  C   LIG    1       22.144 -26.524  13.585  0.00  0.00    +0.020 A 
ATOM     41  C   LIG    1       23.362 -27.120  13.266  0.00  0.00    +0.013 A 
ENDBRANCH  32  36
ENDBRANCH  28  30
ENDBRANCH   3  28
TORSDOF 7
ENDMDL
MODEL 3
REMARK VINA RESULT:     -11.1      4.734      9.986
REMARK  Name = *****
REMARK                            x       y       z     vdW  Elec       q    Type
REMARK                         _______ _______ _______ _____ _____    ______ ____
ROOT
ATOM      1  C   LIG    1       25.057 -25.130   6.804  0.00  0.00    +0.039 A 
ATOM      2  C   LIG    1       25.817 -24.062   7.288  0.00  0.00    +0.036 A 
ATOM      3  C   LIG    1       25.311 -22.757   7.342  0.00  0.00    +0.037 A 
ATOM      4  C   LIG    1       23.986 -22.545   6.903  0.00  0.00    -0.029 A 
ATOM      5  C   LIG    1       23.349 -21.182   6.938  0.00  0.00    +0.045 C 
ATOM      6  C   LIG    1       23.223 -23.624   6.412  0.00  0.00    +0.006 A 
ATOM      7  C   LIG    1       23.757 -24.908   6.360  0.00  0.00    +0.013 A 
ENDROOT
BRANCH   1  10
ATOM      8  N   LIG    1       24.878 -27.532   7.168  0.00  0.00    -0.281 N 
ATOM      9  H   LIG    1       23.904 -27.342   7.384  0.00  0.00    +0.155 HD
ATOM     10  C   LIG    1       25.651 -26.479   6.698  0.00  0.00    +0.248 C 
ATOM     11  O   LIG    1       26.763 -26.567   6.169  0.00  0.00    -0.270 OA
BRANCH   8  16
ATOM     12  C   LIG    1       25.544 -31.047   6.121  0.00  0.00    +0.050 A 
ATOM     13  C   LIG    1       25.899 -31.602   7.355  0.00  0.00    +0.038 A 
ATOM     14  C   LIG    1       25.976 -30.802   8.511  0.00  0.00    +0.059 A 
ATOM     15  C   LIG    1       25.669 -29.436   8.420  0.00  0.00    +0.035 A 
ATOM     16  C   LIG    1       25.275 -28.882   7.201  0.00  0.00    +0.036 A 
ATOM     17  C   LIG    1       25.259 -29.683   6.056  0.00  0.00    +0.049 A 
BRANCH  12  22
ATOM     18  C   LIG    1       26.329 -33.229   1.671  0.00  0.00    +0.067 C 
ATOM     19  C   LIG    1       25.803 -32.802   2.984  0.00  0.00    +0.056 A 
ATOM     20  N   LIG    1       24.691 -33.397   3.513  0.00  0.00    -0.241 NA
ATOM     21  C   LIG    1       24.504 -32.810   4.673  0.00  0.00    +0.204 A 
ATOM     22  N   LIG    1       25.451 -31.849   4.947  0.00  0.00    -0.305 N 
ATOM     23  C   LIG    1       26.278 -31.832   3.841  0.00  0.00    +0.115 A 
ENDBRANCH  12  22
BRANCH  14  24
ATOM     24  C   LIG    1       26.357 -31.442   9.823  0.00  0.00    +0.417 C 
ATOM     25  F   LIG    1       27.549 -30.977  10.293  0.00  0.00    -0.166 F 
ATOM     26  F   LIG    1       26.504 -32.792   9.716  0.00  0.00    -0.166 F 
ATOM     27  F   LIG    1       25.464 -31.246  10.827  0.00  0.00    -0.166 F 
ENDBRANCH  14  24
ENDBRANCH   8  16
ENDBRANCH   1  10
BRANCH   3  28
ATOM     28  N   LIG    1       26.075 -21.701   7.873  0.00  0.00    -0.283 N 
ATOM     29  H   LIG    1       25.717 -21.255   8.704  0.00  0.00    +0.155 HD
BRANCH  28  30
ATOM     30  C   LIG    1       27.016 -20.869   7.266  0.00  0.00    +0.220 A 
ATOM     31  N   LIG    1       28.014 -20.337   7.989  0.00  0.00    -0.214 NA
ATOM     32  C   LIG    1       28.907 -19.533   7.380  0.00  0.00    +0.077 A 
ATOM     33  C   LIG    1       28.814 -19.253   6.035  0.00  0.00    +0.048 A 
ATOM     34  C   LIG    1       27.760 -19.829   5.370  0.00  0.00    +0.116 A 
ATOM     35  N   LIG    1       26.847 -20.622   5.961  0.00  0.00    -0.223 NA
BRANCH  32  36
ATOM     36  C   LIG    1       29.950 -18.972   8.253  0.00  0.00    +0.019 A 
ATOM     37  C   LIG    1       31.097 -19.701   8.579  0.00  0.00    +0.120 A 
ATOM     38  N   LIG    1       32.092 -19.264   9.391  0.00  0.00    -0.263 NA
ATOM     39  C   LIG    1       31.947 -18.031   9.919  0.00  0.00    +0.111 A 
ATOM     40  C   LIG    1       30.867 -17.213   9.656  0.00  0.00    +0.020 A 
ATOM     41  C   LIG    1       29.864 -17.692   8.814  0.00  0.00    +0.013 A 
ENDBRANCH  32  36
ENDBRANCH  28  30
ENDBRANCH   3  28
TORSDOF 7
ENDMDL
MODEL 4
REMARK VINA RESULT:     -11.0      2.582      3.878
REMARK  Name = *****
REMARK                            x       y       z     vdW  Elec       q    Type
REMARK                         _______ _______ _______ _____ _____    ______ ____
ROOT
ATOM      1  C   LIG    1       25.349 -26.792   6.471  0.00  0.00    +0.039 A 
ATOM      2  C   LIG    1       26.147 -27.374   7.461  0.00  0.00    +0.036 A 
ATOM      3  C   LIG    1       25.906 -28.667   7.941  0.00  0.00    +0.037 A 
ATOM      4  C   LIG    1       24.828 -29.388   7.381  0.00  0.00    -0.029 A 
ATOM      5  C   LIG    1       24.501 -30.789   7.822  0.00  0.00    +0.045 C 
ATOM      6  C   LIG    1       24.024 -28.798   6.387  0.00  0.00    +0.006 A 
ATOM      7  C   LIG    1       24.280 -27.506   5.937  0.00  0.00    +0.013 A 
ENDROOT
BRANCH   1  10
ATOM      8  N   LIG    1       25.878 -24.484   7.044  0.00  0.00    -0.281 N 
ATOM      9  H   LIG    1       26.075 -24.848   7.971  0.00  0.00    +0.155 HD
ATOM     10  C   LIG    1       25.594 -25.400   6.040  0.00  0.00    +0.248 C 
ATOM     11  O   LIG    1       25.564 -25.171   4.827  0.00  0.00    -0.270 OA
BRANCH   8  16
ATOM     12  C   LIG    1       25.466 -20.973   5.863  0.00  0.00    +0.050 A 
ATOM     13  C   LIG    1       26.658 -20.418   6.341  0.00  0.00    +0.038 A 
ATOM     14  C   LIG    1       27.559 -21.187   7.102  0.00  0.00    +0.059 A 
ATOM     15  C   LIG    1       27.261 -22.533   7.359  0.00  0.00    +0.035 A 
ATOM     16  C   LIG    1       26.095 -23.107   6.852  0.00  0.00    +0.036 A 
ATOM     17  C   LIG    1       25.189 -22.310   6.147  0.00  0.00    +0.049 A 
BRANCH  12  22
ATOM     18  C   LIG    1       21.440 -18.531   4.128  0.00  0.00    +0.067 C 
ATOM     19  C   LIG    1       22.774 -19.138   4.325  0.00  0.00    +0.056 A 
ATOM     20  N   LIG    1       23.769 -18.935   3.410  0.00  0.00    -0.241 NA
ATOM     21  C   LIG    1       24.809 -19.584   3.882  0.00  0.00    +0.204 A 
ATOM     22  N   LIG    1       24.553 -20.208   5.082  0.00  0.00    -0.305 N 
ATOM     23  C   LIG    1       23.227 -19.935   5.354  0.00  0.00    +0.115 A 
ENDBRANCH  12  22
BRANCH  14  24
ATOM     24  C   LIG    1       28.835 -20.549   7.593  0.00  0.00    +0.417 C 
ATOM     25  F   LIG    1       29.549 -21.387   8.397  0.00  0.00    -0.166 F 
ATOM     26  F   LIG    1       28.602 -19.433   8.337  0.00  0.00    -0.166 F 
ATOM     27  F   LIG    1       29.689 -20.167   6.609  0.00  0.00    -0.166 F 
ENDBRANCH  14  24
ENDBRANCH   8  16
ENDBRANCH   1  10
BRANCH   3  28
ATOM     28  N   LIG    1       26.746 -29.254   8.906  0.00  0.00    -0.283 N 
ATOM     29  H   LIG    1       27.162 -30.140   8.666  0.00  0.00    +0.155 HD
BRANCH  28  30
ATOM     30  C   LIG    1       26.806 -29.067  10.288  0.00  0.00    +0.220 A 
ATOM     31  N   LIG    1       25.749 -28.569  10.948  0.00  0.00    -0.214 NA
ATOM     32  C   LIG    1       25.834 -28.393  12.281  0.00  0.00    +0.077 A 
ATOM     33  C   LIG    1       26.980 -28.718  12.972  0.00  0.00    +0.048 A 
ATOM     34  C   LIG    1       28.018 -29.213  12.221  0.00  0.00    +0.116 A 
ATOM     35  N   LIG    1       27.961 -29.381  10.888  0.00  0.00    -0.223 NA
BRANCH  32  36
ATOM     36  C   LIG    1       24.640 -27.818  12.920  0.00  0.00    +0.019 A 
ATOM     37  C   LIG    1       23.401 -28.461  12.861  0.00  0.00    +0.120 A 
ATOM     38  N   LIG    1       22.252 -27.987  13.405  0.00  0.00    -0.263 NA
ATOM     39  C   LIG    1       22.327 -26.802  14.046  0.00  0.00    +0.111 A 
ATOM     40  C   LIG    1       23.498 -26.084  14.183  0.00  0.00    +0.020 A 
ATOM     41  C   LIG    1       24.661 -26.602  13.615  0.00  0.00    +0.013 A 
ENDBRANCH  32  36
ENDBRANCH  28  30
ENDBRANCH   3  28
TORSDOF 7
ENDMDL
MODEL 5
REMARK VINA RESULT:     -10.4      4.270      9.788
REMARK  Name = *****
REMARK                            x       y       z     vdW  Elec       q    Type
REMARK                         _______ _______ _______ _____ _____    ______ ____
ROOT
ATOM      1  C   LIG    1       24.974 -25.162   6.761  0.00  0.00    +0.039 A 
ATOM      2  C   LIG    1       25.779 -24.142   7.278  0.00  0.00    +0.036 A 
ATOM      3  C   LIG    1       25.369 -22.803   7.278  0.00  0.00    +0.037 A 
ATOM      4  C   LIG    1       24.096 -22.503   6.746  0.00  0.00    -0.029 A 
ATOM      5  C   LIG    1       23.563 -21.096   6.717  0.00  0.00    +0.045 C 
ATOM      6  C   LIG    1       23.289 -23.532   6.222  0.00  0.00    +0.006 A 
ATOM      7  C   LIG    1       23.726 -24.853   6.226  0.00  0.00    +0.013 A 
ENDROOT
BRANCH   1  10
ATOM      8  N   LIG    1       24.540 -27.548   6.984  0.00  0.00    -0.281 N 
ATOM      9  H   LIG    1       23.561 -27.282   7.015  0.00  0.00    +0.155 HD
ATOM     10  C   LIG    1       25.470 -26.553   6.717  0.00  0.00    +0.248 C 
ATOM     11  O   LIG    1       26.654 -26.720   6.410  0.00  0.00    -0.270 OA
BRANCH   8  16
ATOM     12  C   LIG    1       25.273 -30.956   8.303  0.00  0.00    +0.050 A 
ATOM     13  C   LIG    1       25.549 -31.623   7.105  0.00  0.00    +0.038 A 
ATOM     14  C   LIG    1       25.431 -30.963   5.867  0.00  0.00    +0.059 A 
ATOM     15  C   LIG    1       25.055 -29.612   5.846  0.00  0.00    +0.035 A 
ATOM     16  C   LIG    1       24.817 -28.927   7.038  0.00  0.00    +0.036 A 
ATOM     17  C   LIG    1       24.886 -29.617   8.251  0.00  0.00    +0.049 A 
BRANCH  12  22
ATOM     18  C   LIG    1       25.268 -32.104  13.188  0.00  0.00    +0.067 C 
ATOM     19  C   LIG    1       25.398 -32.106  11.716  0.00  0.00    +0.056 A 
ATOM     20  N   LIG    1       25.794 -33.237  11.056  0.00  0.00    -0.241 NA
ATOM     21  C   LIG    1       25.791 -32.913   9.784  0.00  0.00    +0.204 A 
ATOM     22  N   LIG    1       25.400 -31.611   9.562  0.00  0.00    -0.305 N 
ATOM     23  C   LIG    1       25.168 -31.086  10.818  0.00  0.00    +0.115 A 
ENDBRANCH  12  22
BRANCH  14  24
ATOM     24  C   LIG    1       25.744 -31.718   4.599  0.00  0.00    +0.417 C 
ATOM     25  F   LIG    1       25.748 -30.905   3.506  0.00  0.00    -0.166 F 
ATOM     26  F   LIG    1       24.825 -32.688   4.335  0.00  0.00    -0.166 F 
ATOM     27  F   LIG    1       26.951 -32.342   4.598  0.00  0.00    -0.166 F 
ENDBRANCH  14  24
ENDBRANCH   8  16
ENDBRANCH   1  10
BRANCH   3  28
ATOM     28  N   LIG    1       26.173 -21.796   7.843  0.00  0.00    -0.283 N 
ATOM     29  H   LIG    1       25.863 -21.405   8.719  0.00  0.00    +0.155 HD
BRANCH  28  30
ATOM     30  C   LIG    1       27.097 -20.934   7.249  0.00  0.00    +0.220 A 
ATOM     31  N   LIG    1       28.069 -20.374   7.986  0.00  0.00    -0.214 NA
ATOM     32  C   LIG    1       28.945 -19.542   7.390  0.00  0.00    +0.077 A 
ATOM     33  C   LIG    1       28.860 -19.261   6.044  0.00  0.00    +0.048 A 
ATOM     34  C   LIG    1       27.832 -19.867   5.365  0.00  0.00    +0.116 A 
ATOM     35  N   LIG    1       26.937 -20.688   5.942  0.00  0.00    -0.223 NA
BRANCH  32  36
ATOM     36  C   LIG    1       29.959 -18.953   8.277  0.00  0.00    +0.019 A 
ATOM     37  C   LIG    1       31.128 -19.644   8.609  0.00  0.00    +0.120 A 
ATOM     38  N   LIG    1       32.099 -19.179   9.433  0.00  0.00    -0.263 NA
ATOM     39  C   LIG    1       31.908 -17.956   9.969  0.00  0.00    +0.111 A 
ATOM     40  C   LIG    1       30.802 -17.174   9.702  0.00  0.00    +0.020 A 
ATOM     41  C   LIG    1       29.825 -17.680   8.847  0.00  0.00    +0.013 A 
ENDBRANCH  32  36
ENDBRANCH  28  30
ENDBRANCH   3  28
TORSDOF 7
ENDMDL
MODEL 6
REMARK VINA RESULT:     -10.4      2.612      3.545
REMARK  Name = *****
REMARK                            x       y       z     vdW  Elec       q    Type
REMARK                         _______ _______ _______ _____ _____    ______ ____
ROOT
ATOM      1  C   LIG    1       25.262 -27.340   6.372  0.00  0.00    +0.039 A 
ATOM      2  C   LIG    1       25.463 -27.941   7.617  0.00  0.00    +0.036 A 
ATOM      3  C   LIG    1       25.042 -29.249   7.885  0.00  0.00    +0.037 A 
ATOM      4  C   LIG    1       24.411 -29.965   6.844  0.00  0.00    -0.029 A 
ATOM      5  C   LIG    1       23.938 -31.381   7.031  0.00  0.00    +0.045 C 
ATOM      6  C   LIG    1       24.207 -29.355   5.591  0.00  0.00    +0.006 A 
ATOM      7  C   LIG    1       24.626 -28.049   5.357  0.00  0.00    +0.013 A 
ENDROOT
BRANCH   1  10
ATOM      8  N   LIG    1       24.754 -24.965   6.562  0.00  0.00    -0.281 N 
ATOM      9  H   LIG    1       23.974 -25.264   7.138  0.00  0.00    +0.155 HD
ATOM     10  C   LIG    1       25.660 -25.933   6.150  0.00  0.00    +0.248 C 
ATOM     11  O   LIG    1       26.773 -25.733   5.657  0.00  0.00    -0.270 OA
BRANCH   8  16
ATOM     12  C   LIG    1       26.208 -21.537   6.721  0.00  0.00    +0.050 A 
ATOM     13  C   LIG    1       25.128 -20.795   6.229  0.00  0.00    +0.038 A 
ATOM     14  C   LIG    1       23.953 -21.435   5.789  0.00  0.00    +0.059 A 
ATOM     15  C   LIG    1       23.863 -22.832   5.872  0.00  0.00    +0.035 A 
ATOM     16  C   LIG    1       24.919 -23.576   6.400  0.00  0.00    +0.036 A 
ATOM     17  C   LIG    1       26.096 -22.926   6.778  0.00  0.00    +0.049 A 
BRANCH  12  22
ATOM     18  C   LIG    1       30.861 -19.711   7.170  0.00  0.00    +0.067 C 
ATOM     19  C   LIG    1       29.449 -20.102   7.369  0.00  0.00    +0.056 A 
ATOM     20  N   LIG    1       28.772 -19.708   8.490  0.00  0.00    -0.241 NA
ATOM     21  C   LIG    1       27.562 -20.197   8.352  0.00  0.00    +0.204 A 
ATOM     22  N   LIG    1       27.397 -20.899   7.180  0.00  0.00    -0.305 N 
ATOM     23  C   LIG    1       28.628 -20.854   6.556  0.00  0.00    +0.115 A 
ENDBRANCH  12  22
BRANCH  14  24
ATOM     24  C   LIG    1       22.812 -20.596   5.270  0.00  0.00    +0.417 C 
ATOM     25  F   LIG    1       22.461 -19.612   6.145  0.00  0.00    -0.166 F 
ATOM     26  F   LIG    1       21.682 -21.329   5.065  0.00  0.00    -0.166 F 
ATOM     27  F   LIG    1       23.064 -19.968   4.092  0.00  0.00    -0.166 F 
ENDBRANCH  14  24
ENDBRANCH   8  16
ENDBRANCH   1  10
BRANCH   3  28
ATOM     28  N   LIG    1       25.292 -29.855   9.131  0.00  0.00    -0.283 N 
ATOM     29  H   LIG    1       25.850 -30.694   9.124  0.00  0.00    +0.155 HD
BRANCH  28  30
ATOM     30  C   LIG    1       24.594 -29.768  10.336  0.00  0.00    +0.220 A 
ATOM     31  N   LIG    1       23.324 -30.197  10.413  0.00  0.00    -0.214 NA
ATOM     32  C   LIG    1       22.669 -30.097  11.586  0.00  0.00    +0.077 A 
ATOM     33  C   LIG    1       23.281 -29.568  12.702  0.00  0.00    +0.048 A 
ATOM     34  C   LIG    1       24.576 -29.145  12.536  0.00  0.00    +0.116 A 
ATOM     35  N   LIG    1       25.244 -29.219  11.370  0.00  0.00    -0.223 NA
BRANCH  32  36
ATOM     36  C   LIG    1       21.275 -30.565  11.573  0.00  0.00    +0.019 A 
ATOM     37  C   LIG    1       20.506 -30.597  12.739  0.00  0.00    +0.120 A 
ATOM     38  N   LIG    1       19.223 -31.033  12.814  0.00  0.00    -0.263 NA
ATOM     39  C   LIG    1       18.663 -31.469  11.668  0.00  0.00    +0.111 A 
ATOM     40  C   LIG    1       19.318 -31.469  10.452  0.00  0.00    +0.020 A 
ATOM     41  C   LIG    1       20.634 -31.011  10.410  0.00  0.00    +0.013 A 
ENDBRANCH  32  36
ENDBRANCH  28  30
ENDBRANCH   3  28
TORSDOF 7
ENDMDL
MODEL 7
REMARK VINA RESULT:      -9.6      3.453      4.952
REMARK  Name = *****
REMARK                            x       y       z     vdW  Elec       q    Type
REMARK                         _______ _______ _______ _____ _____    ______ ____
ROOT
ATOM      1  C   LIG    1       25.469 -27.213   6.475  0.00  0.00    +0.039 A 
ATOM      2  C   LIG    1       25.657 -27.881   7.689  0.00  0.00    +0.036 A 
ATOM      3  C   LIG    1       25.115 -29.150   7.926  0.00  0.00    +0.037 A 
ATOM      4  C   LIG    1       24.375 -29.757   6.888  0.00  0.00    -0.029 A 
ATOM      5  C   LIG    1       23.768 -31.125   7.044  0.00  0.00    +0.045 C 
ATOM      6  C   LIG    1       24.184 -29.079   5.668  0.00  0.00    +0.006 A 
ATOM      7  C   LIG    1       24.725 -27.813   5.464  0.00  0.00    +0.013 A 
ENDROOT
BRANCH   1  10
ATOM      8  N   LIG    1       25.232 -24.811   6.810  0.00  0.00    -0.281 N 
ATOM      9  H   LIG    1       24.467 -25.058   7.429  0.00  0.00    +0.155 HD
ATOM     10  C   LIG    1       25.998 -25.845   6.288  0.00  0.00    +0.248 C 
ATOM     11  O   LIG    1       27.090 -25.735   5.722  0.00  0.00    -0.270 OA
BRANCH   8  16
ATOM     12  C   LIG    1       25.062 -21.226   5.806  0.00  0.00    +0.050 A 
ATOM     13  C   LIG    1       26.265 -20.766   6.353  0.00  0.00    +0.038 A 
ATOM     14  C   LIG    1       27.094 -21.625   7.100  0.00  0.00    +0.059 A 
ATOM     15  C   LIG    1       26.711 -22.963   7.275  0.00  0.00    +0.035 A 
ATOM     16  C   LIG    1       25.533 -23.441   6.699  0.00  0.00    +0.036 A 
ATOM     17  C   LIG    1       24.699 -22.557   6.008  0.00  0.00    +0.049 A 
BRANCH  12  22
ATOM     18  C   LIG    1       21.270 -18.412   4.107  0.00  0.00    +0.067 C 
ATOM     19  C   LIG    1       22.546 -19.135   4.296  0.00  0.00    +0.056 A 
ATOM     20  N   LIG    1       23.560 -19.001   3.389  0.00  0.00    -0.241 NA
ATOM     21  C   LIG    1       24.537 -19.746   3.851  0.00  0.00    +0.204 A 
ATOM     22  N   LIG    1       24.222 -20.369   5.038  0.00  0.00    -0.305 N 
ATOM     23  C   LIG    1       22.923 -19.988   5.311  0.00  0.00    +0.115 A 
ENDBRANCH  12  22
BRANCH  14  24
ATOM     24  C   LIG    1       28.385 -21.089   7.667  0.00  0.00    +0.417 C 
ATOM     25  F   LIG    1       29.376 -21.048   6.733  0.00  0.00    -0.166 F 
ATOM     26  F   LIG    1       28.864 -21.861   8.682  0.00  0.00    -0.166 F 
ATOM     27  F   LIG    1       28.300 -19.830   8.169  0.00  0.00    -0.166 F 
ENDBRANCH  14  24
ENDBRANCH   8  16
ENDBRANCH   1  10
BRANCH   3  28
ATOM     28  N   LIG    1       25.351 -29.828   9.137  0.00  0.00    -0.283 N 
ATOM     29  H   LIG    1       25.839 -30.708   9.077  0.00  0.00    +0.155 HD
BRANCH  28  30
ATOM     30  C   LIG    1       24.697 -29.739  10.367  0.00  0.00    +0.220 A 
ATOM     31  N   LIG    1       23.418 -30.131  10.481  0.00  0.00    -0.214 NA
ATOM     32  C   LIG    1       22.807 -30.029  11.677  0.00  0.00    +0.077 A 
ATOM     33  C   LIG    1       23.472 -29.537  12.779  0.00  0.00    +0.048 A 
ATOM     34  C   LIG    1       24.774 -29.151  12.576  0.00  0.00    +0.116 A 
ATOM     35  N   LIG    1       25.398 -29.227  11.386  0.00  0.00    -0.223 NA
BRANCH  32  36
ATOM     36  C   LIG    1       21.399 -30.454  11.705  0.00  0.00    +0.019 A 
ATOM     37  C   LIG    1       20.666 -30.469  12.894  0.00  0.00    +0.120 A 
ATOM     38  N   LIG    1       19.373 -30.866  13.006  0.00  0.00    -0.263 NA
ATOM     39  C   LIG    1       18.764 -31.278  11.876  0.00  0.00    +0.111 A 
ATOM     40  C   LIG    1       19.382 -31.291  10.641  0.00  0.00    +0.020 A 
ATOM     41  C   LIG    1       20.709 -30.873  10.560  0.00  0.00    +0.013 A 
ENDBRANCH  32  36
ENDBRANCH  28  30
ENDBRANCH   3  28
TORSDOF 7
ENDMDL
MODEL 8
REMARK VINA RESULT:      -9.5      4.170      9.993
REMARK  Name = *****
REMARK                            x       y       z     vdW  Elec       q    Type
REMARK                         _______ _______ _______ _____ _____    ______ ____
ROOT
ATOM      1  C   LIG    1       25.759 -24.564   6.266  0.00  0.00    +0.039 A 
ATOM      2  C   LIG    1       26.379 -23.512   6.946  0.00  0.00    +0.036 A 
ATOM      3  C   LIG    1       26.052 -22.174   6.697  0.00  0.00    +0.037 A 
ATOM      4  C   LIG    1       25.052 -21.907   5.736  0.00  0.00    -0.029 A 
ATOM      5  C   LIG    1       24.622 -20.502   5.412  0.00  0.00    +0.045 C 
ATOM      6  C   LIG    1       24.432 -22.969   5.049  0.00  0.00    +0.006 A 
ATOM      7  C   LIG    1       24.785 -24.289   5.309  0.00  0.00    +0.013 A 
ENDROOT
BRANCH   1  10
ATOM      8  N   LIG    1       25.557 -26.619   7.558  0.00  0.00    -0.281 N 
ATOM      9  H   LIG    1       24.742 -26.180   7.972  0.00  0.00    +0.155 HD
ATOM     10  C   LIG    1       26.181 -25.960   6.507  0.00  0.00    +0.248 C 
ATOM     11  O   LIG    1       27.020 -26.437   5.738  0.00  0.00    -0.270 OA
BRANCH   8  16
ATOM     12  C   LIG    1       25.624 -30.342   7.735  0.00  0.00    +0.050 A 
ATOM     13  C   LIG    1       26.286 -30.512   8.957  0.00  0.00    +0.038 A 
ATOM     14  C   LIG    1       26.760 -29.402   9.682  0.00  0.00    +0.059 A 
ATOM     15  C   LIG    1       26.540 -28.111   9.178  0.00  0.00    +0.035 A 
ATOM     16  C   LIG    1       25.846 -27.930   7.981  0.00  0.00    +0.036 A 
ATOM     17  C   LIG    1       25.434 -29.048   7.251  0.00  0.00    +0.049 A 
BRANCH  12  22
ATOM     18  C   LIG    1       22.854 -33.459   4.944  0.00  0.00    +0.067 C 
ATOM     19  C   LIG    1       23.901 -32.824   5.772  0.00  0.00    +0.056 A 
ATOM     20  N   LIG    1       25.070 -33.481   6.036  0.00  0.00    -0.241 NA
ATOM     21  C   LIG    1       25.776 -32.650   6.768  0.00  0.00    +0.204 A 
ATOM     22  N   LIG    1       25.129 -31.457   6.999  0.00  0.00    -0.305 N 
ATOM     23  C   LIG    1       23.906 -31.582   6.371  0.00  0.00    +0.115 A 
ENDBRANCH  12  22
BRANCH  14  24
ATOM     24  C   LIG    1       27.463 -29.631  10.997  0.00  0.00    +0.417 C 
ATOM     25  F   LIG    1       26.664 -30.265  11.900  0.00  0.00    -0.166 F 
ATOM     26  F   LIG    1       27.840 -28.465  11.591  0.00  0.00    -0.166 F 
ATOM     27  F   LIG    1       28.590 -30.383  10.909  0.00  0.00    -0.166 F 
ENDBRANCH  14  24
ENDBRANCH   8  16
ENDBRANCH   1  10
BRANCH   3  28
ATOM     28  N   LIG    1       26.655 -21.129   7.424  0.00  0.00    -0.283 N 
ATOM     29  H   LIG    1       26.090 -20.683   8.129  0.00  0.00    +0.155 HD
BRANCH  28  30
ATOM     30  C   LIG    1       27.735 -20.307   7.100  0.00  0.00    +0.220 A 
ATOM     31  N   LIG    1       28.471 -19.745   8.072  0.00  0.00    -0.214 NA
ATOM     32  C   LIG    1       29.504 -18.950   7.733  0.00  0.00    +0.077 A 
ATOM     33  C   LIG    1       29.818 -18.710   6.413  0.00  0.00    +0.048 A 
ATOM     34  C   LIG    1       29.010 -19.315   5.482  0.00  0.00    +0.116 A 
ATOM     35  N   LIG    1       27.963 -20.098   5.797  0.00  0.00    -0.223 NA
BRANCH  32  36
ATOM     36  C   LIG    1       30.239 -18.356   8.860  0.00  0.00    +0.019 A 
ATOM     37  C   LIG    1       29.621 -18.120  10.090  0.00  0.00    +0.120 A 
ATOM     38  N   LIG    1       30.222 -17.558  11.169  0.00  0.00    -0.263 NA
ATOM     39  C   LIG    1       31.516 -17.203  11.026  0.00  0.00    +0.111 A 
ATOM     40  C   LIG    1       32.235 -17.402   9.865  0.00  0.00    +0.020 A 
ATOM     41  C   LIG    1       31.588 -17.986   8.777  0.00  0.00    +0.013 A 
ENDBRANCH  32  36
ENDBRANCH  28  30
ENDBRANCH   3  28
TORSDOF 7
ENDMDL
MODEL 9
REMARK VINA RESULT:      -9.4      3.311      9.071
REMARK  Name = *****
REMARK                            x       y       z     vdW  Elec       q    Type
REMARK                         _______ _______ _______ _____ _____    ______ ____
ROOT
ATOM      1  C   LIG    1       24.934 -23.147   5.994  0.00  0.00    +0.039 A 
ATOM      2  C   LIG    1       25.756 -22.295   6.737  0.00  0.00    +0.036 A 
ATOM      3  C   LIG    1       26.090 -21.011   6.289  0.00  0.00    +0.037 A 
ATOM      4  C   LIG    1       25.556 -20.584   5.054  0.00  0.00    -0.029 A 
ATOM      5  C   LIG    1       25.845 -19.216   4.498  0.00  0.00    +0.045 C 
ATOM      6  C   LIG    1       24.731 -21.446   4.306  0.00  0.00    +0.006 A 
ATOM      7  C   LIG    1       24.425 -22.722   4.771  0.00  0.00    +0.013 A 
ENDROOT
BRANCH   1  10
ATOM      8  N   LIG    1       25.764 -25.350   6.621  0.00  0.00    -0.281 N 
ATOM      9  H   LIG    1       26.684 -24.925   6.574  0.00  0.00    +0.155 HD
ATOM     10  C   LIG    1       24.662 -24.520   6.468  0.00  0.00    +0.248 C 
ATOM     11  O   LIG    1       23.489 -24.806   6.726  0.00  0.00    -0.270 OA
BRANCH   8  16
ATOM     12  C   LIG    1       26.225 -28.470   8.607  0.00  0.00    +0.050 A 
ATOM     13  C   LIG    1       25.772 -29.415   7.680  0.00  0.00    +0.038 A 
ATOM     14  C   LIG    1       25.260 -29.012   6.431  0.00  0.00    +0.059 A 
ATOM     15  C   LIG    1       25.230 -27.647   6.112  0.00  0.00    +0.035 A 
ATOM     16  C   LIG    1       25.717 -26.701   7.015  0.00  0.00    +0.036 A 
ATOM     17  C   LIG    1       26.169 -27.118   8.269  0.00  0.00    +0.049 A 
BRANCH  12  22
ATOM     18  C   LIG    1       27.669 -28.665  13.409  0.00  0.00    +0.067 C 
ATOM     19  C   LIG    1       27.392 -28.941  11.984  0.00  0.00    +0.056 A 
ATOM     20  N   LIG    1       27.704 -30.156  11.440  0.00  0.00    -0.241 NA
ATOM     21  C   LIG    1       27.320 -30.081  10.186  0.00  0.00    +0.204 A 
ATOM     22  N   LIG    1       26.756 -28.866   9.869  0.00  0.00    -0.305 N 
ATOM     23  C   LIG    1       26.825 -28.123  11.031  0.00  0.00    +0.115 A 
ENDBRANCH  12  22
BRANCH  14  24
ATOM     24  C   LIG    1       24.787 -30.064   5.459  0.00  0.00    +0.417 C 
ATOM     25  F   LIG    1       24.296 -29.517   4.311  0.00  0.00    -0.166 F 
ATOM     26  F   LIG    1       23.777 -30.823   5.968  0.00  0.00    -0.166 F 
ATOM     27  F   LIG    1       25.747 -30.942   5.067  0.00  0.00    -0.166 F 
ENDBRANCH  14  24
ENDBRANCH   8  16
ENDBRANCH   1  10
BRANCH   3  28
ATOM     28  N   LIG    1       26.883 -20.150   7.071  0.00  0.00    -0.283 N 
ATOM     29  H   LIG    1       26.652 -19.169   7.042  0.00  0.00    +0.155 HD
BRANCH  28  30
ATOM     30  C   LIG    1       28.178 -20.311   7.566  0.00  0.00    +0.220 A 
ATOM     31  N   LIG    1       28.825 -19.271   8.116  0.00  0.00    -0.214 NA
ATOM     32  C   LIG    1       30.077 -19.451   8.579  0.00  0.00    +0.077 A 
ATOM     33  C   LIG    1       30.697 -20.679   8.503  0.00  0.00    +0.048 A 
ATOM     34  C   LIG    1       29.971 -21.687   7.919  0.00  0.00    +0.116 A 
ATOM     35  N   LIG    1       28.726 -21.526   7.433  0.00  0.00    -0.223 NA
BRANCH  32  36
ATOM     36  C   LIG    1       30.720 -18.253   9.140  0.00  0.00    +0.019 A 
ATOM     37  C   LIG    1       31.783 -17.624   8.488  0.00  0.00    +0.120 A 
ATOM     38  N   LIG    1       32.441 -16.530   8.949  0.00  0.00    -0.263 NA
ATOM     39  C   LIG    1       32.028 -16.025  10.129  0.00  0.00    +0.111 A 
ATOM     40  C   LIG    1       30.978 -16.551  10.855  0.00  0.00    +0.020 A 
ATOM     41  C   LIG    1       30.322 -17.673  10.351  0.00  0.00    +0.013 A 
ENDBRANCH  32  36
ENDBRANCH  28  30
ENDBRANCH   3  28
TORSDOF 7
ENDMDL
