MODEL 1
REMARK VINA RESULT:      25.3      0.000      0.000
REMARK  Name = *****
REMARK                            x       y       z     vdW  Elec       q    Type
REMARK                         _______ _______ _______ _____ _____    ______ ____
ROOT
ATOM      1  C   LIG    1       26.154 -19.327   3.473  0.00  0.00    +0.240 C 
ENDROOT
BRANCH   1   2
ATOM      2  C   LIG    1       27.034 -20.635   3.401  0.00  0.00    +0.220 C 
BRANCH   2   3
ATOM      3  O   LIG    1       27.335 -21.027   4.735  0.00  0.00    -0.283 OA
BRANCH   3   4
ATOM      4  P   LIG    1       27.925 -20.337   6.028  0.00  0.00    +0.475 P 
ATOM      5  O   LIG    1       26.996 -19.497   6.829  0.00  0.00    -0.227 OA
BRANCH   4   6
ATOM      6  O   LIG    1       28.249 -21.545   7.018  0.00  0.00    -0.302 OA
ATOM      7  H   LIG    1       27.916 -21.149   7.851  0.00  0.00    +0.222 HD
ENDBRANCH   4   6
BRANCH   4   8
ATOM      8  O   LIG    1       29.382 -19.682   5.725  0.00  0.00    -0.284 OA
BRANCH   8   9
ATOM      9  C   LIG    1       29.448 -18.572   4.831  0.00  0.00    +0.205 C 
BRANCH   9  10
ATOM     10  C   LIG    1       29.273 -17.229   5.551  0.00  0.00    +0.166 C 
BRANCH  10  11
ATOM     11  O   LIG    1       28.414 -17.399   6.677  0.00  0.00    -0.387 OA
ATOM     12  H   LIG    1       28.992 -17.263   7.450  0.00  0.00    +0.210 HD
ENDBRANCH  10  11
BRANCH  10  13
ATOM     13  C   LIG    1       28.869 -16.033   4.675  0.00  0.00    +0.189 C 
BRANCH  13  14
ATOM     14  O   LIG    1       28.199 -16.440   3.488  0.00  0.00    -0.392 OA
ATOM     15  H   LIG    1       27.968 -17.377   3.605  0.00  0.00    +0.209 HD
ENDBRANCH  13  14
ENDBRANCH  10  13
ENDBRANCH   9  10
ENDBRANCH   8   9
ENDBRANCH   4   8
ENDBRANCH   3   4
ENDBRANCH   2   3
ENDBRANCH   1   2
BRANCH   1  16
ATOM     16  O   LIG    1       24.726 -19.879   3.054  0.00  0.00    -0.456 OA
BRANCH  16  17
ATOM     17  C   LIG    1       23.540 -19.115   3.082  0.00  0.00    +0.307 C 
ATOM     18  O   LIG    1       22.512 -19.284   2.343  0.00  0.00    -0.251 OA
BRANCH  17  19
ATOM     19  C   LIG    1       23.333 -18.076   4.184  0.00  0.00    +0.120 C 
BRANCH  19  20
ATOM     20  C   LIG    1       24.156 -18.351   5.413  0.00  0.00    +0.011 C 
BRANCH  20  21
ATOM     21  C   LIG    1       23.393 -19.303   6.335  0.00  0.00    +0.000 C 
BRANCH  21  22
ATOM     22  C   LIG    1       22.179 -19.988   5.751  0.00  0.00    +0.000 C 
BRANCH  22  23
ATOM     23  C   LIG    1       22.516 -20.905   4.572  0.00  0.00    +0.000 C 
BRANCH  23  24
ATOM     24  C   LIG    1       21.300 -21.554   3.948  0.00  0.00    +0.004 C 
BRANCH  24  25
ATOM     25  C   LIG    1       20.484 -20.718   2.982  0.00  0.00    +0.027 C 
BRANCH  25  27
ATOM     26  C   LIG    1       19.899 -18.607   4.357  0.00  0.00    -0.031 C 
ATOM     27  C   LIG    1       19.624 -19.807   3.689  0.00  0.00    -0.031 C 
BRANCH  26  28
ATOM     28  C   LIG    1       20.842 -17.623   3.828  0.00  0.00    +0.027 C 
BRANCH  28  29
ATOM     29  C   LIG    1       20.291 -16.610   3.191  0.00  0.00    +0.004 C 
BRANCH  29  30
ATOM     30  C   LIG    1       21.067 -15.667   2.327  0.00  0.00    +0.000 C 
BRANCH  30  31
ATOM     31  C   LIG    1       22.185 -14.927   3.061  0.00  0.00    +0.000 C 
BRANCH  31  32
ATOM     32  C   LIG    1       23.375 -14.375   2.239  0.00  0.00    -0.000 C 
BRANCH  32  33
ATOM     33  C   LIG    1       23.692 -12.871   2.263  0.00  0.00    -0.000 C 
BRANCH  33  35
ATOM     34  C   LIG    1       26.030 -13.892   1.821  0.00  0.00    +0.004 C 
ATOM     35  C   LIG    1       25.129 -12.786   2.072  0.00  0.00    -0.003 C 
ENDBRANCH  33  35
ENDBRANCH  32  33
ENDBRANCH  31  32
ENDBRANCH  30  31
ENDBRANCH  29  30
ENDBRANCH  28  29
ENDBRANCH  26  28
ENDBRANCH  25  27
ENDBRANCH  24  25
ENDBRANCH  23  24
ENDBRANCH  22  23
ENDBRANCH  21  22
ENDBRANCH  20  21
ENDBRANCH  19  20
ENDBRANCH  17  19
ENDBRANCH  16  17
ENDBRANCH   1  16
BRANCH   1  36
ATOM     36  C   LIG    1       26.830 -17.711   3.040  0.00  0.00    +0.279 C 
BRANCH  36  37
ATOM     37  O   LIG    1       26.145 -16.461   3.049  0.00  0.00    -0.461 OA
BRANCH  37  38
ATOM     38  C   LIG    1       25.078 -16.366   3.942  0.00  0.00    +0.307 C 
ATOM     39  O   LIG    1       24.031 -16.761   3.600  0.00  0.00    -0.251 OA
BRANCH  38  40
ATOM     40  C   LIG    1       25.370 -15.505   5.276  0.00  0.00    +0.120 C 
BRANCH  40  41
ATOM     41  C   LIG    1       26.765 -14.864   5.683  0.00  0.00    +0.011 C 
BRANCH  41  42
ATOM     42  C   LIG    1       27.095 -13.507   6.266  0.00  0.00    +0.000 C 
BRANCH  42  43
ATOM     43  C   LIG    1       28.624 -13.098   6.229  0.00  0.00    +0.000 C 
BRANCH  43  44
ATOM     44  C   LIG    1       29.216 -13.191   4.800  0.00  0.00    -0.000 C 
BRANCH  44  45
ATOM     45  C   LIG    1       29.035 -11.919   3.879  0.00  0.00    -0.000 C 
BRANCH  45  46
ATOM     46  C   LIG    1       27.942 -11.887   2.680  0.00  0.00    -0.000 C 
BRANCH  46  47
ATOM     47  C   LIG    1       26.378 -11.478   2.958  0.00  0.00    -0.000 C 
BRANCH  47  48
ATOM     48  C   LIG    1       25.768 -11.555   4.463  0.00  0.00    -0.000 C 
BRANCH  48  49
ATOM     49  C   LIG    1       24.526 -12.399   5.006  0.00  0.00    -0.000 C 
BRANCH  49  50
ATOM     50  C   LIG    1       23.396 -11.698   5.743  0.00  0.00    -0.000 C 
BRANCH  50  51
ATOM     51  C   LIG    1       22.576 -12.499   6.759  0.00  0.00    -0.000 C 
BRANCH  51  52
ATOM     52  C   LIG    1       21.275 -13.176   6.295  0.00  0.00    -0.000 C 
BRANCH  52  53
ATOM     53  C   LIG    1       21.077 -14.554   7.057  0.00  0.00    -0.003 C 
ATOM     54  C   LIG    1       22.237 -15.606   7.059  0.00  0.00    +0.004 C 
ENDBRANCH  52  53
ENDBRANCH  51  52
ENDBRANCH  50  51
ENDBRANCH  49  50
ENDBRANCH  48  49
ENDBRANCH  47  48
ENDBRANCH  46  47
ENDBRANCH  45  46
ENDBRANCH  44  45
ENDBRANCH  43  44
ENDBRANCH  42  43
ENDBRANCH  41  42
ENDBRANCH  40  41
ENDBRANCH  38  40
ENDBRANCH  37  38
ENDBRANCH  36  37
ENDBRANCH   1  36
TORSDOF 44
ENDMDL
MODEL 2
REMARK VINA RESULT:      25.7      2.662      6.338
REMARK  Name = *****
REMARK                            x       y       z     vdW  Elec       q    Type
REMARK                         _______ _______ _______ _____ _____    ______ ____
ROOT
ATOM      1  C   LIG    1       22.406 -15.586   3.332  0.00  0.00    +0.240 C 
ENDROOT
BRANCH   1   2
ATOM      2  C   LIG    1       20.858 -15.724   3.610  0.00  0.00    +0.220 C 
BRANCH   2   3
ATOM      3  O   LIG    1       20.354 -16.737   2.747  0.00  0.00    -0.283 OA
BRANCH   3   4
ATOM      4  P   LIG    1       20.381 -18.315   2.692  0.00  0.00    +0.475 P 
ATOM      5  O   LIG    1       19.355 -18.978   1.845  0.00  0.00    -0.227 OA
BRANCH   4   6
ATOM      6  O   LIG    1       21.742 -18.669   1.939  0.00  0.00    -0.302 OA
ATOM      7  H   LIG    1       21.816 -19.611   2.201  0.00  0.00    +0.222 HD
ENDBRANCH   4   6
BRANCH   4   8
ATOM      8  O   LIG    1       20.582 -18.947   4.176  0.00  0.00    -0.284 OA
BRANCH   8   9
ATOM      9  C   LIG    1       19.918 -20.172   4.482  0.00  0.00    +0.205 C 
BRANCH   9  10
ATOM     10  C   LIG    1       20.867 -21.376   4.449  0.00  0.00    +0.166 C 
BRANCH  10  11
ATOM     11  O   LIG    1       21.444 -21.565   5.741  0.00  0.00    -0.387 OA
ATOM     12  H   LIG    1       20.689 -21.523   6.356  0.00  0.00    +0.210 HD
ENDBRANCH  10  11
BRANCH  10  13
ATOM     13  C   LIG    1       21.916 -21.389   3.326  0.00  0.00    +0.189 C 
BRANCH  13  14
ATOM     14  O   LIG    1       23.244 -21.437   3.835  0.00  0.00    -0.392 OA
ATOM     15  H   LIG    1       23.807 -21.761   3.111  0.00  0.00    +0.209 HD
ENDBRANCH  13  14
ENDBRANCH  10  13
ENDBRANCH   9  10
ENDBRANCH   8   9
ENDBRANCH   4   8
ENDBRANCH   3   4
ENDBRANCH   2   3
ENDBRANCH   1   2
BRANCH   1  16
ATOM     16  O   LIG    1       23.004 -15.672   4.800  0.00  0.00    -0.456 OA
BRANCH  16  17
ATOM     17  C   LIG    1       22.580 -16.599   5.776  0.00  0.00    +0.307 C 
ATOM     18  O   LIG    1       22.701 -16.475   7.041  0.00  0.00    -0.251 OA
BRANCH  17  19
ATOM     19  C   LIG    1       21.747 -17.811   5.360  0.00  0.00    +0.120 C 
BRANCH  19  20
ATOM     20  C   LIG    1       22.586 -19.013   5.022  0.00  0.00    +0.011 C 
BRANCH  20  21
ATOM     21  C   LIG    1       23.497 -19.348   6.203  0.00  0.00    +0.000 C 
BRANCH  21  22
ATOM     22  C   LIG    1       24.540 -20.417   5.975  0.00  0.00    +0.000 C 
BRANCH  22  23
ATOM     23  C   LIG    1       25.626 -20.437   7.055  0.00  0.00    +0.000 C 
BRANCH  23  24
ATOM     24  C   LIG    1       26.618 -21.567   6.890  0.00  0.00    +0.004 C 
BRANCH  24  25
ATOM     25  C   LIG    1       28.076 -21.191   6.710  0.00  0.00    +0.027 C 
BRANCH  25  27
ATOM     26  C   LIG    1       28.669 -19.890   4.556  0.00  0.00    -0.031 C 
ATOM     27  C   LIG    1       28.399 -21.033   5.317  0.00  0.00    -0.031 C 
BRANCH  26  28
ATOM     28  C   LIG    1       29.473 -18.783   5.075  0.00  0.00    +0.027 C 
BRANCH  28  29
ATOM     29  C   LIG    1       28.809 -17.907   5.801  0.00  0.00    +0.004 C 
BRANCH  29  30
ATOM     30  C   LIG    1       27.320 -17.926   5.947  0.00  0.00    +0.000 C 
BRANCH  30  31
ATOM     31  C   LIG    1       26.567 -18.088   4.628  0.00  0.00    +0.000 C 
BRANCH  31  32
ATOM     32  C   LIG    1       26.476 -19.497   3.992  0.00  0.00    -0.000 C 
BRANCH  32  33
ATOM     33  C   LIG    1       26.322 -19.642   2.469  0.00  0.00    -0.000 C 
BRANCH  33  35
ATOM     34  C   LIG    1       23.764 -19.235   2.491  0.00  0.00    +0.004 C 
ATOM     35  C   LIG    1       24.942 -20.048   2.268  0.00  0.00    -0.003 C 
ENDBRANCH  33  35
ENDBRANCH  32  33
ENDBRANCH  31  32
ENDBRANCH  30  31
ENDBRANCH  29  30
ENDBRANCH  28  29
ENDBRANCH  26  28
ENDBRANCH  25  27
ENDBRANCH  24  25
ENDBRANCH  23  24
ENDBRANCH  22  23
ENDBRANCH  21  22
ENDBRANCH  20  21
ENDBRANCH  19  20
ENDBRANCH  17  19
ENDBRANCH  16  17
ENDBRANCH   1  16
BRANCH   1  36
ATOM     36  C   LIG    1       23.033 -14.550   1.995  0.00  0.00    +0.279 C 
BRANCH  36  37
ATOM     37  O   LIG    1       24.033 -13.537   2.088  0.00  0.00    -0.461 OA
BRANCH  37  38
ATOM     38  C   LIG    1       23.600 -12.308   2.584  0.00  0.00    +0.307 C 
ATOM     39  O   LIG    1       23.374 -11.451   1.821  0.00  0.00    -0.251 OA
BRANCH  38  40
ATOM     40  C   LIG    1       23.678 -12.146   4.189  0.00  0.00    +0.120 C 
BRANCH  40  41
ATOM     41  C   LIG    1       24.965 -11.733   5.021  0.00  0.00    +0.011 C 
BRANCH  41  42
ATOM     42  C   LIG    1       25.786 -12.516   6.023  0.00  0.00    +0.000 C 
BRANCH  42  43
ATOM     43  C   LIG    1       27.357 -12.420   5.846  0.00  0.00    +0.000 C 
BRANCH  43  44
ATOM     44  C   LIG    1       27.756 -11.447   4.709  0.00  0.00    -0.000 C 
BRANCH  44  45
ATOM     45  C   LIG    1       28.352 -12.103   3.399  0.00  0.00    -0.000 C 
BRANCH  45  46
ATOM     46  C   LIG    1       27.467 -12.256   2.048  0.00  0.00    -0.000 C 
BRANCH  46  47
ATOM     47  C   LIG    1       26.216 -13.313   1.959  0.00  0.00    -0.000 C 
BRANCH  47  48
ATOM     48  C   LIG    1       26.501 -14.913   1.895  0.00  0.00    -0.000 C 
BRANCH  48  49
ATOM     49  C   LIG    1       26.094 -16.052   2.936  0.00  0.00    -0.000 C 
BRANCH  49  50
ATOM     50  C   LIG    1       26.446 -15.899   4.407  0.00  0.00    -0.000 C 
BRANCH  50  51
ATOM     51  C   LIG    1       27.482 -14.843   4.806  0.00  0.00    -0.000 C 
BRANCH  51  52
ATOM     52  C   LIG    1       27.753 -14.597   6.299  0.00  0.00    -0.000 C 
BRANCH  52  53
ATOM     53  C   LIG    1       28.976 -13.600   6.473  0.00  0.00    -0.003 C 
ATOM     54  C   LIG    1       29.170 -12.433   5.447  0.00  0.00    +0.004 C 
ENDBRANCH  52  53
ENDBRANCH  51  52
ENDBRANCH  50  51
ENDBRANCH  49  50
ENDBRANCH  48  49
ENDBRANCH  47  48
ENDBRANCH  46  47
ENDBRANCH  45  46
ENDBRANCH  44  45
ENDBRANCH  43  44
ENDBRANCH  42  43
ENDBRANCH  41  42
ENDBRANCH  40  41
ENDBRANCH  38  40
ENDBRANCH  37  38
ENDBRANCH  36  37
ENDBRANCH   1  36
TORSDOF 44
ENDMDL
MODEL 3
REMARK VINA RESULT:      28.3      1.566      3.830
REMARK  Name = *****
REMARK                            x       y       z     vdW  Elec       q    Type
REMARK                         _______ _______ _______ _____ _____    ______ ____
ROOT
ATOM      1  C   LIG    1       26.708 -17.601   3.301  0.00  0.00    +0.240 C 
ENDROOT
BRANCH   1   2
ATOM      2  C   LIG    1       27.987 -18.044   4.114  0.00  0.00    +0.220 C 
BRANCH   2   3
ATOM      3  O   LIG    1       27.553 -18.892   5.171  0.00  0.00    -0.283 OA
BRANCH   3   4
ATOM      4  P   LIG    1       27.828 -20.375   5.637  0.00  0.00    +0.475 P 
ATOM      5  O   LIG    1       28.826 -21.155   4.857  0.00  0.00    -0.227 OA
BRANCH   4   6
ATOM      6  O   LIG    1       28.532 -20.229   7.061  0.00  0.00    -0.302 OA
ATOM      7  H   LIG    1       27.729 -20.150   7.617  0.00  0.00    +0.222 HD
ENDBRANCH   4   6
BRANCH   4   8
ATOM      8  O   LIG    1       26.437 -21.149   5.969  0.00  0.00    -0.284 OA
BRANCH   8   9
ATOM      9  C   LIG    1       25.615 -20.637   7.016  0.00  0.00    +0.205 C 
BRANCH   9  10
ATOM     10  C   LIG    1       24.131 -20.961   6.808  0.00  0.00    +0.166 C 
BRANCH  10  11
ATOM     11  O   LIG    1       23.950 -21.569   5.529  0.00  0.00    -0.387 OA
ATOM     12  H   LIG    1       24.249 -22.489   5.650  0.00  0.00    +0.210 HD
ENDBRANCH  10  11
BRANCH  10  13
ATOM     13  C   LIG    1       23.140 -19.815   7.062  0.00  0.00    +0.189 C 
BRANCH  13  14
ATOM     14  O   LIG    1       23.585 -18.586   6.499  0.00  0.00    -0.392 OA
ATOM     15  H   LIG    1       23.031 -18.421   5.717  0.00  0.00    +0.209 HD
ENDBRANCH  13  14
ENDBRANCH  10  13
ENDBRANCH   9  10
ENDBRANCH   8   9
ENDBRANCH   4   8
ENDBRANCH   3   4
ENDBRANCH   2   3
ENDBRANCH   1   2
BRANCH   1  16
ATOM     16  O   LIG    1       26.384 -18.916   2.474  0.00  0.00    -0.456 OA
BRANCH  16  17
ATOM     17  C   LIG    1       25.231 -19.707   2.662  0.00  0.00    +0.307 C 
ATOM     18  O   LIG    1       24.714 -20.508   1.812  0.00  0.00    -0.251 OA
BRANCH  17  19
ATOM     19  C   LIG    1       24.581 -19.784   4.044  0.00  0.00    +0.120 C 
BRANCH  19  20
ATOM     20  C   LIG    1       23.838 -21.072   4.273  0.00  0.00    +0.011 C 
BRANCH  20  21
ATOM     21  C   LIG    1       22.334 -20.797   4.293  0.00  0.00    +0.000 C 
BRANCH  21  22
ATOM     22  C   LIG    1       21.702 -20.381   2.985  0.00  0.00    +0.000 C 
BRANCH  22  23
ATOM     23  C   LIG    1       22.406 -19.191   2.328  0.00  0.00    +0.000 C 
BRANCH  23  24
ATOM     24  C   LIG    1       21.763 -17.859   2.649  0.00  0.00    +0.004 C 
BRANCH  24  25
ATOM     25  C   LIG    1       20.297 -17.694   2.302  0.00  0.00    +0.027 C 
BRANCH  25  27
ATOM     26  C   LIG    1       19.350 -17.750   4.708  0.00  0.00    -0.031 C 
ATOM     27  C   LIG    1       19.458 -18.161   3.374  0.00  0.00    -0.031 C 
BRANCH  26  28
ATOM     28  C   LIG    1       19.400 -16.339   5.092  0.00  0.00    +0.027 C 
BRANCH  28  29
ATOM     29  C   LIG    1       19.780 -16.114   6.334  0.00  0.00    +0.004 C 
BRANCH  29  30
ATOM     30  C   LIG    1       20.182 -14.762   6.833  0.00  0.00    +0.000 C 
BRANCH  30  31
ATOM     31  C   LIG    1       21.621 -14.375   6.494  0.00  0.00    +0.000 C 
BRANCH  31  32
ATOM     32  C   LIG    1       22.483 -15.366   5.674  0.00  0.00    -0.000 C 
BRANCH  32  33
ATOM     33  C   LIG    1       22.100 -16.854   5.621  0.00  0.00    -0.000 C 
BRANCH  33  35
ATOM     34  C   LIG    1       24.257 -16.946   4.191  0.00  0.00    +0.004 C 
ATOM     35  C   LIG    1       22.950 -17.424   4.591  0.00  0.00    -0.003 C 
ENDBRANCH  33  35
ENDBRANCH  32  33
ENDBRANCH  31  32
ENDBRANCH  30  31
ENDBRANCH  29  30
ENDBRANCH  28  29
ENDBRANCH  26  28
ENDBRANCH  25  27
ENDBRANCH  24  25
ENDBRANCH  23  24
ENDBRANCH  22  23
ENDBRANCH  21  22
ENDBRANCH  20  21
ENDBRANCH  19  20
ENDBRANCH  17  19
ENDBRANCH  16  17
ENDBRANCH   1  16
BRANCH   1  36
ATOM     36  C   LIG    1       26.507 -15.907   2.713  0.00  0.00    +0.279 C 
BRANCH  36  37
ATOM     37  O   LIG    1       26.916 -14.713   3.374  0.00  0.00    -0.461 OA
BRANCH  37  38
ATOM     38  C   LIG    1       26.839 -13.547   2.613  0.00  0.00    +0.307 C 
ATOM     39  O   LIG    1       25.990 -13.463   1.812  0.00  0.00    -0.251 OA
BRANCH  38  40
ATOM     40  C   LIG    1       28.084 -12.532   2.778  0.00  0.00    +0.120 C 
BRANCH  40  41
ATOM     41  C   LIG    1       29.357 -12.762   3.698  0.00  0.00    +0.011 C 
BRANCH  41  42
ATOM     42  C   LIG    1       29.465 -13.247   5.129  0.00  0.00    +0.000 C 
BRANCH  42  43
ATOM     43  C   LIG    1       28.134 -13.169   5.982  0.00  0.00    +0.000 C 
BRANCH  43  44
ATOM     44  C   LIG    1       27.589 -11.722   6.079  0.00  0.00    -0.000 C 
BRANCH  44  45
ATOM     45  C   LIG    1       26.195 -11.447   5.385  0.00  0.00    -0.000 C 
BRANCH  45  46
ATOM     46  C   LIG    1       24.819 -12.085   5.961  0.00  0.00    -0.000 C 
BRANCH  46  47
ATOM     47  C   LIG    1       24.000 -13.243   5.138  0.00  0.00    -0.000 C 
BRANCH  47  48
ATOM     48  C   LIG    1       24.744 -14.095   3.970  0.00  0.00    -0.000 C 
BRANCH  48  49
ATOM     49  C   LIG    1       24.219 -14.478   2.511  0.00  0.00    -0.000 C 
BRANCH  49  50
ATOM     50  C   LIG    1       22.741 -14.356   2.180  0.00  0.00    -0.000 C 
BRANCH  50  51
ATOM     51  C   LIG    1       22.101 -12.964   2.184  0.00  0.00    -0.000 C 
BRANCH  51  52
ATOM     52  C   LIG    1       22.987 -11.741   2.472  0.00  0.00    -0.000 C 
BRANCH  52  53
ATOM     53  C   LIG    1       24.359 -12.203   3.123  0.00  0.00    -0.003 C 
ATOM     54  C   LIG    1       25.687 -11.479   2.716  0.00  0.00    +0.004 C 
ENDBRANCH  52  53
ENDBRANCH  51  52
ENDBRANCH  50  51
ENDBRANCH  49  50
ENDBRANCH  48  49
ENDBRANCH  47  48
ENDBRANCH  46  47
ENDBRANCH  45  46
ENDBRANCH  44  45
ENDBRANCH  43  44
ENDBRANCH  42  43
ENDBRANCH  41  42
ENDBRANCH  40  41
ENDBRANCH  38  40
ENDBRANCH  37  38
ENDBRANCH  36  37
ENDBRANCH   1  36
TORSDOF 44
ENDMDL
