MODEL 1
REMARK VINA RESULT:      -2.3      0.000      0.000
REMARK  Name = *****
REMARK                            x       y       z     vdW  Elec       q    Type
REMARK                         _______ _______ _______ _____ _____    ______ ____
ROOT
ATOM      1  C   LIG    1       25.459 -16.039   3.520  0.00  0.00    +0.065 C 
ATOM      2  C   LIG    1       25.718 -17.564   3.426  0.00  0.00    +0.096 C 
ATOM      3  C   LIG    1       24.463 -18.394   3.717  0.00  0.00    +0.065 C 
ATOM      4  C   LIG    1       23.358 -17.816   4.250  0.00  0.00    +0.016 C 
ATOM      5  C   LIG    1       22.053 -18.512   4.543  0.00  0.00    +0.061 C 
ATOM      6  N   LIG    1       23.356 -16.460   4.517  0.00  0.00    -0.321 N 
ATOM      7  H   LIG    1       22.469 -16.057   4.808  0.00  0.00    +0.152 HD
ATOM      8  C   LIG    1       24.304 -15.565   4.059  0.00  0.00    +0.016 C 
ATOM      9  C   LIG    1       23.859 -14.125   4.207  0.00  0.00    +0.061 C 
ENDROOT
BRANCH   2  10
ATOM     10  C   LIG    1       26.913 -18.039   4.293  0.00  0.00    -0.029 A 
ATOM     11  C   LIG    1       26.871 -19.219   5.055  0.00  0.00    +0.088 A 
ATOM     12  C   LIG    1       27.989 -19.610   5.816  0.00  0.00    +0.273 A 
ATOM     13  C   LIG    1       29.166 -18.852   5.822  0.00  0.00    +0.084 A 
ATOM     14  C   LIG    1       29.229 -17.697   5.050  0.00  0.00    +0.007 A 
ATOM     15  C   LIG    1       28.114 -17.295   4.303  0.00  0.00    +0.005 A 
BRANCH  12  16
ATOM     16  N   LIG    1       27.930 -20.838   6.618  0.00  0.00    +0.080 N 
ATOM     17  O   LIG    1       28.997 -21.415   6.871  0.00  0.00    -0.576 OA
ATOM     18  O   LIG    1       26.815 -21.229   6.997  0.00  0.00    +0.041 OA
ENDBRANCH  12  16
ENDBRANCH   2  10
BRANCH   1  19
ATOM     19  C   LIG    1       26.557 -15.220   2.972  0.00  0.00    +0.338 C 
ATOM     20  O   LIG    1       26.546 -14.803   1.812  0.00  0.00    -0.245 OA
BRANCH  19  21
ATOM     21  O   LIG    1       27.584 -15.122   3.830  0.00  0.00    -0.459 OA
BRANCH  21  22
ATOM     22  C   LIG    1       28.537 -14.062   3.654  0.00  0.00    +0.260 C 
BRANCH  22  23
ATOM     23  C   LIG    1       28.047 -12.680   4.079  0.00  0.00    +0.200 C 
BRANCH  23  25
ATOM     24  C   LIG    1       26.871 -13.230   6.040  0.00  0.00    +0.194 C 
ATOM     25  O   LIG    1       28.030 -12.604   5.505  0.00  0.00    -0.380 OA
ENDBRANCH  23  25
ENDBRANCH  22  23
ENDBRANCH  21  22
ENDBRANCH  19  21
ENDBRANCH   1  19
BRANCH   3  26
ATOM     26  C   LIG    1       24.537 -19.821   3.297  0.00  0.00    +0.338 C 
ATOM     27  O   LIG    1       24.282 -20.212   2.167  0.00  0.00    -0.245 OA
BRANCH  26  28
ATOM     28  O   LIG    1       24.982 -20.595   4.309  0.00  0.00    -0.459 OA
BRANCH  28  29
ATOM     29  C   LIG    1       24.026 -21.445   4.956  0.00  0.00    +0.171 C 
ATOM     30  C   LIG    1       22.796 -21.499   4.060  0.00  0.00    +0.051 C 
ATOM     31  C   LIG    1       23.716 -20.832   6.315  0.00  0.00    +0.051 C 
ENDBRANCH  28  29
ENDBRANCH  26  28
ENDBRANCH   3  26
TORSDOF 10
ENDMDL
MODEL 2
REMARK VINA RESULT:      -2.2      2.109      6.666
REMARK  Name = *****
REMARK                            x       y       z     vdW  Elec       q    Type
REMARK                         _______ _______ _______ _____ _____    ______ ____
ROOT
ATOM      1  C   LIG    1       26.781 -17.320   3.800  0.00  0.00    +0.065 C 
ATOM      2  C   LIG    1       25.858 -16.162   3.346  0.00  0.00    +0.096 C 
ATOM      3  C   LIG    1       26.478 -14.782   3.589  0.00  0.00    +0.065 C 
ATOM      4  C   LIG    1       27.587 -14.647   4.359  0.00  0.00    +0.016 C 
ATOM      5  C   LIG    1       28.314 -13.356   4.639  0.00  0.00    +0.061 C 
ATOM      6  N   LIG    1       28.175 -15.767   4.914  0.00  0.00    -0.321 N 
ATOM      7  H   LIG    1       29.066 -15.625   5.385  0.00  0.00    +0.152 HD
ATOM      8  C   LIG    1       27.883 -17.070   4.558  0.00  0.00    +0.016 C 
ATOM      9  C   LIG    1       28.915 -18.054   5.066  0.00  0.00    +0.061 C 
ENDROOT
BRANCH   2  10
ATOM     10  C   LIG    1       24.429 -16.245   3.946  0.00  0.00    -0.029 A 
ATOM     11  C   LIG    1       23.634 -17.400   3.843  0.00  0.00    +0.088 A 
ATOM     12  C   LIG    1       22.348 -17.426   4.416  0.00  0.00    +0.273 A 
ATOM     13  C   LIG    1       21.838 -16.321   5.109  0.00  0.00    +0.084 A 
ATOM     14  C   LIG    1       22.627 -15.184   5.240  0.00  0.00    +0.007 A 
ATOM     15  C   LIG    1       23.901 -15.146   4.659  0.00  0.00    +0.005 A 
BRANCH  12  16
ATOM     16  N   LIG    1       21.521 -18.632   4.293  0.00  0.00    +0.080 N 
ATOM     17  O   LIG    1       20.503 -18.566   3.589  0.00  0.00    -0.576 OA
ATOM     18  O   LIG    1       21.887 -19.649   4.902  0.00  0.00    +0.041 OA
ENDBRANCH  12  16
ENDBRANCH   2  10
BRANCH   1  19
ATOM     19  C   LIG    1       26.344 -18.645   3.322  0.00  0.00    +0.338 C 
ATOM     20  O   LIG    1       26.054 -18.853   2.142  0.00  0.00    -0.245 OA
BRANCH  19  21
ATOM     21  O   LIG    1       26.177 -19.511   4.334  0.00  0.00    -0.459 OA
BRANCH  21  22
ATOM     22  C   LIG    1       25.072 -20.427   4.289  0.00  0.00    +0.260 C 
BRANCH  22  23
ATOM     23  C   LIG    1       24.963 -21.364   5.489  0.00  0.00    +0.200 C 
BRANCH  23  25
ATOM     24  C   LIG    1       26.808 -21.021   6.907  0.00  0.00    +0.194 C 
ATOM     25  O   LIG    1       25.448 -20.694   6.654  0.00  0.00    -0.380 OA
ENDBRANCH  23  25
ENDBRANCH  22  23
ENDBRANCH  21  22
ENDBRANCH  19  21
ENDBRANCH   1  19
BRANCH   3  26
ATOM     26  C   LIG    1       25.826 -13.657   2.862  0.00  0.00    +0.338 C 
ATOM     27  O   LIG    1       26.251 -13.185   1.818  0.00  0.00    -0.245 OA
BRANCH  26  28
ATOM     28  O   LIG    1       24.683 -13.290   3.477  0.00  0.00    -0.459 OA
BRANCH  28  29
ATOM     29  C   LIG    1       24.450 -11.885   3.647  0.00  0.00    +0.171 C 
ATOM     30  C   LIG    1       23.862 -11.694   5.038  0.00  0.00    +0.051 C 
ATOM     31  C   LIG    1       23.485 -11.447   2.554  0.00  0.00    +0.051 C 
ENDBRANCH  28  29
ENDBRANCH  26  28
ENDBRANCH   3  26
TORSDOF 10
ENDMDL
MODEL 3
REMARK VINA RESULT:      -0.8      1.998      7.077
REMARK  Name = *****
REMARK                            x       y       z     vdW  Elec       q    Type
REMARK                         _______ _______ _______ _____ _____    ______ ____
ROOT
ATOM      1  C   LIG    1       25.116 -18.813   3.682  0.00  0.00    +0.065 C 
ATOM      2  C   LIG    1       25.405 -17.324   3.368  0.00  0.00    +0.096 C 
ATOM      3  C   LIG    1       26.842 -16.916   3.714  0.00  0.00    +0.065 C 
ATOM      4  C   LIG    1       27.634 -17.732   4.453  0.00  0.00    +0.016 C 
ATOM      5  C   LIG    1       29.072 -17.465   4.823  0.00  0.00    +0.061 C 
ATOM      6  N   LIG    1       27.150 -18.952   4.881  0.00  0.00    -0.321 N 
ATOM      7  H   LIG    1       27.819 -19.573   5.332  0.00  0.00    +0.152 HD
ATOM      8  C   LIG    1       25.992 -19.548   4.419  0.00  0.00    +0.016 C 
ATOM      9  C   LIG    1       25.902 -21.010   4.799  0.00  0.00    +0.061 C 
ENDROOT
BRANCH   2  10
ATOM     10  C   LIG    1       24.380 -16.351   4.008  0.00  0.00    -0.029 A 
ATOM     11  C   LIG    1       24.527 -14.955   3.949  0.00  0.00    +0.088 A 
ATOM     12  C   LIG    1       23.561 -14.116   4.538  0.00  0.00    +0.273 A 
ATOM     13  C   LIG    1       22.432 -14.645   5.176  0.00  0.00    +0.084 A 
ATOM     14  C   LIG    1       22.263 -16.024   5.216  0.00  0.00    +0.007 A 
ATOM     15  C   LIG    1       23.228 -16.863   4.646  0.00  0.00    +0.005 A 
BRANCH  12  16
ATOM     16  N   LIG    1       23.730 -12.659   4.481  0.00  0.00    +0.080 N 
ATOM     17  O   LIG    1       24.039 -12.072   5.528  0.00  0.00    -0.576 OA
ATOM     18  O   LIG    1       23.552 -12.098   3.389  0.00  0.00    +0.041 OA
ENDBRANCH  12  16
ENDBRANCH   2  10
BRANCH   1  19
ATOM     19  C   LIG    1       23.852 -19.303   3.101  0.00  0.00    +0.338 C 
ATOM     20  O   LIG    1       23.736 -19.553   1.899  0.00  0.00    -0.245 OA
BRANCH  19  21
ATOM     21  O   LIG    1       22.855 -19.300   4.000  0.00  0.00    -0.459 OA
BRANCH  21  22
ATOM     22  C   LIG    1       22.101 -20.506   4.204  0.00  0.00    +0.260 C 
BRANCH  22  23
ATOM     23  C   LIG    1       22.322 -21.182   5.555  0.00  0.00    +0.200 C 
BRANCH  23  25
ATOM     24  C   LIG    1       24.097 -20.847   7.062  0.00  0.00    +0.194 C 
ATOM     25  O   LIG    1       22.958 -20.262   6.443  0.00  0.00    -0.380 OA
ENDBRANCH  23  25
ENDBRANCH  22  23
ENDBRANCH  21  22
ENDBRANCH  19  21
ENDBRANCH   1  19
BRANCH   3  26
ATOM     26  C   LIG    1       27.296 -15.630   3.116  0.00  0.00    +0.338 C 
ATOM     27  O   LIG    1       26.973 -15.246   2.000  0.00  0.00    -0.245 OA
BRANCH  26  28
ATOM     28  O   LIG    1       28.046 -14.933   3.994  0.00  0.00    -0.459 OA
BRANCH  28  29
ATOM     29  C   LIG    1       27.666 -13.574   4.250  0.00  0.00    +0.171 C 
ATOM     30  C   LIG    1       28.896 -12.711   4.003  0.00  0.00    +0.051 C 
ATOM     31  C   LIG    1       27.194 -13.496   5.695  0.00  0.00    +0.051 C 
ENDBRANCH  28  29
ENDBRANCH  26  28
ENDBRANCH   3  26
TORSDOF 10
ENDMDL
MODEL 4
REMARK VINA RESULT:       0.6      2.016      7.105
REMARK  Name = *****
REMARK                            x       y       z     vdW  Elec       q    Type
REMARK                         _______ _______ _______ _____ _____    ______ ____
ROOT
ATOM      1  C   LIG    1       25.204 -19.295   3.861  0.00  0.00    +0.065 C 
ATOM      2  C   LIG    1       25.501 -17.821   3.489  0.00  0.00    +0.096 C 
ATOM      3  C   LIG    1       26.905 -17.377   3.914  0.00  0.00    +0.065 C 
ATOM      4  C   LIG    1       27.649 -18.142   4.751  0.00  0.00    +0.016 C 
ATOM      5  C   LIG    1       29.054 -17.838   5.208  0.00  0.00    +0.061 C 
ATOM      6  N   LIG    1       27.146 -19.344   5.210  0.00  0.00    -0.321 N 
ATOM      7  H   LIG    1       27.786 -19.931   5.740  0.00  0.00    +0.152 HD
ATOM      8  C   LIG    1       26.030 -19.978   4.699  0.00  0.00    +0.016 C 
ATOM      9  C   LIG    1       25.926 -21.419   5.150  0.00  0.00    +0.061 C 
ENDROOT
BRANCH   2  10
ATOM     10  C   LIG    1       24.424 -16.829   4.000  0.00  0.00    -0.029 A 
ATOM     11  C   LIG    1       24.547 -15.438   3.847  0.00  0.00    +0.088 A 
ATOM     12  C   LIG    1       23.534 -14.581   4.320  0.00  0.00    +0.273 A 
ATOM     13  C   LIG    1       22.381 -15.089   4.934  0.00  0.00    +0.084 A 
ATOM     14  C   LIG    1       22.237 -16.465   5.065  0.00  0.00    +0.007 A 
ATOM     15  C   LIG    1       23.248 -17.320   4.611  0.00  0.00    +0.005 A 
BRANCH  12  16
ATOM     16  N   LIG    1       23.677 -13.129   4.166  0.00  0.00    +0.080 N 
ATOM     17  O   LIG    1       23.740 -12.442   5.196  0.00  0.00    -0.576 OA
ATOM     18  O   LIG    1       23.728 -12.671   3.014  0.00  0.00    +0.041 OA
ENDBRANCH  12  16
ENDBRANCH   2  10
BRANCH   1  19
ATOM     19  C   LIG    1       23.989 -19.832   3.219  0.00  0.00    +0.338 C 
ATOM     20  O   LIG    1       23.564 -19.390   2.149  0.00  0.00    -0.245 OA
BRANCH  19  21
ATOM     21  O   LIG    1       23.365 -20.728   4.000  0.00  0.00    -0.459 OA
BRANCH  21  22
ATOM     22  C   LIG    1       22.285 -20.285   4.838  0.00  0.00    +0.260 C 
BRANCH  22  23
ATOM     23  C   LIG    1       20.913 -20.280   4.169  0.00  0.00    +0.200 C 
BRANCH  23  25
ATOM     24  C   LIG    1       19.351 -18.868   3.122  0.00  0.00    +0.194 C 
ATOM     25  O   LIG    1       20.703 -19.018   3.534  0.00  0.00    -0.380 OA
ENDBRANCH  23  25
ENDBRANCH  22  23
ENDBRANCH  21  22
ENDBRANCH  19  21
ENDBRANCH   1  19
BRANCH   3  26
ATOM     26  C   LIG    1       27.390 -16.119   3.281  0.00  0.00    +0.338 C 
ATOM     27  O   LIG    1       27.218 -15.839   2.103  0.00  0.00    -0.245 OA
BRANCH  26  28
ATOM     28  O   LIG    1       27.976 -15.319   4.196  0.00  0.00    -0.459 OA
BRANCH  28  29
ATOM     29  C   LIG    1       27.622 -13.929   4.177  0.00  0.00    +0.171 C 
ATOM     30  C   LIG    1       28.868 -13.155   3.771  0.00  0.00    +0.051 C 
ATOM     31  C   LIG    1       27.151 -13.559   5.576  0.00  0.00    +0.051 C 
ENDBRANCH  28  29
ENDBRANCH  26  28
ENDBRANCH   3  26
TORSDOF 10
ENDMDL
