MODEL 1
REMARK VINA RESULT:      -4.3      0.000      0.000
REMARK  Name = *****
REMARK                            x       y       z     vdW  Elec       q    Type
REMARK                         _______ _______ _______ _____ _____    ______ ____
ROOT
ATOM      1  O   LIG    1       30.764 -22.098  10.398  0.00  0.00    -0.147 OA
ATOM      2  S   LIG    1       31.278 -21.442   9.217  0.00  0.00    +0.081 S 
ATOM      3  O   LIG    1       32.075 -20.243   9.277  0.00  0.00    -0.147 OA
ENDROOT
BRANCH   2   4
ATOM      4  O   LIG    1       32.122 -22.569   8.428  0.00  0.00    -0.254 OA
ATOM      5  H   LIG    1       32.786 -22.112   7.865  0.00  0.00    +0.244 HD
ENDBRANCH   2   4
BRANCH   2   6
ATOM      6  C   LIG    1       29.967 -21.233   8.026  0.00  0.00    +0.208 C 
BRANCH   6   7
ATOM      7  C   LIG    1       29.550 -19.777   7.985  0.00  0.00    +0.090 C 
BRANCH   7   8
ATOM      8  S   LIG    1       30.021 -19.023   6.398  0.00  0.00    -0.177 S 
ATOM      9  H   LIG    1       29.179 -17.979   6.456  0.00  0.00    +0.102 HD
ENDBRANCH   7   8
ENDBRANCH   6   7
ENDBRANCH   2   6
TORSDOF 4
ENDMDL
MODEL 2
REMARK VINA RESULT:      -4.3      2.660      2.856
REMARK  Name = *****
REMARK                            x       y       z     vdW  Elec       q    Type
REMARK                         _______ _______ _______ _____ _____    ______ ____
ROOT
ATOM      1  O   LIG    1       29.809 -21.006   8.569  0.00  0.00    -0.147 OA
ATOM      2  S   LIG    1       31.127 -20.428   8.701  0.00  0.00    +0.081 S 
ATOM      3  O   LIG    1       32.227 -21.130   9.315  0.00  0.00    -0.147 OA
ENDROOT
BRANCH   2   4
ATOM      4  O   LIG    1       31.570 -20.011   7.206  0.00  0.00    -0.254 OA
ATOM      5  H   LIG    1       32.024 -19.141   7.255  0.00  0.00    +0.244 HD
ENDBRANCH   2   4
BRANCH   2   6
ATOM      6  C   LIG    1       31.002 -18.789   9.390  0.00  0.00    +0.208 C 
BRANCH   6   7
ATOM      7  C   LIG    1       31.919 -17.850   8.632  0.00  0.00    +0.090 C 
BRANCH   7   8
ATOM      8  S   LIG    1       32.275 -16.368   9.625  0.00  0.00    -0.177 S 
ATOM      9  H   LIG    1       31.310 -16.548  10.540  0.00  0.00    +0.102 HD
ENDBRANCH   7   8
ENDBRANCH   6   7
ENDBRANCH   2   6
TORSDOF 4
ENDMDL
MODEL 3
REMARK VINA RESULT:      -4.1      2.304      2.972
REMARK  Name = *****
REMARK                            x       y       z     vdW  Elec       q    Type
REMARK                         _______ _______ _______ _____ _____    ______ ____
ROOT
ATOM      1  O   LIG    1       32.139 -19.780   9.257  0.00  0.00    -0.147 OA
ATOM      2  S   LIG    1       31.240 -18.848   8.615  0.00  0.00    +0.081 S 
ATOM      3  O   LIG    1       29.986 -18.445   9.202  0.00  0.00    -0.147 OA
ENDROOT
BRANCH   2   4
ATOM      4  O   LIG    1       32.116 -17.520   8.340  0.00  0.00    -0.254 OA
ATOM      5  H   LIG    1       32.617 -17.654   7.506  0.00  0.00    +0.244 HD
ENDBRANCH   2   4
BRANCH   2   6
ATOM      6  C   LIG    1       30.981 -19.331   6.918  0.00  0.00    +0.208 C 
BRANCH   6   7
ATOM      7  C   LIG    1       29.689 -18.722   6.412  0.00  0.00    +0.090 C 
BRANCH   7   8
ATOM      8  S   LIG    1       28.427 -20.011   6.177  0.00  0.00    -0.177 S 
ATOM      9  H   LIG    1       28.539 -20.573   7.391  0.00  0.00    +0.102 HD
ENDBRANCH   7   8
ENDBRANCH   6   7
ENDBRANCH   2   6
TORSDOF 4
ENDMDL
MODEL 4
REMARK VINA RESULT:      -4.1      3.062      3.727
REMARK  Name = *****
REMARK                            x       y       z     vdW  Elec       q    Type
REMARK                         _______ _______ _______ _____ _____    ______ ____
ROOT
ATOM      1  O   LIG    1       31.615 -19.580   7.044  0.00  0.00    -0.147 OA
ATOM      2  S   LIG    1       31.215 -19.256   8.394  0.00  0.00    +0.081 S 
ATOM      3  O   LIG    1       29.850 -19.353   8.847  0.00  0.00    -0.147 OA
ENDROOT
BRANCH   2   4
ATOM      4  O   LIG    1       32.129 -20.181   9.351  0.00  0.00    -0.254 OA
ATOM      5  H   LIG    1       32.171 -19.755  10.235  0.00  0.00    +0.244 HD
ENDBRANCH   2   4
BRANCH   2   6
ATOM      6  C   LIG    1       31.891 -17.673   8.859  0.00  0.00    +0.208 C 
BRANCH   6   7
ATOM      7  C   LIG    1       30.858 -16.896   9.651  0.00  0.00    +0.090 C 
BRANCH   7   8
ATOM      8  S   LIG    1       31.248 -16.943  11.427  0.00  0.00    -0.177 S 
ATOM      9  H   LIG    1       32.501 -17.409  11.307  0.00  0.00    +0.102 HD
ENDBRANCH   7   8
ENDBRANCH   6   7
ENDBRANCH   2   6
TORSDOF 4
ENDMDL
MODEL 5
REMARK VINA RESULT:      -4.1      2.311      3.139
REMARK  Name = *****
REMARK                            x       y       z     vdW  Elec       q    Type
REMARK                         _______ _______ _______ _____ _____    ______ ____
ROOT
ATOM      1  O   LIG    1       31.982 -17.406   8.434  0.00  0.00    -0.147 OA
ATOM      2  S   LIG    1       31.453 -18.745   8.564  0.00  0.00    +0.081 S 
ATOM      3  O   LIG    1       32.123 -19.778   9.314  0.00  0.00    -0.147 OA
ENDROOT
BRANCH   2   4
ATOM      4  O   LIG    1       29.968 -18.567   9.171  0.00  0.00    -0.254 OA
ATOM      5  H   LIG    1       29.433 -18.061   8.520  0.00  0.00    +0.244 HD
ENDBRANCH   2   4
BRANCH   2   6
ATOM      6  C   LIG    1       30.994 -19.371   6.959  0.00  0.00    +0.208 C 
BRANCH   6   7
ATOM      7  C   LIG    1       29.698 -18.722   6.516  0.00  0.00    +0.090 C 
BRANCH   7   8
ATOM      8  S   LIG    1       28.442 -19.988   6.156  0.00  0.00    -0.177 S 
ATOM      9  H   LIG    1       29.292 -21.002   5.932  0.00  0.00    +0.102 HD
ENDBRANCH   7   8
ENDBRANCH   6   7
ENDBRANCH   2   6
TORSDOF 4
ENDMDL
MODEL 6
REMARK VINA RESULT:      -4.1      1.835      2.124
REMARK  Name = *****
REMARK                            x       y       z     vdW  Elec       q    Type
REMARK                         _______ _______ _______ _____ _____    ______ ____
ROOT
ATOM      1  O   LIG    1       30.771 -19.155   9.951  0.00  0.00    -0.147 OA
ATOM      2  S   LIG    1       31.233 -19.813   8.749  0.00  0.00    +0.081 S 
ATOM      3  O   LIG    1       31.915 -19.111   7.690  0.00  0.00    -0.147 OA
ENDROOT
BRANCH   2   4
ATOM      4  O   LIG    1       32.186 -21.014   9.252  0.00  0.00    -0.254 OA
ATOM      5  H   LIG    1       31.626 -21.812   9.383  0.00  0.00    +0.244 HD
ENDBRANCH   2   4
BRANCH   2   6
ATOM      6  C   LIG    1       29.920 -20.806   8.063  0.00  0.00    +0.208 C 
BRANCH   6   7
ATOM      7  C   LIG    1       28.884 -19.902   7.426  0.00  0.00    +0.090 C 
BRANCH   7   8
ATOM      8  S   LIG    1       27.209 -20.555   7.710  0.00  0.00    -0.177 S 
ATOM      9  H   LIG    1       27.523 -21.372   8.728  0.00  0.00    +0.102 HD
ENDBRANCH   7   8
ENDBRANCH   6   7
ENDBRANCH   2   6
TORSDOF 4
ENDMDL
MODEL 7
REMARK VINA RESULT:      -4.1      3.480      3.965
REMARK  Name = *****
REMARK                            x       y       z     vdW  Elec       q    Type
REMARK                         _______ _______ _______ _____ _____    ______ ____
ROOT
ATOM      1  O   LIG    1       32.435 -17.707  10.628  0.00  0.00    -0.147 OA
ATOM      2  S   LIG    1       31.637 -17.203   9.534  0.00  0.00    +0.081 S 
ATOM      3  O   LIG    1       30.351 -16.580   9.729  0.00  0.00    -0.147 OA
ENDROOT
BRANCH   2   4
ATOM      4  O   LIG    1       32.586 -16.160   8.749  0.00  0.00    -0.254 OA
ATOM      5  H   LIG    1       32.071 -15.784   8.001  0.00  0.00    +0.244 HD
ENDBRANCH   2   4
BRANCH   2   6
ATOM      6  C   LIG    1       31.516 -18.440   8.256  0.00  0.00    +0.208 C 
BRANCH   6   7
ATOM      7  C   LIG    1       30.059 -18.787   8.025  0.00  0.00    +0.090 C 
BRANCH   7   8
ATOM      8  S   LIG    1       29.674 -18.766   6.247  0.00  0.00    -0.177 S 
ATOM      9  H   LIG    1       30.885 -18.374   5.821  0.00  0.00    +0.102 HD
ENDBRANCH   7   8
ENDBRANCH   6   7
ENDBRANCH   2   6
TORSDOF 4
ENDMDL
MODEL 8
REMARK VINA RESULT:      -3.9      3.738      4.359
REMARK  Name = *****
REMARK                            x       y       z     vdW  Elec       q    Type
REMARK                         _______ _______ _______ _____ _____    ______ ____
ROOT
ATOM      1  O   LIG    1       29.836 -18.462   9.367  0.00  0.00    -0.147 OA
ATOM      2  S   LIG    1       31.215 -18.464   8.935  0.00  0.00    +0.081 S 
ATOM      3  O   LIG    1       32.154 -19.485   9.329  0.00  0.00    -0.147 OA
ENDROOT
BRANCH   2   4
ATOM      4  O   LIG    1       31.164 -18.424   7.322  0.00  0.00    -0.254 OA
ATOM      5  H   LIG    1       30.320 -17.997   7.056  0.00  0.00    +0.244 HD
ENDBRANCH   2   4
BRANCH   2   6
ATOM      6  C   LIG    1       31.933 -16.854   9.201  0.00  0.00    +0.208 C 
BRANCH   6   7
ATOM      7  C   LIG    1       32.737 -16.866  10.486  0.00  0.00    +0.090 C 
BRANCH   7   8
ATOM      8  S   LIG    1       31.677 -16.452  11.905  0.00  0.00    -0.177 S 
ATOM      9  H   LIG    1       32.393 -15.406  12.345  0.00  0.00    +0.102 HD
ENDBRANCH   7   8
ENDBRANCH   6   7
ENDBRANCH   2   6
TORSDOF 4
ENDMDL
MODEL 9
REMARK VINA RESULT:      -3.7      3.121      3.869
REMARK  Name = *****
REMARK                            x       y       z     vdW  Elec       q    Type
REMARK                         _______ _______ _______ _____ _____    ______ ____
ROOT
ATOM      1  O   LIG    1       30.126 -18.377   5.889  0.00  0.00    -0.147 OA
ATOM      2  S   LIG    1       30.223 -19.238   7.046  0.00  0.00    +0.081 S 
ATOM      3  O   LIG    1       29.342 -20.359   7.259  0.00  0.00    -0.147 OA
ENDROOT
BRANCH   2   4
ATOM      4  O   LIG    1       31.742 -19.784   7.052  0.00  0.00    -0.254 OA
ATOM      5  H   LIG    1       31.799 -20.517   7.704  0.00  0.00    +0.244 HD
ENDBRANCH   2   4
BRANCH   2   6
ATOM      6  C   LIG    1       30.308 -18.250   8.528  0.00  0.00    +0.208 C 
BRANCH   6   7
ATOM      7  C   LIG    1       31.739 -18.205   9.025  0.00  0.00    +0.090 C 
BRANCH   7   8
ATOM      8  S   LIG    1       32.206 -16.504   9.470  0.00  0.00    -0.177 S 
ATOM      9  H   LIG    1       32.654 -16.136   8.259  0.00  0.00    +0.102 HD
ENDBRANCH   7   8
ENDBRANCH   6   7
ENDBRANCH   2   6
TORSDOF 4
ENDMDL
