MODEL 1
REMARK VINA RESULT:       0.4      0.000      0.000
REMARK  Name = *****
REMARK                            x       y       z     vdW  Elec       q    Type
REMARK                         _______ _______ _______ _____ _____    ______ ____
ROOT
ATOM      1  C   LIG    1       20.232 -20.099   4.088  0.00  0.00    +0.035 C 
ATOM      2  C   LIG    1       21.261 -21.219   4.003  0.00  0.00    -0.028 C 
ATOM      3  C   LIG    1       22.545 -21.066   4.432  0.00  0.00    -0.042 C 
ATOM      4  C   LIG    1       23.103 -20.656   5.824  0.00  0.00    +0.069 C 
ATOM      5  C   LIG    1       24.684 -20.660   5.887  0.00  0.00    -0.004 C 
ATOM      6  C   LIG    1       25.442 -20.948   4.807  0.00  0.00    +0.025 C 
ATOM      7  C   LIG    1       24.814 -21.211   3.472  0.00  0.00    +0.065 C 
ATOM      8  N   LIG    1       26.812 -20.784   4.823  0.00  0.00    -0.326 N 
ATOM      9  H   LIG    1       27.359 -20.997   3.998  0.00  0.00    +0.169 HD
ATOM     10  C   LIG    1       27.491 -20.182   5.838  0.00  0.00    +0.249 C 
ATOM     11  O   LIG    1       28.706 -19.949   5.784  0.00  0.00    -0.268 OA
ATOM     12  C   LIG    1       26.685 -19.785   7.009  0.00  0.00    +0.070 C 
ATOM     13  C   LIG    1       25.372 -20.072   7.041  0.00  0.00    +0.013 C 
ATOM     14  C   LIG    1       22.633 -19.197   6.009  0.00  0.00    +0.061 C 
ATOM     15  C   LIG    1       23.044 -18.355   4.792  0.00  0.00    -0.074 C 
ATOM     16  C   LIG    1       22.819 -16.890   4.977  0.00  0.00    +0.038 C 
ATOM     17  C   LIG    1       23.506 -18.927   3.646  0.00  0.00    -0.020 C 
ATOM     18  C   LIG    1       23.476 -20.460   3.387  0.00  0.00    +0.045 C 
ENDROOT
BRANCH   4  19
ATOM     19  N   LIG    1       22.580 -21.572   6.843  0.00  0.00    -0.317 NA
ATOM     20  H   LIG    1       22.523 -21.056   7.722  0.00  0.00    +0.119 HD
ATOM     21  H   LIG    1       21.623 -21.826   6.615  0.00  0.00    +0.119 HD
ENDBRANCH   4  19
TORSDOF 1
ENDMDL
MODEL 2
REMARK VINA RESULT:       0.9      5.096      7.242
REMARK  Name = *****
REMARK                            x       y       z     vdW  Elec       q    Type
REMARK                         _______ _______ _______ _____ _____    ______ ____
ROOT
ATOM      1  C   LIG    1       28.736 -12.162   3.680  0.00  0.00    +0.035 C 
ATOM      2  C   LIG    1       28.251 -13.225   2.703  0.00  0.00    -0.028 C 
ATOM      3  C   LIG    1       27.173 -14.016   2.961  0.00  0.00    -0.042 C 
ATOM      4  C   LIG    1       25.699 -13.642   3.288  0.00  0.00    +0.069 C 
ATOM      5  C   LIG    1       24.761 -14.904   3.463  0.00  0.00    -0.004 C 
ATOM      6  C   LIG    1       25.236 -16.166   3.377  0.00  0.00    +0.025 C 
ATOM      7  C   LIG    1       26.697 -16.428   3.181  0.00  0.00    +0.065 C 
ATOM      8  N   LIG    1       24.450 -17.254   3.698  0.00  0.00    -0.326 N 
ATOM      9  H   LIG    1       24.830 -18.191   3.636  0.00  0.00    +0.169 HD
ATOM     10  C   LIG    1       23.217 -17.158   4.268  0.00  0.00    +0.249 C 
ATOM     11  O   LIG    1       22.576 -18.148   4.646  0.00  0.00    -0.268 OA
ATOM     12  C   LIG    1       22.693 -15.790   4.445  0.00  0.00    +0.070 C 
ATOM     13  C   LIG    1       23.409 -14.740   4.006  0.00  0.00    +0.013 C 
ATOM     14  C   LIG    1       25.782 -12.930   4.656  0.00  0.00    +0.061 C 
ATOM     15  C   LIG    1       26.542 -13.808   5.659  0.00  0.00    -0.074 C 
ATOM     16  C   LIG    1       26.487 -13.296   7.062  0.00  0.00    +0.038 C 
ATOM     17  C   LIG    1       27.242 -14.908   5.266  0.00  0.00    -0.020 C 
ATOM     18  C   LIG    1       27.504 -15.263   3.775  0.00  0.00    +0.045 C 
ENDROOT
BRANCH   4  19
ATOM     19  N   LIG    1       25.168 -12.793   2.218  0.00  0.00    -0.317 NA
ATOM     20  H   LIG    1       25.412 -11.827   2.440  0.00  0.00    +0.119 HD
ATOM     21  H   LIG    1       25.647 -13.001   1.346  0.00  0.00    +0.119 HD
ENDBRANCH   4  19
TORSDOF 1
ENDMDL
MODEL 3
REMARK VINA RESULT:       1.5      2.576      3.724
REMARK  Name = *****
REMARK                            x       y       z     vdW  Elec       q    Type
REMARK                         _______ _______ _______ _____ _____    ______ ____
ROOT
ATOM      1  C   LIG    1       21.260 -21.572   4.920  0.00  0.00    +0.035 C 
ATOM      2  C   LIG    1       21.212 -20.346   4.017  0.00  0.00    -0.028 C 
ATOM      3  C   LIG    1       22.266 -19.493   3.887  0.00  0.00    -0.042 C 
ATOM      4  C   LIG    1       23.735 -19.761   3.449  0.00  0.00    +0.069 C 
ATOM      5  C   LIG    1       24.614 -18.448   3.386  0.00  0.00    -0.004 C 
ATOM      6  C   LIG    1       24.120 -17.238   3.730  0.00  0.00    +0.025 C 
ATOM      7  C   LIG    1       22.726 -17.097   4.259  0.00  0.00    +0.065 C 
ATOM      8  N   LIG    1       24.936 -16.130   3.835  0.00  0.00    -0.326 N 
ATOM      9  H   LIG    1       24.546 -15.235   4.105  0.00  0.00    +0.169 HD
ATOM     10  C   LIG    1       26.295 -16.179   3.764  0.00  0.00    +0.249 C 
ATOM     11  O   LIG    1       27.012 -15.191   3.969  0.00  0.00    -0.268 OA
ATOM     12  C   LIG    1       26.878 -17.501   3.461  0.00  0.00    +0.070 C 
ATOM     13  C   LIG    1       26.069 -18.548   3.226  0.00  0.00    +0.013 C 
ATOM     14  C   LIG    1       24.310 -20.653   4.571  0.00  0.00    +0.061 C 
ATOM     15  C   LIG    1       24.074 -19.995   5.938  0.00  0.00    -0.074 C 
ATOM     16  C   LIG    1       24.783 -20.681   7.060  0.00  0.00    +0.038 C 
ATOM     17  C   LIG    1       23.243 -18.927   6.087  0.00  0.00    -0.020 C 
ATOM     18  C   LIG    1       22.315 -18.405   4.954  0.00  0.00    +0.045 C 
ENDROOT
BRANCH   4  19
ATOM     19  N   LIG    1       23.736 -20.404   2.132  0.00  0.00    -0.317 NA
ATOM     20  H   LIG    1       22.967 -21.074   2.114  0.00  0.00    +0.119 HD
ATOM     21  H   LIG    1       23.515 -19.717   1.416  0.00  0.00    +0.119 HD
ENDBRANCH   4  19
TORSDOF 1
ENDMDL
