MODEL 1
REMARK VINA RESULT:      -8.5      0.000      0.000
REMARK  Name = *****
REMARK                            x       y       z     vdW  Elec       q    Type
REMARK                         _______ _______ _______ _____ _____    ______ ____
ROOT
ATOM      1  C   LIG    1       25.166 -21.467   7.043  0.00  0.00    +0.095 C 
ENDROOT
BRANCH   1   2
ATOM      2  C   LIG    1       24.567 -22.942   7.203  0.00  0.00    +0.025 C 
ATOM      3  C   LIG    1       23.709 -23.459   6.015  0.00  0.00    +0.006 C 
ATOM      4  C   LIG    1       24.510 -24.043   4.859  0.00  0.00    +0.000 C 
ATOM      5  C   LIG    1       25.325 -25.228   5.346  0.00  0.00    +0.000 C 
ATOM      6  C   LIG    1       26.279 -24.799   6.453  0.00  0.00    +0.000 C 
ATOM      7  C   LIG    1       25.591 -24.044   7.599  0.00  0.00    +0.006 C 
ENDBRANCH   1   2
BRANCH   1   8
ATOM      8  C   LIG    1       24.435 -20.652   5.946  0.00  0.00    -0.016 A 
ATOM      9  C   LIG    1       25.086 -20.265   4.763  0.00  0.00    +0.006 A 
ATOM     10  C   LIG    1       24.450 -19.479   3.791  0.00  0.00    +0.000 A 
ATOM     11  C   LIG    1       23.134 -19.053   3.988  0.00  0.00    +0.000 A 
ATOM     12  C   LIG    1       22.473 -19.410   5.150  0.00  0.00    +0.000 A 
ATOM     13  C   LIG    1       23.109 -20.193   6.124  0.00  0.00    +0.006 A 
ENDBRANCH   1   8
BRANCH   1  14
ATOM     14  O   LIG    1       25.058 -20.813   8.311  0.00  0.00    -0.384 OA
ATOM     15  H   LIG    1       25.258 -19.873   8.164  0.00  0.00    +0.211 HD
ENDBRANCH   1  14
BRANCH   1  16
ATOM     16  C   LIG    1       26.689 -21.544   6.708  0.00  0.00    +0.055 C 
BRANCH  16  17
ATOM     17  C   LIG    1       27.681 -21.058   7.783  0.00  0.00    +0.087 C 
BRANCH  17  18
ATOM     18  N   LIG    1       29.085 -21.089   7.306  0.00  0.00    -0.302 NA
ATOM     19  C   LIG    1       29.270 -20.328   6.062  0.00  0.00    +0.084 C 
ATOM     20  C   LIG    1       29.297 -18.807   6.243  0.00  0.00    +0.015 C 
ATOM     21  C   LIG    1       30.294 -18.366   7.309  0.00  0.00    +0.002 C 
ATOM     22  C   LIG    1       30.175 -19.196   8.582  0.00  0.00    +0.015 C 
ATOM     23  C   LIG    1       30.105 -20.696   8.289  0.00  0.00    +0.084 C 
ENDBRANCH  17  18
ENDBRANCH  16  17
ENDBRANCH   1  16
TORSDOF 6
ENDMDL
MODEL 2
REMARK VINA RESULT:      -8.5      0.103      1.029
REMARK  Name = *****
REMARK                            x       y       z     vdW  Elec       q    Type
REMARK                         _______ _______ _______ _____ _____    ______ ____
ROOT
ATOM      1  C   LIG    1       25.227 -21.552   7.109  0.00  0.00    +0.095 C 
ENDROOT
BRANCH   1   2
ATOM      2  C   LIG    1       24.584 -23.014   7.200  0.00  0.00    +0.025 C 
ATOM      3  C   LIG    1       23.731 -23.458   5.980  0.00  0.00    +0.006 C 
ATOM      4  C   LIG    1       24.534 -24.018   4.813  0.00  0.00    +0.000 C 
ATOM      5  C   LIG    1       25.308 -25.245   5.263  0.00  0.00    +0.000 C 
ATOM      6  C   LIG    1       26.256 -24.888   6.400  0.00  0.00    +0.000 C 
ATOM      7  C   LIG    1       25.570 -24.160   7.565  0.00  0.00    +0.006 C 
ENDBRANCH   1   2
BRANCH   1   8
ATOM      8  C   LIG    1       24.528 -20.668   6.044  0.00  0.00    -0.016 A 
ATOM      9  C   LIG    1       23.191 -20.264   6.190  0.00  0.00    +0.006 A 
ATOM     10  C   LIG    1       22.533 -19.512   5.205  0.00  0.00    +0.000 A 
ATOM     11  C   LIG    1       23.206 -19.152   4.036  0.00  0.00    +0.000 A 
ATOM     12  C   LIG    1       24.520 -19.548   3.860  0.00  0.00    +0.000 A 
ATOM     13  C   LIG    1       25.178 -20.302   4.843  0.00  0.00    +0.006 A 
ENDBRANCH   1   8
BRANCH   1  14
ATOM     14  O   LIG    1       25.128 -20.951   8.404  0.00  0.00    -0.384 OA
ATOM     15  H   LIG    1       25.831 -21.339   8.952  0.00  0.00    +0.211 HD
ENDBRANCH   1  14
BRANCH   1  16
ATOM     16  C   LIG    1       26.749 -21.659   6.781  0.00  0.00    +0.055 C 
BRANCH  16  17
ATOM     17  C   LIG    1       27.744 -21.113   7.825  0.00  0.00    +0.087 C 
BRANCH  17  18
ATOM     18  N   LIG    1       29.139 -21.109   7.322  0.00  0.00    -0.302 NA
ATOM     19  C   LIG    1       29.283 -20.337   6.079  0.00  0.00    +0.084 C 
ATOM     20  C   LIG    1       29.278 -18.817   6.268  0.00  0.00    +0.015 C 
ATOM     21  C   LIG    1       30.284 -18.358   7.318  0.00  0.00    +0.002 C 
ATOM     22  C   LIG    1       30.207 -19.197   8.588  0.00  0.00    +0.015 C 
ATOM     23  C   LIG    1       30.168 -20.696   8.288  0.00  0.00    +0.084 C 
ENDBRANCH  17  18
ENDBRANCH  16  17
ENDBRANCH   1  16
TORSDOF 6
ENDMDL
MODEL 3
REMARK VINA RESULT:      -8.4      1.287      3.660
REMARK  Name = *****
REMARK                            x       y       z     vdW  Elec       q    Type
REMARK                         _______ _______ _______ _____ _____    ______ ____
ROOT
ATOM      1  C   LIG    1       25.626 -21.832   6.638  0.00  0.00    +0.095 C 
ENDROOT
BRANCH   1   2
ATOM      2  C   LIG    1       24.219 -21.133   6.939  0.00  0.00    +0.025 C 
ATOM      3  C   LIG    1       23.680 -20.186   5.832  0.00  0.00    +0.006 C 
ATOM      4  C   LIG    1       22.948 -20.889   4.696  0.00  0.00    +0.000 C 
ATOM      5  C   LIG    1       21.745 -21.635   5.244  0.00  0.00    +0.000 C 
ATOM      6  C   LIG    1       22.183 -22.668   6.275  0.00  0.00    +0.000 C 
ATOM      7  C   LIG    1       23.076 -22.089   7.382  0.00  0.00    +0.006 C 
ENDBRANCH   1   2
BRANCH   1   8
ATOM      8  C   LIG    1       25.476 -23.341   6.318  0.00  0.00    -0.016 A 
ATOM      9  C   LIG    1       25.849 -24.328   7.245  0.00  0.00    +0.006 A 
ATOM     10  C   LIG    1       25.769 -25.696   6.943  0.00  0.00    +0.000 A 
ATOM     11  C   LIG    1       25.316 -26.108   5.688  0.00  0.00    +0.000 A 
ATOM     12  C   LIG    1       24.953 -25.157   4.751  0.00  0.00    +0.000 A 
ATOM     13  C   LIG    1       25.035 -23.789   5.051  0.00  0.00    +0.006 A 
ENDBRANCH   1   8
BRANCH   1  14
ATOM     14  O   LIG    1       26.228 -21.143   5.537  0.00  0.00    -0.384 OA
ATOM     15  H   LIG    1       27.189 -21.273   5.611  0.00  0.00    +0.211 HD
ENDBRANCH   1  14
BRANCH   1  16
ATOM     16  C   LIG    1       26.583 -21.650   7.857  0.00  0.00    +0.055 C 
BRANCH  16  17
ATOM     17  C   LIG    1       27.583 -20.476   7.811  0.00  0.00    +0.087 C 
BRANCH  17  18
ATOM     18  N   LIG    1       28.848 -20.844   7.131  0.00  0.00    -0.302 NA
ATOM     19  C   LIG    1       29.253 -19.850   6.125  0.00  0.00    +0.084 C 
ATOM     20  C   LIG    1       29.860 -18.569   6.704  0.00  0.00    +0.015 C 
ATOM     21  C   LIG    1       30.996 -18.853   7.681  0.00  0.00    +0.002 C 
ATOM     22  C   LIG    1       30.627 -19.939   8.686  0.00  0.00    +0.015 C 
ATOM     23  C   LIG    1       29.984 -21.153   8.013  0.00  0.00    +0.084 C 
ENDBRANCH  17  18
ENDBRANCH  16  17
ENDBRANCH   1  16
TORSDOF 6
ENDMDL
MODEL 4
REMARK VINA RESULT:      -8.1      2.488      5.802
REMARK  Name = *****
REMARK                            x       y       z     vdW  Elec       q    Type
REMARK                         _______ _______ _______ _____ _____    ______ ____
ROOT
ATOM      1  C   LIG    1       24.630 -23.064   5.946  0.00  0.00    +0.095 C 
ENDROOT
BRANCH   1   2
ATOM      2  C   LIG    1       25.448 -22.895   7.310  0.00  0.00    +0.025 C 
ATOM      3  C   LIG    1       26.983 -22.706   7.163  0.00  0.00    +0.006 C 
ATOM      4  C   LIG    1       27.422 -21.278   6.866  0.00  0.00    +0.000 C 
ATOM      5  C   LIG    1       26.985 -20.361   7.995  0.00  0.00    +0.000 C 
ATOM      6  C   LIG    1       25.471 -20.399   8.155  0.00  0.00    +0.000 C 
ATOM      7  C   LIG    1       24.903 -21.819   8.292  0.00  0.00    +0.006 C 
ENDBRANCH   1   2
BRANCH   1   8
ATOM      8  C   LIG    1       24.083 -21.713   5.418  0.00  0.00    -0.016 A 
ATOM      9  C   LIG    1       22.780 -21.282   5.715  0.00  0.00    +0.006 A 
ATOM     10  C   LIG    1       22.257 -20.089   5.195  0.00  0.00    +0.000 A 
ATOM     11  C   LIG    1       23.037 -19.295   4.351  0.00  0.00    +0.000 A 
ATOM     12  C   LIG    1       24.320 -19.701   4.032  0.00  0.00    +0.000 A 
ATOM     13  C   LIG    1       24.842 -20.895   4.549  0.00  0.00    +0.006 A 
ENDBRANCH   1   8
BRANCH   1  14
ATOM     14  O   LIG    1       25.505 -23.662   4.984  0.00  0.00    -0.384 OA
ATOM     15  H   LIG    1       25.907 -24.438   5.410  0.00  0.00    +0.211 HD
ENDBRANCH   1  14
BRANCH   1  16
ATOM     16  C   LIG    1       23.447 -24.060   6.155  0.00  0.00    +0.055 C 
BRANCH  16  17
ATOM     17  C   LIG    1       23.782 -25.461   6.703  0.00  0.00    +0.087 C 
BRANCH  17  18
ATOM     18  N   LIG    1       24.820 -26.146   5.895  0.00  0.00    -0.302 NA
ATOM     19  C   LIG    1       26.014 -26.481   6.685  0.00  0.00    +0.084 C 
ATOM     20  C   LIG    1       25.846 -27.689   7.612  0.00  0.00    +0.015 C 
ATOM     21  C   LIG    1       25.312 -28.915   6.879  0.00  0.00    +0.002 C 
ATOM     22  C   LIG    1       24.122 -28.575   5.989  0.00  0.00    +0.015 C 
ATOM     23  C   LIG    1       24.372 -27.327   5.142  0.00  0.00    +0.084 C 
ENDBRANCH  17  18
ENDBRANCH  16  17
ENDBRANCH   1  16
TORSDOF 6
ENDMDL
MODEL 5
REMARK VINA RESULT:      -8.1      1.726      5.781
REMARK  Name = *****
REMARK                            x       y       z     vdW  Elec       q    Type
REMARK                         _______ _______ _______ _____ _____    ______ ____
ROOT
ATOM      1  C   LIG    1       24.707 -21.496   6.723  0.00  0.00    +0.095 C 
ENDROOT
BRANCH   1   2
ATOM      2  C   LIG    1       23.981 -21.491   5.298  0.00  0.00    +0.025 C 
ATOM      3  C   LIG    1       22.531 -20.933   5.276  0.00  0.00    +0.006 C 
ATOM      4  C   LIG    1       22.435 -19.416   5.192  0.00  0.00    +0.000 C 
ATOM      5  C   LIG    1       23.101 -18.928   3.917  0.00  0.00    +0.000 C 
ATOM      6  C   LIG    1       24.566 -19.341   3.891  0.00  0.00    +0.000 C 
ATOM      7  C   LIG    1       24.786 -20.840   4.137  0.00  0.00    +0.006 C 
ENDBRANCH   1   2
BRANCH   1   8
ATOM      8  C   LIG    1       26.217 -21.163   6.615  0.00  0.00    -0.016 A 
ATOM      9  C   LIG    1       27.176 -21.848   7.379  0.00  0.00    +0.006 A 
ATOM     10  C   LIG    1       28.538 -21.516   7.329  0.00  0.00    +0.000 A 
ATOM     11  C   LIG    1       28.973 -20.473   6.508  0.00  0.00    +0.000 A 
ATOM     12  C   LIG    1       28.048 -19.773   5.754  0.00  0.00    +0.000 A 
ATOM     13  C   LIG    1       26.686 -20.103   5.805  0.00  0.00    +0.006 A 
ENDBRANCH   1   8
BRANCH   1  14
ATOM     14  O   LIG    1       24.041 -20.540   7.555  0.00  0.00    -0.384 OA
ATOM     15  H   LIG    1       24.423 -19.670   7.350  0.00  0.00    +0.211 HD
ENDBRANCH   1  14
BRANCH   1  16
ATOM     16  C   LIG    1       24.527 -22.887   7.408  0.00  0.00    +0.055 C 
BRANCH  16  17
ATOM     17  C   LIG    1       24.078 -24.065   6.520  0.00  0.00    +0.087 C 
BRANCH  17  18
ATOM     18  N   LIG    1       25.200 -24.635   5.735  0.00  0.00    -0.302 NA
ATOM     19  C   LIG    1       26.249 -25.207   6.592  0.00  0.00    +0.084 C 
ATOM     20  C   LIG    1       25.901 -26.567   7.204  0.00  0.00    +0.015 C 
ATOM     21  C   LIG    1       25.439 -27.575   6.157  0.00  0.00    +0.002 C 
ATOM     22  C   LIG    1       24.408 -26.979   5.206  0.00  0.00    +0.015 C 
ATOM     23  C   LIG    1       24.827 -25.601   4.691  0.00  0.00    +0.084 C 
ENDBRANCH  17  18
ENDBRANCH  16  17
ENDBRANCH   1  16
TORSDOF 6
ENDMDL
MODEL 6
REMARK VINA RESULT:      -7.9      2.132      6.029
REMARK  Name = *****
REMARK                            x       y       z     vdW  Elec       q    Type
REMARK                         _______ _______ _______ _____ _____    ______ ____
ROOT
ATOM      1  C   LIG    1       23.994 -22.557   6.866  0.00  0.00    +0.095 C 
ENDROOT
BRANCH   1   2
ATOM      2  C   LIG    1       23.579 -22.153   5.375  0.00  0.00    +0.025 C 
ATOM      3  C   LIG    1       22.354 -21.205   5.244  0.00  0.00    +0.006 C 
ATOM      4  C   LIG    1       22.673 -19.727   5.424  0.00  0.00    +0.000 C 
ATOM      5  C   LIG    1       23.672 -19.284   4.369  0.00  0.00    +0.000 C 
ATOM      6  C   LIG    1       24.957 -20.093   4.481  0.00  0.00    +0.000 C 
ATOM      7  C   LIG    1       24.730 -21.611   4.481  0.00  0.00    +0.006 C 
ENDBRANCH   1   2
BRANCH   1   8
ATOM      8  C   LIG    1       25.340 -21.918   7.294  0.00  0.00    -0.016 A 
ATOM      9  C   LIG    1       25.385 -20.711   8.011  0.00  0.00    +0.006 A 
ATOM     10  C   LIG    1       26.599 -20.097   8.352  0.00  0.00    +0.000 A 
ATOM     11  C   LIG    1       27.809 -20.683   7.972  0.00  0.00    +0.000 A 
ATOM     12  C   LIG    1       27.794 -21.866   7.255  0.00  0.00    +0.000 A 
ATOM     13  C   LIG    1       26.581 -22.479   6.910  0.00  0.00    +0.006 A 
ENDBRANCH   1   8
BRANCH   1  14
ATOM     14  O   LIG    1       22.940 -22.139   7.740  0.00  0.00    -0.384 OA
ATOM     15  H   LIG    1       23.326 -21.508   8.370  0.00  0.00    +0.211 HD
ENDBRANCH   1  14
BRANCH   1  16
ATOM     16  C   LIG    1       24.089 -24.109   6.990  0.00  0.00    +0.055 C 
BRANCH  16  17
ATOM     17  C   LIG    1       24.143 -24.927   5.685  0.00  0.00    +0.087 C 
BRANCH  17  18
ATOM     18  N   LIG    1       25.460 -25.580   5.486  0.00  0.00    -0.302 NA
ATOM     19  C   LIG    1       26.022 -26.100   6.741  0.00  0.00    +0.084 C 
ATOM     20  C   LIG    1       25.379 -27.399   7.237  0.00  0.00    +0.015 C 
ATOM     21  C   LIG    1       25.348 -28.480   6.162  0.00  0.00    +0.002 C 
ATOM     22  C   LIG    1       24.843 -27.944   4.828  0.00  0.00    +0.015 C 
ATOM     23  C   LIG    1       25.510 -26.620   4.448  0.00  0.00    +0.084 C 
ENDBRANCH  17  18
ENDBRANCH  16  17
ENDBRANCH   1  16
TORSDOF 6
ENDMDL
MODEL 7
REMARK VINA RESULT:      -7.9      1.884      5.767
REMARK  Name = *****
REMARK                            x       y       z     vdW  Elec       q    Type
REMARK                         _______ _______ _______ _____ _____    ______ ____
ROOT
ATOM      1  C   LIG    1       26.043 -21.777   7.349  0.00  0.00    +0.095 C 
ENDROOT
BRANCH   1   2
ATOM      2  C   LIG    1       24.731 -20.870   7.220  0.00  0.00    +0.025 C 
ATOM      3  C   LIG    1       24.499 -20.206   5.835  0.00  0.00    +0.006 C 
ATOM      4  C   LIG    1       23.828 -21.104   4.804  0.00  0.00    +0.000 C 
ATOM      5  C   LIG    1       22.462 -21.533   5.308  0.00  0.00    +0.000 C 
ATOM      6  C   LIG    1       22.593 -22.289   6.624  0.00  0.00    +0.000 C 
ATOM      7  C   LIG    1       23.405 -21.535   7.686  0.00  0.00    +0.006 C 
ENDBRANCH   1   2
BRANCH   1   8
ATOM      8  C   LIG    1       27.343 -20.968   7.108  0.00  0.00    -0.016 A 
ATOM      9  C   LIG    1       27.487 -20.127   5.992  0.00  0.00    +0.006 A 
ATOM     10  C   LIG    1       28.680 -19.436   5.735  0.00  0.00    +0.000 A 
ATOM     11  C   LIG    1       29.770 -19.579   6.598  0.00  0.00    +0.000 A 
ATOM     12  C   LIG    1       29.659 -20.410   7.698  0.00  0.00    +0.000 A 
ATOM     13  C   LIG    1       28.468 -21.104   7.954  0.00  0.00    +0.006 A 
ENDBRANCH   1   8
BRANCH   1  14
ATOM     14  O   LIG    1       26.046 -22.354   8.659  0.00  0.00    -0.384 OA
ATOM     15  H   LIG    1       25.126 -22.588   8.869  0.00  0.00    +0.211 HD
ENDBRANCH   1  14
BRANCH   1  16
ATOM     16  C   LIG    1       25.971 -22.963   6.338  0.00  0.00    +0.055 C 
BRANCH  16  17
ATOM     17  C   LIG    1       26.018 -24.394   6.912  0.00  0.00    +0.087 C 
BRANCH  17  18
ATOM     18  N   LIG    1       26.272 -25.411   5.863  0.00  0.00    -0.302 NA
ATOM     19  C   LIG    1       26.675 -26.708   6.427  0.00  0.00    +0.084 C 
ATOM     20  C   LIG    1       25.528 -27.523   7.031  0.00  0.00    +0.015 C 
ATOM     21  C   LIG    1       24.358 -27.685   6.066  0.00  0.00    +0.002 C 
ATOM     22  C   LIG    1       23.974 -26.365   5.408  0.00  0.00    +0.015 C 
ATOM     23  C   LIG    1       25.194 -25.606   4.883  0.00  0.00    +0.084 C 
ENDBRANCH  17  18
ENDBRANCH  16  17
ENDBRANCH   1  16
TORSDOF 6
ENDMDL
MODEL 8
REMARK VINA RESULT:      -7.8      2.401      4.935
REMARK  Name = *****
REMARK                            x       y       z     vdW  Elec       q    Type
REMARK                         _______ _______ _______ _____ _____    ______ ____
ROOT
ATOM      1  C   LIG    1       24.567 -23.083   6.226  0.00  0.00    +0.095 C 
ENDROOT
BRANCH   1   2
ATOM      2  C   LIG    1       24.634 -24.536   6.892  0.00  0.00    +0.025 C 
ATOM      3  C   LIG    1       23.697 -25.610   6.274  0.00  0.00    +0.006 C 
ATOM      4  C   LIG    1       24.246 -26.292   5.027  0.00  0.00    +0.000 C 
ATOM      5  C   LIG    1       25.548 -26.999   5.360  0.00  0.00    +0.000 C 
ATOM      6  C   LIG    1       26.575 -26.005   5.884  0.00  0.00    +0.000 C 
ATOM      7  C   LIG    1       26.059 -25.141   7.043  0.00  0.00    +0.006 C 
ENDBRANCH   1   2
BRANCH   1   8
ATOM      8  C   LIG    1       25.556 -22.089   6.887  0.00  0.00    -0.016 A 
ATOM      9  C   LIG    1       25.438 -21.725   8.238  0.00  0.00    +0.006 A 
ATOM     10  C   LIG    1       26.293 -20.783   8.829  0.00  0.00    +0.000 A 
ATOM     11  C   LIG    1       27.293 -20.173   8.067  0.00  0.00    +0.000 A 
ATOM     12  C   LIG    1       27.424 -20.503   6.730  0.00  0.00    +0.000 A 
ATOM     13  C   LIG    1       26.567 -21.443   6.138  0.00  0.00    +0.006 A 
ENDBRANCH   1   8
BRANCH   1  14
ATOM     14  O   LIG    1       24.856 -23.229   4.832  0.00  0.00    -0.384 OA
ATOM     15  H   LIG    1       25.306 -24.084   4.723  0.00  0.00    +0.211 HD
ENDBRANCH   1  14
BRANCH   1  16
ATOM     16  C   LIG    1       23.115 -22.519   6.326  0.00  0.00    +0.055 C 
BRANCH  16  17
ATOM     17  C   LIG    1       22.911 -21.020   6.025  0.00  0.00    +0.087 C 
BRANCH  17  18
ATOM     18  N   LIG    1       22.641 -20.769   4.588  0.00  0.00    -0.302 NA
ATOM     19  C   LIG    1       21.752 -19.617   4.379  0.00  0.00    +0.084 C 
ATOM     20  C   LIG    1       22.423 -18.252   4.559  0.00  0.00    +0.015 C 
ATOM     21  C   LIG    1       23.698 -18.117   3.733  0.00  0.00    +0.002 C 
ATOM     22  C   LIG    1       24.601 -19.337   3.872  0.00  0.00    +0.015 C 
ATOM     23  C   LIG    1       23.826 -20.648   3.725  0.00  0.00    +0.084 C 
ENDBRANCH  17  18
ENDBRANCH  16  17
ENDBRANCH   1  16
TORSDOF 6
ENDMDL
MODEL 9
REMARK VINA RESULT:      -7.6      1.573      2.542
REMARK  Name = *****
REMARK                            x       y       z     vdW  Elec       q    Type
REMARK                         _______ _______ _______ _____ _____    ______ ____
ROOT
ATOM      1  C   LIG    1       24.483 -23.371   6.513  0.00  0.00    +0.095 C 
ENDROOT
BRANCH   1   2
ATOM      2  C   LIG    1       25.252 -24.433   5.596  0.00  0.00    +0.025 C 
ATOM      3  C   LIG    1       26.428 -25.189   6.274  0.00  0.00    +0.006 C 
ATOM      4  C   LIG    1       26.013 -26.394   7.108  0.00  0.00    +0.000 C 
ATOM      5  C   LIG    1       25.302 -27.407   6.228  0.00  0.00    +0.000 C 
ATOM      6  C   LIG    1       24.066 -26.786   5.593  0.00  0.00    +0.000 C 
ATOM      7  C   LIG    1       24.349 -25.465   4.863  0.00  0.00    +0.006 C 
ENDBRANCH   1   2
BRANCH   1   8
ATOM      8  C   LIG    1       24.010 -22.134   5.706  0.00  0.00    -0.016 A 
ATOM      9  C   LIG    1       24.463 -21.894   4.399  0.00  0.00    +0.006 A 
ATOM     10  C   LIG    1       24.085 -20.748   3.683  0.00  0.00    +0.000 A 
ATOM     11  C   LIG    1       23.240 -19.804   4.272  0.00  0.00    +0.000 A 
ATOM     12  C   LIG    1       22.789 -20.009   5.563  0.00  0.00    +0.000 A 
ATOM     13  C   LIG    1       23.169 -21.153   6.281  0.00  0.00    +0.006 A 
ENDBRANCH   1   8
BRANCH   1  14
ATOM     14  O   LIG    1       23.367 -24.037   7.111  0.00  0.00    -0.384 OA
ATOM     15  H   LIG    1       23.120 -23.527   7.900  0.00  0.00    +0.211 HD
ENDBRANCH   1  14
BRANCH   1  16
ATOM     16  C   LIG    1       25.407 -22.909   7.682  0.00  0.00    +0.055 C 
BRANCH  16  17
ATOM     17  C   LIG    1       26.736 -22.221   7.312  0.00  0.00    +0.087 C 
BRANCH  17  18
ATOM     18  N   LIG    1       26.649 -20.743   7.409  0.00  0.00    -0.302 NA
ATOM     19  C   LIG    1       27.592 -20.191   8.394  0.00  0.00    +0.084 C 
ATOM     20  C   LIG    1       29.048 -20.139   7.922  0.00  0.00    +0.015 C 
ATOM     21  C   LIG    1       29.198 -19.447   6.572  0.00  0.00    +0.002 C 
ATOM     22  C   LIG    1       28.177 -19.948   5.557  0.00  0.00    +0.015 C 
ATOM     23  C   LIG    1       26.765 -20.009   6.141  0.00  0.00    +0.084 C 
ENDBRANCH  17  18
ENDBRANCH  16  17
ENDBRANCH   1  16
TORSDOF 6
ENDMDL
