MODEL 1
REMARK VINA RESULT:      -4.6      0.000      0.000
REMARK  Name = *****
REMARK                            x       y       z     vdW  Elec       q    Type
REMARK                         _______ _______ _______ _____ _____    ______ ____
ROOT
ATOM      1  C   LIG    1       30.872 -18.138   8.343  0.00  0.00    +0.122 C 
ENDROOT
BRANCH   1   3
ATOM      2  O   LIG    1       32.366 -17.971  10.213  0.00  0.00    -0.251 OA
ATOM      3  C   LIG    1       31.971 -17.494   9.155  0.00  0.00    +0.305 C 
BRANCH   3   4
ATOM      4  O   LIG    1       32.564 -16.414   8.629  0.00  0.00    -0.481 OA
ATOM      5  H   LIG    1       32.268 -16.189   7.713  0.00  0.00    +0.295 HD
ENDBRANCH   3   4
ENDBRANCH   1   3
BRANCH   1   6
ATOM      6  C   LIG    1       31.148 -19.487   7.668  0.00  0.00    +0.039 C 
BRANCH   6   7
ATOM      7  C   LIG    1       30.987 -20.696   8.585  0.00  0.00    +0.156 C 
BRANCH   7   8
ATOM      8  O   LIG    1       32.201 -20.916   9.291  0.00  0.00    -0.395 OA
ATOM      9  H   LIG    1       32.556 -20.034   9.528  0.00  0.00    +0.209 HD
ENDBRANCH   7   8
ENDBRANCH   6   7
ENDBRANCH   1   6
TORSDOF 5
ENDMDL
MODEL 2
REMARK VINA RESULT:      -4.5      1.832      2.243
REMARK  Name = *****
REMARK                            x       y       z     vdW  Elec       q    Type
REMARK                         _______ _______ _______ _____ _____    ______ ____
ROOT
ATOM      1  C   LIG    1       30.375 -17.388   9.197  0.00  0.00    +0.122 C 
ENDROOT
BRANCH   1   3
ATOM      2  O   LIG    1       30.295 -16.290  11.329  0.00  0.00    -0.251 OA
ATOM      3  C   LIG    1       30.474 -17.329  10.703  0.00  0.00    +0.305 C 
BRANCH   3   4
ATOM      4  O   LIG    1       30.685 -18.486  11.346  0.00  0.00    -0.481 OA
ATOM      5  H   LIG    1       29.892 -19.071  11.406  0.00  0.00    +0.295 HD
ENDBRANCH   3   4
ENDBRANCH   1   3
BRANCH   1   6
ATOM      6  C   LIG    1       30.033 -18.726   8.533  0.00  0.00    +0.039 C 
BRANCH   6   7
ATOM      7  C   LIG    1       31.239 -19.497   8.006  0.00  0.00    +0.156 C 
BRANCH   7   8
ATOM      8  O   LIG    1       32.043 -19.919   9.100  0.00  0.00    -0.395 OA
ATOM      9  H   LIG    1       31.592 -20.688   9.505  0.00  0.00    +0.209 HD
ENDBRANCH   7   8
ENDBRANCH   6   7
ENDBRANCH   1   6
TORSDOF 5
ENDMDL
MODEL 3
REMARK VINA RESULT:      -4.4      1.340      3.771
REMARK  Name = *****
REMARK                            x       y       z     vdW  Elec       q    Type
REMARK                         _______ _______ _______ _____ _____    ______ ____
ROOT
ATOM      1  C   LIG    1       30.376 -20.902   8.204  0.00  0.00    +0.122 C 
ENDROOT
BRANCH   1   3
ATOM      2  O   LIG    1       30.799 -22.052  10.267  0.00  0.00    -0.251 OA
ATOM      3  C   LIG    1       31.155 -21.818   9.116  0.00  0.00    +0.305 C 
BRANCH   3   4
ATOM      4  O   LIG    1       32.220 -22.440   8.591  0.00  0.00    -0.481 OA
ATOM      5  H   LIG    1       32.191 -22.542   7.609  0.00  0.00    +0.295 HD
ENDBRANCH   3   4
ENDBRANCH   1   3
BRANCH   1   6
ATOM      6  C   LIG    1       31.060 -19.640   7.666  0.00  0.00    +0.039 C 
BRANCH   6   7
ATOM      7  C   LIG    1       31.645 -18.732   8.743  0.00  0.00    +0.156 C 
BRANCH   7   8
ATOM      8  O   LIG    1       32.239 -17.595   8.129  0.00  0.00    -0.395 OA
ATOM      9  H   LIG    1       33.075 -17.416   8.608  0.00  0.00    +0.209 HD
ENDBRANCH   7   8
ENDBRANCH   6   7
ENDBRANCH   1   6
TORSDOF 5
ENDMDL
MODEL 4
REMARK VINA RESULT:      -4.4      1.464      3.281
REMARK  Name = *****
REMARK                            x       y       z     vdW  Elec       q    Type
REMARK                         _______ _______ _______ _____ _____    ______ ____
ROOT
ATOM      1  C   LIG    1       30.447 -18.078   9.295  0.00  0.00    +0.122 C 
ENDROOT
BRANCH   1   3
ATOM      2  O   LIG    1       31.981 -19.922   9.365  0.00  0.00    -0.251 OA
ATOM      3  C   LIG    1       31.549 -18.954   8.748  0.00  0.00    +0.305 C 
BRANCH   3   4
ATOM      4  O   LIG    1       31.986 -18.682   7.511  0.00  0.00    -0.481 OA
ATOM      5  H   LIG    1       31.514 -19.170   6.793  0.00  0.00    +0.295 HD
ENDBRANCH   3   4
ENDBRANCH   1   3
BRANCH   1   6
ATOM      6  C   LIG    1       30.828 -16.793  10.039  0.00  0.00    +0.039 C 
BRANCH   6   7
ATOM      7  C   LIG    1       32.324 -16.495  10.059  0.00  0.00    +0.156 C 
BRANCH   7   8
ATOM      8  O   LIG    1       32.698 -15.882   8.831  0.00  0.00    -0.395 OA
ATOM      9  H   LIG    1       32.820 -16.603   8.179  0.00  0.00    +0.209 HD
ENDBRANCH   7   8
ENDBRANCH   6   7
ENDBRANCH   1   6
TORSDOF 5
ENDMDL
MODEL 5
REMARK VINA RESULT:      -4.3      1.782      3.031
REMARK  Name = *****
REMARK                            x       y       z     vdW  Elec       q    Type
REMARK                         _______ _______ _______ _____ _____    ______ ____
ROOT
ATOM      1  C   LIG    1       30.474 -18.231   8.517  0.00  0.00    +0.122 C 
ENDROOT
BRANCH   1   3
ATOM      2  O   LIG    1       32.049 -19.909   9.197  0.00  0.00    -0.251 OA
ATOM      3  C   LIG    1       31.450 -19.357   8.279  0.00  0.00    +0.305 C 
BRANCH   3   4
ATOM      4  O   LIG    1       31.579 -19.796   7.019  0.00  0.00    -0.481 OA
ATOM      5  H   LIG    1       32.391 -19.477   6.555  0.00  0.00    +0.295 HD
ENDBRANCH   3   4
ENDBRANCH   1   3
BRANCH   1   6
ATOM      6  C   LIG    1       30.890 -17.078   9.438  0.00  0.00    +0.039 C 
BRANCH   6   7
ATOM      7  C   LIG    1       30.362 -17.188  10.865  0.00  0.00    +0.156 C 
BRANCH   7   8
ATOM      8  O   LIG    1       30.787 -18.422  11.431  0.00  0.00    -0.395 OA
ATOM      9  H   LIG    1       31.757 -18.360  11.553  0.00  0.00    +0.209 HD
ENDBRANCH   7   8
ENDBRANCH   6   7
ENDBRANCH   1   6
TORSDOF 5
ENDMDL
MODEL 6
REMARK VINA RESULT:      -4.3      1.966      3.679
REMARK  Name = *****
REMARK                            x       y       z     vdW  Elec       q    Type
REMARK                         _______ _______ _______ _____ _____    ______ ____
ROOT
ATOM      1  C   LIG    1       30.131 -21.157   8.122  0.00  0.00    +0.122 C 
ENDROOT
BRANCH   1   3
ATOM      2  O   LIG    1       32.211 -20.879   9.285  0.00  0.00    -0.251 OA
ATOM      3  C   LIG    1       31.144 -21.478   9.194  0.00  0.00    +0.305 C 
BRANCH   3   4
ATOM      4  O   LIG    1       30.796 -22.394  10.108  0.00  0.00    -0.481 OA
ATOM      5  H   LIG    1       29.946 -22.861   9.917  0.00  0.00    +0.295 HD
ENDBRANCH   3   4
ENDBRANCH   1   3
BRANCH   1   6
ATOM      6  C   LIG    1       29.660 -19.707   7.962  0.00  0.00    +0.039 C 
BRANCH   6   7
ATOM      7  C   LIG    1       30.476 -18.885   6.969  0.00  0.00    +0.156 C 
BRANCH   7   8
ATOM      8  O   LIG    1       31.636 -18.379   7.617  0.00  0.00    -0.395 OA
ATOM      9  H   LIG    1       32.072 -19.140   8.054  0.00  0.00    +0.209 HD
ENDBRANCH   7   8
ENDBRANCH   6   7
ENDBRANCH   1   6
TORSDOF 5
ENDMDL
MODEL 7
REMARK VINA RESULT:      -4.3      2.116      2.546
REMARK  Name = *****
REMARK                            x       y       z     vdW  Elec       q    Type
REMARK                         _______ _______ _______ _____ _____    ______ ____
ROOT
ATOM      1  C   LIG    1       30.138 -18.277   8.661  0.00  0.00    +0.122 C 
ENDROOT
BRANCH   1   3
ATOM      2  O   LIG    1       32.199 -19.330   9.291  0.00  0.00    -0.251 OA
ATOM      3  C   LIG    1       31.636 -18.342   8.830  0.00  0.00    +0.305 C 
BRANCH   3   4
ATOM      4  O   LIG    1       32.348 -17.302   8.375  0.00  0.00    -0.481 OA
ATOM      5  H   LIG    1       32.997 -16.935   9.022  0.00  0.00    +0.295 HD
ENDBRANCH   3   4
ENDBRANCH   1   3
BRANCH   1   6
ATOM      6  C   LIG    1       29.482 -19.123   7.564  0.00  0.00    +0.039 C 
BRANCH   6   7
ATOM      7  C   LIG    1       30.243 -19.143   6.242  0.00  0.00    +0.156 C 
BRANCH   7   8
ATOM      8  O   LIG    1       29.808 -18.059   5.431  0.00  0.00    -0.395 OA
ATOM      9  H   LIG    1       29.461 -18.446   4.601  0.00  0.00    +0.209 HD
ENDBRANCH   7   8
ENDBRANCH   6   7
ENDBRANCH   1   6
TORSDOF 5
ENDMDL
MODEL 8
REMARK VINA RESULT:      -4.3      2.295      3.813
REMARK  Name = *****
REMARK                            x       y       z     vdW  Elec       q    Type
REMARK                         _______ _______ _______ _____ _____    ______ ____
ROOT
ATOM      1  C   LIG    1       30.627 -17.796  10.147  0.00  0.00    +0.122 C 
ENDROOT
BRANCH   1   3
ATOM      2  O   LIG    1       32.158 -19.410   9.248  0.00  0.00    -0.251 OA
ATOM      3  C   LIG    1       31.752 -18.253   9.249  0.00  0.00    +0.305 C 
BRANCH   3   4
ATOM      4  O   LIG    1       32.242 -17.356   8.383  0.00  0.00    -0.481 OA
ATOM      5  H   LIG    1       33.055 -16.888   8.693  0.00  0.00    +0.295 HD
ENDBRANCH   3   4
ENDBRANCH   1   3
BRANCH   1   6
ATOM      6  C   LIG    1       30.790 -16.485  10.925  0.00  0.00    +0.039 C 
BRANCH   6   7
ATOM      7  C   LIG    1       31.726 -16.576  12.126  0.00  0.00    +0.156 C 
BRANCH   7   8
ATOM      8  O   LIG    1       31.477 -15.483  13.001  0.00  0.00    -0.395 OA
ATOM      9  H   LIG    1       32.344 -15.073  13.199  0.00  0.00    +0.209 HD
ENDBRANCH   7   8
ENDBRANCH   6   7
ENDBRANCH   1   6
TORSDOF 5
ENDMDL
MODEL 9
REMARK VINA RESULT:      -4.2      1.641      1.704
REMARK  Name = *****
REMARK                            x       y       z     vdW  Elec       q    Type
REMARK                         _______ _______ _______ _____ _____    ______ ____
ROOT
ATOM      1  C   LIG    1       30.222 -18.324   8.057  0.00  0.00    +0.122 C 
ENDROOT
BRANCH   1   3
ATOM      2  O   LIG    1       32.097 -19.332   9.165  0.00  0.00    -0.251 OA
ATOM      3  C   LIG    1       31.627 -18.344   8.609  0.00  0.00    +0.305 C 
BRANCH   3   4
ATOM      4  O   LIG    1       32.382 -17.258   8.394  0.00  0.00    -0.481 OA
ATOM      5  H   LIG    1       33.218 -17.230   8.921  0.00  0.00    +0.295 HD
ENDBRANCH   3   4
ENDBRANCH   1   3
BRANCH   1   6
ATOM      6  C   LIG    1       29.920 -19.118   6.781  0.00  0.00    +0.039 C 
BRANCH   6   7
ATOM      7  C   LIG    1       29.246 -20.466   7.021  0.00  0.00    +0.156 C 
BRANCH   7   8
ATOM      8  O   LIG    1       30.136 -21.317   7.732  0.00  0.00    -0.395 OA
ATOM      9  H   LIG    1       29.674 -21.589   8.552  0.00  0.00    +0.209 HD
ENDBRANCH   7   8
ENDBRANCH   6   7
ENDBRANCH   1   6
TORSDOF 5
ENDMDL
