MODEL 1
REMARK VINA RESULT:      27.4      0.000      0.000
REMARK  Name = *****
REMARK                            x       y       z     vdW  Elec       q    Type
REMARK                         _______ _______ _______ _____ _____    ______ ____
ROOT
ATOM      1  C   LIG    1       22.782 -16.129   5.400  0.00  0.00    +0.338 C 
ATOM      2  O   LIG    1       23.092 -16.383   6.553  0.00  0.00    -0.245 OA
ENDROOT
BRANCH   1   5
ATOM      3  C   LIG    1       21.383 -19.564   4.315  0.00  0.00    +0.065 C 
ATOM      4  C   LIG    1       22.392 -18.589   4.922  0.00  0.00    +0.096 C 
ATOM      5  C   LIG    1       22.143 -17.131   4.495  0.00  0.00    +0.065 C 
ATOM      6  C   LIG    1       21.314 -16.859   3.456  0.00  0.00    +0.016 C 
ATOM      7  C   LIG    1       20.982 -15.482   2.938  0.00  0.00    +0.061 C 
ATOM      8  N   LIG    1       20.638 -17.893   2.824  0.00  0.00    -0.321 N 
ATOM      9  H   LIG    1       19.968 -17.637   2.102  0.00  0.00    +0.152 HD
ATOM     10  C   LIG    1       20.554 -19.186   3.316  0.00  0.00    +0.016 C 
ATOM     11  C   LIG    1       19.498 -20.045   2.667  0.00  0.00    +0.061 C 
BRANCH   4  12
ATOM     12  C   LIG    1       23.846 -19.019   4.630  0.00  0.00    -0.029 A 
ATOM     13  C   LIG    1       24.607 -19.758   5.555  0.00  0.00    +0.088 A 
ATOM     14  C   LIG    1       25.933 -20.116   5.254  0.00  0.00    +0.273 A 
ATOM     15  C   LIG    1       26.505 -19.780   4.021  0.00  0.00    +0.084 A 
ATOM     16  C   LIG    1       25.752 -19.065   3.094  0.00  0.00    +0.007 A 
ATOM     17  C   LIG    1       24.443 -18.678   3.402  0.00  0.00    +0.005 A 
BRANCH  14  18
ATOM     18  N   LIG    1       26.738 -20.834   6.249  0.00  0.00    +0.080 N 
ATOM     19  O   LIG    1       27.967 -20.671   6.227  0.00  0.00    -0.576 OA
ATOM     20  O   LIG    1       26.145 -21.572   7.050  0.00  0.00    +0.041 OA
ENDBRANCH  14  18
ENDBRANCH   4  12
BRANCH   3  21
ATOM     21  C   LIG    1       21.470 -20.936   4.877  0.00  0.00    +0.337 C 
ATOM     22  O   LIG    1       20.713 -21.396   5.698  0.00  0.00    -0.245 OA
BRANCH  21  24
ATOM     23  C   LIG    1       23.091 -21.056   3.214  0.00  0.00    +0.280 C 
ATOM     24  O   LIG    1       22.702 -21.424   4.528  0.00  0.00    -0.465 OA
ENDBRANCH  21  24
ENDBRANCH   3  21
ENDBRANCH   1   5
BRANCH   1  25
ATOM     25  O   LIG    1       22.911 -14.908   4.830  0.00  0.00    -0.460 OA
BRANCH  25  26
ATOM     26  C   LIG    1       23.147 -14.888   3.406  0.00  0.00    +0.247 C 
BRANCH  26  27
ATOM     27  C   LIG    1       23.658 -13.507   2.957  0.00  0.00    +0.125 C 
BRANCH  27  28
ATOM     28  N   LIG    1       25.113 -13.318   3.115  0.00  0.00    -0.297 NA
ATOM     29  C   LIG    1       25.462 -12.638   4.383  0.00  0.00    +0.100 C 
ATOM     30  C   LIG    1       25.331 -13.510   5.667  0.00  0.00    +0.100 C 
ATOM     31  N   LIG    1       26.013 -14.833   5.621  0.00  0.00    -0.289 NA
ATOM     32  C   LIG    1       25.593 -15.478   4.352  0.00  0.00    +0.100 C 
ATOM     33  C   LIG    1       25.802 -14.626   3.082  0.00  0.00    +0.100 C 
BRANCH  31  34
ATOM     34  C   LIG    1       27.501 -14.709   5.761  0.00  0.00    +0.117 C 
BRANCH  34  35
ATOM     35  C   LIG    1       28.168 -13.701   4.790  0.00  0.00    -0.026 A 
ATOM     36  C   LIG    1       28.321 -13.937   3.410  0.00  0.00    +0.005 A 
ATOM     37  C   LIG    1       28.817 -12.947   2.552  0.00  0.00    +0.000 A 
ATOM     38  C   LIG    1       29.213 -11.713   3.060  0.00  0.00    +0.000 A 
ATOM     39  C   LIG    1       29.109 -11.469   4.426  0.00  0.00    +0.000 A 
ATOM     40  C   LIG    1       28.596 -12.451   5.283  0.00  0.00    +0.005 A 
ENDBRANCH  34  35
BRANCH  34  41
ATOM     41  C   LIG    1       28.204 -16.084   5.738  0.00  0.00    -0.026 A 
ATOM     42  C   LIG    1       28.482 -16.750   6.949  0.00  0.00    +0.005 A 
ATOM     43  C   LIG    1       29.098 -18.007   6.963  0.00  0.00    +0.000 A 
ATOM     44  C   LIG    1       29.470 -18.613   5.767  0.00  0.00    +0.000 A 
ATOM     45  C   LIG    1       29.183 -17.983   4.558  0.00  0.00    +0.000 A 
ATOM     46  C   LIG    1       28.537 -16.739   4.540  0.00  0.00    +0.005 A 
ENDBRANCH  34  41
ENDBRANCH  31  34
ENDBRANCH  27  28
ENDBRANCH  26  27
ENDBRANCH  25  26
ENDBRANCH   1  25
TORSDOF 12
ENDMDL
