MODEL 1
REMARK VINA RESULT:      -4.9      0.000      0.000
REMARK  Name = *****
REMARK                            x       y       z     vdW  Elec       q    Type
REMARK                         _______ _______ _______ _____ _____    ______ ____
ROOT
ATOM      1  C   LIG    1       26.245 -17.481   3.307  0.00  0.00    +0.161 C 
ENDROOT
BRANCH   1   2
ATOM      2  C   LIG    1       25.702 -16.060   3.401  0.00  0.00    -0.014 A 
ATOM      3  C   LIG    1       26.415 -14.961   2.890  0.00  0.00    +0.055 A 
ATOM      4  C   LIG    1       25.891 -13.681   3.007  0.00  0.00    +0.159 A 
ATOM      5  C   LIG    1       24.651 -13.467   3.590  0.00  0.00    +0.158 A 
ATOM      6  C   LIG    1       23.904 -14.539   4.065  0.00  0.00    +0.049 A 
ATOM      7  C   LIG    1       24.433 -15.833   3.967  0.00  0.00    +0.010 A 
BRANCH   4   8
ATOM      8  O   LIG    1       26.624 -12.626   2.540  0.00  0.00    -0.503 OA
ATOM      9  H   LIG    1       26.532 -12.680   1.567  0.00  0.00    +0.292 HD
ENDBRANCH   4   8
BRANCH   5  10
ATOM     10  O   LIG    1       24.202 -12.179   3.671  0.00  0.00    -0.503 OA
ATOM     11  H   LIG    1       24.809 -11.614   3.160  0.00  0.00    +0.292 HD
ENDBRANCH   5  10
ENDBRANCH   1   2
BRANCH   1  12
ATOM     12  O   LIG    1       27.612 -17.379   3.721  0.00  0.00    -0.386 OA
ATOM     13  H   LIG    1       27.612 -17.331   4.691  0.00  0.00    +0.210 HD
ENDBRANCH   1  12
BRANCH   1  14
ATOM     14  C   LIG    1       25.452 -18.569   4.134  0.00  0.00    +0.087 C 
BRANCH  14  16
ATOM     15  C   LIG    1       22.916 -19.121   4.158  0.00  0.00    +0.005 C 
ATOM     16  C   LIG    1       24.195 -19.019   3.333  0.00  0.00    +0.018 C 
ENDBRANCH  14  16
BRANCH  14  17
ATOM     17  N   LIG    1       26.205 -19.799   4.480  0.00  0.00    -0.308 NA
ATOM     18  H   LIG    1       25.862 -20.565   3.902  0.00  0.00    +0.122 HD
BRANCH  17  19
ATOM     19  C   LIG    1       26.179 -20.249   5.875  0.00  0.00    +0.048 C 
ATOM     20  C   LIG    1       27.638 -20.424   6.313  0.00  0.00    +0.024 C 
ATOM     21  C   LIG    1       25.435 -21.571   6.080  0.00  0.00    +0.024 C 
ENDBRANCH  17  19
ENDBRANCH  14  17
ENDBRANCH   1  14
TORSDOF 8
ENDMDL
MODEL 2
REMARK VINA RESULT:      -4.6      2.871      5.828
REMARK  Name = *****
REMARK                            x       y       z     vdW  Elec       q    Type
REMARK                         _______ _______ _______ _____ _____    ______ ____
ROOT
ATOM      1  C   LIG    1       23.148 -15.434   4.169  0.00  0.00    +0.161 C 
ENDROOT
BRANCH   1   2
ATOM      2  C   LIG    1       23.275 -16.953   4.152  0.00  0.00    -0.014 A 
ATOM      3  C   LIG    1       24.456 -17.590   3.732  0.00  0.00    +0.055 A 
ATOM      4  C   LIG    1       24.528 -18.977   3.719  0.00  0.00    +0.159 A 
ATOM      5  C   LIG    1       23.461 -19.751   4.150  0.00  0.00    +0.158 A 
ATOM      6  C   LIG    1       22.296 -19.148   4.610  0.00  0.00    +0.049 A 
ATOM      7  C   LIG    1       22.209 -17.749   4.611  0.00  0.00    +0.010 A 
BRANCH   4   8
ATOM      8  O   LIG    1       25.672 -19.571   3.267  0.00  0.00    -0.503 OA
ATOM      9  H   LIG    1       26.390 -19.113   3.751  0.00  0.00    +0.292 HD
ENDBRANCH   4   8
BRANCH   5  10
ATOM     10  O   LIG    1       23.605 -21.109   4.106  0.00  0.00    -0.503 OA
ATOM     11  H   LIG    1       23.533 -21.451   5.014  0.00  0.00    +0.292 HD
ENDBRANCH   5  10
ENDBRANCH   1   2
BRANCH   1  12
ATOM     12  O   LIG    1       22.756 -15.114   5.509  0.00  0.00    -0.386 OA
ATOM     13  H   LIG    1       23.228 -15.726   6.097  0.00  0.00    +0.210 HD
ENDBRANCH   1  12
BRANCH   1  14
ATOM     14  C   LIG    1       24.436 -14.638   3.719  0.00  0.00    +0.087 C 
BRANCH  14  16
ATOM     15  C   LIG    1       23.914 -12.096   3.647  0.00  0.00    +0.005 C 
ATOM     16  C   LIG    1       24.017 -13.404   2.868  0.00  0.00    +0.018 C 
ENDBRANCH  14  16
BRANCH  14  17
ATOM     17  N   LIG    1       25.302 -14.132   4.813  0.00  0.00    -0.308 NA
ATOM     18  H   LIG    1       25.173 -13.124   4.891  0.00  0.00    +0.122 HD
BRANCH  17  19
ATOM     19  C   LIG    1       26.742 -14.389   4.721  0.00  0.00    +0.048 C 
ATOM     20  C   LIG    1       27.444 -13.029   4.830  0.00  0.00    +0.024 C 
ATOM     21  C   LIG    1       27.163 -15.062   3.412  0.00  0.00    +0.024 C 
ENDBRANCH  17  19
ENDBRANCH  14  17
ENDBRANCH   1  14
TORSDOF 8
ENDMDL
MODEL 3
REMARK VINA RESULT:      -4.6      1.505      1.931
REMARK  Name = *****
REMARK                            x       y       z     vdW  Elec       q    Type
REMARK                         _______ _______ _______ _____ _____    ______ ____
ROOT
ATOM      1  C   LIG    1       24.643 -19.204   3.674  0.00  0.00    +0.161 C 
ENDROOT
BRANCH   1   2
ATOM      2  C   LIG    1       24.716 -17.683   3.721  0.00  0.00    -0.014 A 
ATOM      3  C   LIG    1       25.856 -16.984   3.286  0.00  0.00    +0.055 A 
ATOM      4  C   LIG    1       25.888 -15.598   3.358  0.00  0.00    +0.159 A 
ATOM      5  C   LIG    1       24.794 -14.882   3.821  0.00  0.00    +0.158 A 
ATOM      6  C   LIG    1       23.638 -15.543   4.217  0.00  0.00    +0.049 A 
ATOM      7  C   LIG    1       23.603 -16.943   4.164  0.00  0.00    +0.010 A 
BRANCH   4   8
ATOM      8  O   LIG    1       27.024 -14.946   2.968  0.00  0.00    -0.503 OA
ATOM      9  H   LIG    1       27.671 -15.664   2.810  0.00  0.00    +0.292 HD
ENDBRANCH   4   8
BRANCH   5  10
ATOM     10  O   LIG    1       24.901 -13.520   3.864  0.00  0.00    -0.503 OA
ATOM     11  H   LIG    1       25.623 -13.292   4.475  0.00  0.00    +0.292 HD
ENDBRANCH   5  10
ENDBRANCH   1   2
BRANCH   1  12
ATOM     12  O   LIG    1       25.629 -19.589   2.710  0.00  0.00    -0.386 OA
ATOM     13  H   LIG    1       25.284 -20.369   2.246  0.00  0.00    +0.210 HD
ENDBRANCH   1  12
BRANCH   1  14
ATOM     14  C   LIG    1       24.844 -19.939   5.058  0.00  0.00    +0.087 C 
BRANCH  14  16
ATOM     15  C   LIG    1       22.280 -20.341   5.022  0.00  0.00    +0.005 C 
ATOM     16  C   LIG    1       23.663 -20.922   5.305  0.00  0.00    +0.018 C 
ENDBRANCH  14  16
BRANCH  14  17
ATOM     17  N   LIG    1       26.095 -20.725   5.201  0.00  0.00    -0.308 NA
ATOM     18  H   LIG    1       25.851 -21.708   5.314  0.00  0.00    +0.122 HD
BRANCH  17  19
ATOM     19  C   LIG    1       27.009 -20.365   6.288  0.00  0.00    +0.048 C 
ATOM     20  C   LIG    1       28.182 -19.610   5.650  0.00  0.00    +0.024 C 
ATOM     21  C   LIG    1       27.554 -21.572   7.057  0.00  0.00    +0.024 C 
ENDBRANCH  17  19
ENDBRANCH  14  17
ENDBRANCH   1  14
TORSDOF 8
ENDMDL
MODEL 4
REMARK VINA RESULT:      -4.4      2.626      6.177
REMARK  Name = *****
REMARK                            x       y       z     vdW  Elec       q    Type
REMARK                         _______ _______ _______ _____ _____    ______ ____
ROOT
ATOM      1  C   LIG    1       27.135 -14.871   3.332  0.00  0.00    +0.161 C 
ENDROOT
BRANCH   1   2
ATOM      2  C   LIG    1       26.876 -16.349   3.600  0.00  0.00    -0.014 A 
ATOM      3  C   LIG    1       27.796 -17.144   4.306  0.00  0.00    +0.055 A 
ATOM      4  C   LIG    1       27.528 -18.490   4.519  0.00  0.00    +0.159 A 
ATOM      5  C   LIG    1       26.344 -19.061   4.076  0.00  0.00    +0.158 A 
ATOM      6  C   LIG    1       25.397 -18.289   3.413  0.00  0.00    +0.049 A 
ATOM      7  C   LIG    1       25.666 -16.934   3.179  0.00  0.00    +0.010 A 
BRANCH   4   8
ATOM      8  O   LIG    1       28.458 -19.249   5.171  0.00  0.00    -0.503 OA
ATOM      9  H   LIG    1       28.033 -19.472   6.024  0.00  0.00    +0.292 HD
ENDBRANCH   4   8
BRANCH   5  10
ATOM     10  O   LIG    1       26.151 -20.391   4.321  0.00  0.00    -0.503 OA
ATOM     11  H   LIG    1       25.289 -20.497   4.760  0.00  0.00    +0.292 HD
ENDBRANCH   5  10
ENDBRANCH   1   2
BRANCH   1  12
ATOM     12  O   LIG    1       26.726 -14.667   1.975  0.00  0.00    -0.386 OA
ATOM     13  H   LIG    1       26.239 -15.462   1.703  0.00  0.00    +0.210 HD
ENDBRANCH   1  12
BRANCH   1  14
ATOM     14  C   LIG    1       26.429 -13.865   4.325  0.00  0.00    +0.087 C 
BRANCH  14  16
ATOM     15  C   LIG    1       28.677 -12.568   4.386  0.00  0.00    +0.005 C 
ATOM     16  C   LIG    1       27.505 -13.135   5.181  0.00  0.00    +0.018 C 
ENDBRANCH  14  16
BRANCH  14  17
ATOM     17  N   LIG    1       25.592 -12.812   3.698  0.00  0.00    -0.308 NA
ATOM     18  H   LIG    1       25.887 -11.905   4.055  0.00  0.00    +0.122 HD
BRANCH  17  19
ATOM     19  C   LIG    1       24.138 -12.904   3.864  0.00  0.00    +0.048 C 
ATOM     20  C   LIG    1       23.735 -11.809   4.859  0.00  0.00    +0.024 C 
ATOM     21  C   LIG    1       23.666 -14.259   4.396  0.00  0.00    +0.024 C 
ENDBRANCH  17  19
ENDBRANCH  14  17
ENDBRANCH   1  14
TORSDOF 8
ENDMDL
MODEL 5
REMARK VINA RESULT:      -4.3      1.302      2.069
REMARK  Name = *****
REMARK                            x       y       z     vdW  Elec       q    Type
REMARK                         _______ _______ _______ _____ _____    ______ ____
ROOT
ATOM      1  C   LIG    1       24.964 -18.664   3.333  0.00  0.00    +0.161 C 
ENDROOT
BRANCH   1   2
ATOM      2  C   LIG    1       25.338 -17.195   3.486  0.00  0.00    -0.014 A 
ATOM      3  C   LIG    1       24.374 -16.213   3.776  0.00  0.00    +0.055 A 
ATOM      4  C   LIG    1       24.754 -14.883   3.895  0.00  0.00    +0.159 A 
ATOM      5  C   LIG    1       26.083 -14.506   3.767  0.00  0.00    +0.158 A 
ATOM      6  C   LIG    1       27.064 -15.461   3.523  0.00  0.00    +0.049 A 
ATOM      7  C   LIG    1       26.687 -16.803   3.385  0.00  0.00    +0.010 A 
BRANCH   4   8
ATOM      8  O   LIG    1       23.792 -13.944   4.135  0.00  0.00    -0.503 OA
ATOM      9  H   LIG    1       23.366 -13.807   3.264  0.00  0.00    +0.292 HD
ENDBRANCH   4   8
BRANCH   5  10
ATOM     10  O   LIG    1       26.380 -13.179   3.895  0.00  0.00    -0.503 OA
ATOM     11  H   LIG    1       26.158 -12.904   4.802  0.00  0.00    +0.292 HD
ENDBRANCH   5  10
ENDBRANCH   1   2
BRANCH   1  12
ATOM     12  O   LIG    1       25.951 -19.204   2.447  0.00  0.00    -0.386 OA
ATOM     13  H   LIG    1       25.499 -19.416   1.614  0.00  0.00    +0.210 HD
ENDBRANCH   1  12
BRANCH   1  14
ATOM     14  C   LIG    1       24.861 -19.484   4.681  0.00  0.00    +0.087 C 
BRANCH  14  16
ATOM     15  C   LIG    1       22.286 -19.440   5.008  0.00  0.00    +0.005 C 
ATOM     16  C   LIG    1       23.524 -20.281   4.706  0.00  0.00    +0.018 C 
ENDBRANCH  14  16
BRANCH  14  17
ATOM     17  N   LIG    1       25.949 -20.461   4.932  0.00  0.00    -0.308 NA
ATOM     18  H   LIG    1       25.546 -21.397   4.963  0.00  0.00    +0.122 HD
BRANCH  17  19
ATOM     19  C   LIG    1       26.761 -20.286   6.140  0.00  0.00    +0.048 C 
ATOM     20  C   LIG    1       28.139 -19.795   5.681  0.00  0.00    +0.024 C 
ATOM     21  C   LIG    1       26.936 -21.571   6.953  0.00  0.00    +0.024 C 
ENDBRANCH  17  19
ENDBRANCH  14  17
ENDBRANCH   1  14
TORSDOF 8
ENDMDL
MODEL 6
REMARK VINA RESULT:      -4.2      2.966      6.101
REMARK  Name = *****
REMARK                            x       y       z     vdW  Elec       q    Type
REMARK                         _______ _______ _______ _____ _____    ______ ____
ROOT
ATOM      1  C   LIG    1       23.217 -15.469   4.088  0.00  0.00    +0.161 C 
ENDROOT
BRANCH   1   2
ATOM      2  C   LIG    1       23.505 -16.965   4.071  0.00  0.00    -0.014 A 
ATOM      3  C   LIG    1       22.542 -17.908   4.474  0.00  0.00    +0.055 A 
ATOM      4  C   LIG    1       22.848 -19.262   4.455  0.00  0.00    +0.159 A 
ATOM      5  C   LIG    1       24.083 -19.709   4.009  0.00  0.00    +0.158 A 
ATOM      6  C   LIG    1       25.039 -18.803   3.564  0.00  0.00    +0.049 A 
ATOM      7  C   LIG    1       24.744 -17.433   3.595  0.00  0.00    +0.010 A 
BRANCH   4   8
ATOM      8  O   LIG    1       21.910 -20.154   4.893  0.00  0.00    -0.503 OA
ATOM      9  H   LIG    1       21.865 -20.825   4.182  0.00  0.00    +0.292 HD
ENDBRANCH   4   8
BRANCH   5  10
ATOM     10  O   LIG    1       24.312 -21.056   4.021  0.00  0.00    -0.503 OA
ATOM     11  H   LIG    1       24.464 -21.346   3.105  0.00  0.00    +0.292 HD
ENDBRANCH   5  10
ENDBRANCH   1   2
BRANCH   1  12
ATOM     12  O   LIG    1       22.753 -15.201   5.416  0.00  0.00    -0.386 OA
ATOM     13  H   LIG    1       21.829 -14.914   5.341  0.00  0.00    +0.210 HD
ENDBRANCH   1  12
BRANCH   1  14
ATOM     14  C   LIG    1       24.427 -14.539   3.680  0.00  0.00    +0.087 C 
BRANCH  14  16
ATOM     15  C   LIG    1       23.897 -12.010   3.929  0.00  0.00    +0.005 C 
ATOM     16  C   LIG    1       23.884 -13.237   3.021  0.00  0.00    +0.018 C 
ENDBRANCH  14  16
BRANCH  14  17
ATOM     17  N   LIG    1       25.326 -14.120   4.783  0.00  0.00    -0.308 NA
ATOM     18  H   LIG    1       25.190 -13.125   4.955  0.00  0.00    +0.122 HD
BRANCH  17  19
ATOM     19  C   LIG    1       26.765 -14.350   4.618  0.00  0.00    +0.048 C 
ATOM     20  C   LIG    1       27.474 -13.071   5.081  0.00  0.00    +0.024 C 
ATOM     21  C   LIG    1       27.176 -14.653   3.175  0.00  0.00    +0.024 C 
ENDBRANCH  17  19
ENDBRANCH  14  17
ENDBRANCH   1  14
TORSDOF 8
ENDMDL
MODEL 7
REMARK VINA RESULT:      -4.0      2.666      6.220
REMARK  Name = *****
REMARK                            x       y       z     vdW  Elec       q    Type
REMARK                         _______ _______ _______ _____ _____    ______ ____
ROOT
ATOM      1  C   LIG    1       27.085 -14.920   3.297  0.00  0.00    +0.161 C 
ENDROOT
BRANCH   1   2
ATOM      2  C   LIG    1       26.882 -16.392   3.631  0.00  0.00    -0.014 A 
ATOM      3  C   LIG    1       25.722 -17.085   3.241  0.00  0.00    +0.055 A 
ATOM      4  C   LIG    1       25.569 -18.424   3.576  0.00  0.00    +0.159 A 
ATOM      5  C   LIG    1       26.562 -19.106   4.263  0.00  0.00    +0.158 A 
ATOM      6  C   LIG    1       27.738 -18.458   4.625  0.00  0.00    +0.049 A 
ATOM      7  C   LIG    1       27.893 -17.103   4.305  0.00  0.00    +0.010 A 
BRANCH   4   8
ATOM      8  O   LIG    1       24.414 -19.061   3.222  0.00  0.00    -0.503 OA
ATOM      9  H   LIG    1       23.807 -18.898   3.973  0.00  0.00    +0.292 HD
ENDBRANCH   4   8
BRANCH   5  10
ATOM     10  O   LIG    1       26.339 -20.421   4.560  0.00  0.00    -0.503 OA
ATOM     11  H   LIG    1       26.722 -20.962   3.847  0.00  0.00    +0.292 HD
ENDBRANCH   5  10
ENDBRANCH   1   2
BRANCH   1  12
ATOM     12  O   LIG    1       26.547 -14.765   1.979  0.00  0.00    -0.386 OA
ATOM     13  H   LIG    1       25.732 -14.245   2.065  0.00  0.00    +0.210 HD
ENDBRANCH   1  12
BRANCH   1  14
ATOM     14  C   LIG    1       26.455 -13.896   4.322  0.00  0.00    +0.087 C 
BRANCH  14  16
ATOM     15  C   LIG    1       28.704 -12.599   4.281  0.00  0.00    +0.005 C 
ATOM     16  C   LIG    1       27.590 -13.203   5.132  0.00  0.00    +0.018 C 
ENDBRANCH  14  16
BRANCH  14  17
ATOM     17  N   LIG    1       25.625 -12.815   3.734  0.00  0.00    -0.308 NA
ATOM     18  H   LIG    1       25.910 -11.926   4.143  0.00  0.00    +0.122 HD
BRANCH  17  19
ATOM     19  C   LIG    1       24.170 -12.920   3.869  0.00  0.00    +0.048 C 
ATOM     20  C   LIG    1       23.730 -11.803   4.823  0.00  0.00    +0.024 C 
ATOM     21  C   LIG    1       23.700 -14.265   4.428  0.00  0.00    +0.024 C 
ENDBRANCH  17  19
ENDBRANCH  14  17
ENDBRANCH   1  14
TORSDOF 8
ENDMDL
MODEL 8
REMARK VINA RESULT:      -3.6      2.784      6.223
REMARK  Name = *****
REMARK                            x       y       z     vdW  Elec       q    Type
REMARK                         _______ _______ _______ _____ _____    ______ ____
ROOT
ATOM      1  C   LIG    1       26.608 -15.177   3.304  0.00  0.00    +0.161 C 
ENDROOT
BRANCH   1   2
ATOM      2  C   LIG    1       25.670 -16.369   3.460  0.00  0.00    -0.014 A 
ATOM      3  C   LIG    1       26.116 -17.689   3.271  0.00  0.00    +0.055 A 
ATOM      4  C   LIG    1       25.227 -18.747   3.411  0.00  0.00    +0.159 A 
ATOM      5  C   LIG    1       23.906 -18.526   3.772  0.00  0.00    +0.158 A 
ATOM      6  C   LIG    1       23.448 -17.235   4.007  0.00  0.00    +0.049 A 
ATOM      7  C   LIG    1       24.334 -16.160   3.852  0.00  0.00    +0.010 A 
BRANCH   4   8
ATOM      8  O   LIG    1       25.675 -20.016   3.180  0.00  0.00    -0.503 OA
ATOM      9  H   LIG    1       26.595 -20.012   3.516  0.00  0.00    +0.292 HD
ENDBRANCH   4   8
BRANCH   5  10
ATOM     10  O   LIG    1       23.090 -19.616   3.888  0.00  0.00    -0.503 OA
ATOM     11  H   LIG    1       22.917 -19.962   2.995  0.00  0.00    +0.292 HD
ENDBRANCH   5  10
ENDBRANCH   1   2
BRANCH   1  12
ATOM     12  O   LIG    1       26.460 -14.771   1.939  0.00  0.00    -0.386 OA
ATOM     13  H   LIG    1       25.985 -13.925   1.944  0.00  0.00    +0.210 HD
ENDBRANCH   1  12
BRANCH   1  14
ATOM     14  C   LIG    1       26.365 -13.984   4.310  0.00  0.00    +0.087 C 
BRANCH  14  16
ATOM     15  C   LIG    1       28.595 -12.662   4.183  0.00  0.00    +0.005 C 
ATOM     16  C   LIG    1       27.707 -13.599   4.997  0.00  0.00    +0.018 C 
ENDBRANCH  14  16
BRANCH  14  17
ATOM     17  N   LIG    1       25.811 -12.739   3.721  0.00  0.00    -0.308 NA
ATOM     18  H   LIG    1       26.202 -11.941   4.219  0.00  0.00    +0.122 HD
BRANCH  17  19
ATOM     19  C   LIG    1       24.354 -12.581   3.701  0.00  0.00    +0.048 C 
ATOM     20  C   LIG    1       23.960 -12.283   2.249  0.00  0.00    +0.024 C 
ATOM     21  C   LIG    1       23.847 -11.448   4.596  0.00  0.00    +0.024 C 
ENDBRANCH  17  19
ENDBRANCH  14  17
ENDBRANCH   1  14
TORSDOF 8
ENDMDL
MODEL 9
REMARK VINA RESULT:      -3.5      3.486      5.761
REMARK  Name = *****
REMARK                            x       y       z     vdW  Elec       q    Type
REMARK                         _______ _______ _______ _____ _____    ______ ____
ROOT
ATOM      1  C   LIG    1       24.317 -20.341   3.829  0.00  0.00    +0.161 C 
ENDROOT
BRANCH   1   2
ATOM      2  C   LIG    1       25.573 -20.232   4.686  0.00  0.00    -0.014 A 
ATOM      3  C   LIG    1       26.594 -19.312   4.386  0.00  0.00    +0.055 A 
ATOM      4  C   LIG    1       27.729 -19.252   5.184  0.00  0.00    +0.159 A 
ATOM      5  C   LIG    1       27.859 -20.063   6.302  0.00  0.00    +0.158 A 
ATOM      6  C   LIG    1       26.846 -20.951   6.647  0.00  0.00    +0.049 A 
ATOM      7  C   LIG    1       25.705 -21.030   5.838  0.00  0.00    +0.010 A 
BRANCH   4   8
ATOM      8  O   LIG    1       28.724 -18.380   4.845  0.00  0.00    -0.503 OA
ATOM      9  H   LIG    1       29.549 -18.854   5.078  0.00  0.00    +0.292 HD
ENDBRANCH   4   8
BRANCH   5  10
ATOM     10  O   LIG    1       29.004 -19.949   7.038  0.00  0.00    -0.503 OA
ATOM     11  H   LIG    1       28.833 -19.333   7.772  0.00  0.00    +0.292 HD
ENDBRANCH   5  10
ENDBRANCH   1   2
BRANCH   1  12
ATOM     12  O   LIG    1       24.475 -21.564   3.101  0.00  0.00    -0.386 OA
ATOM     13  H   LIG    1       23.813 -21.559   2.392  0.00  0.00    +0.210 HD
ENDBRANCH   1  12
BRANCH   1  14
ATOM     14  C   LIG    1       22.949 -20.290   4.618  0.00  0.00    +0.087 C 
BRANCH  14  16
ATOM     15  C   LIG    1       23.058 -21.160   7.061  0.00  0.00    +0.005 C 
ATOM     16  C   LIG    1       22.860 -21.505   5.588  0.00  0.00    +0.018 C 
ENDBRANCH  14  16
BRANCH  14  17
ATOM     17  N   LIG    1       22.713 -19.072   5.432  0.00  0.00    -0.308 NA
ATOM     18  H   LIG    1       22.238 -19.341   6.292  0.00  0.00    +0.122 HD
BRANCH  17  19
ATOM     19  C   LIG    1       21.947 -17.980   4.823  0.00  0.00    +0.048 C 
ATOM     20  C   LIG    1       21.208 -18.575   3.618  0.00  0.00    +0.024 C 
ATOM     21  C   LIG    1       22.814 -16.812   4.348  0.00  0.00    +0.024 C 
ENDBRANCH  17  19
ENDBRANCH  14  17
ENDBRANCH   1  14
TORSDOF 8
ENDMDL
