MODEL 1
REMARK VINA RESULT:      -8.2      0.000      0.000
REMARK  Name = *****
REMARK                            x       y       z     vdW  Elec       q    Type
REMARK                         _______ _______ _______ _____ _____    ______ ____
ROOT
ATOM      1  C   LIG    1       29.493 -21.262   7.818  0.00  0.00    +0.036 C 
ATOM      2  C   LIG    1       28.215 -20.466   7.545  0.00  0.00    +0.140 C 
ENDROOT
BRANCH   2   3
ATOM      3  C   LIG    1       26.980 -21.331   7.428  0.00  0.00    +0.013 A 
ATOM      4  S   LIG    1       25.437 -20.618   7.642  0.00  0.00    -0.091 S 
ATOM      5  C   LIG    1       24.610 -22.070   7.240  0.00  0.00    +0.020 A 
ATOM      6  C   LIG    1       25.502 -23.116   7.005  0.00  0.00    -0.011 A 
ATOM      7  C   LIG    1       24.973 -24.385   6.668  0.00  0.00    +0.009 A 
ATOM      8  C   LIG    1       23.591 -24.571   6.566  0.00  0.00    +0.001 A 
ATOM      9  C   LIG    1       22.723 -23.512   6.795  0.00  0.00    +0.001 A 
ATOM     10  C   LIG    1       23.216 -22.251   7.139  0.00  0.00    +0.015 A 
ATOM     11  C   LIG    1       26.864 -22.675   7.131  0.00  0.00    +0.021 A 
ENDBRANCH   2   3
BRANCH   2  12
ATOM     12  N   LIG    1       28.333 -19.640   6.337  0.00  0.00    -0.160 N 
ATOM     13  C   LIG    1       29.308 -18.679   6.199  0.00  0.00    +0.323 C 
ATOM     14  O   LIG    1       30.063 -18.294   7.082  0.00  0.00    -0.251 OA
ATOM     15  N   LIG    1       29.383 -18.154   4.940  0.00  0.00    -0.312 N 
ATOM     16  H   LIG    1       30.012 -17.361   4.889  0.00  0.00    +0.146 HD
ATOM     17  H   LIG    1       28.477 -17.987   4.514  0.00  0.00    +0.146 HD
BRANCH  12  18
ATOM     18  O   LIG    1       27.913 -20.291   5.145  0.00  0.00    -0.291 OA
ATOM     19  H   LIG    1       26.988 -19.984   5.062  0.00  0.00    +0.242 HD
ENDBRANCH  12  18
ENDBRANCH   2  12
TORSDOF 3
ENDMDL
MODEL 2
REMARK VINA RESULT:      -8.0      3.260      5.959
REMARK  Name = *****
REMARK                            x       y       z     vdW  Elec       q    Type
REMARK                         _______ _______ _______ _____ _____    ______ ____
ROOT
ATOM      1  C   LIG    1       23.703 -20.708   6.254  0.00  0.00    +0.036 C 
ATOM      2  C   LIG    1       24.802 -21.746   6.490  0.00  0.00    +0.140 C 
ENDROOT
BRANCH   2   3
ATOM      3  C   LIG    1       26.176 -21.138   6.670  0.00  0.00    +0.013 A 
ATOM      4  S   LIG    1       27.186 -21.714   7.927  0.00  0.00    -0.091 S 
ATOM      5  C   LIG    1       28.511 -20.736   7.434  0.00  0.00    +0.020 A 
ATOM      6  C   LIG    1       28.169 -19.923   6.354  0.00  0.00    -0.011 A 
ATOM      7  C   LIG    1       29.155 -19.050   5.834  0.00  0.00    +0.009 A 
ATOM      8  C   LIG    1       30.437 -19.019   6.390  0.00  0.00    +0.001 A 
ATOM      9  C   LIG    1       30.756 -19.845   7.460  0.00  0.00    +0.001 A 
ATOM     10  C   LIG    1       29.801 -20.709   7.999  0.00  0.00    +0.015 A 
ATOM     11  C   LIG    1       26.815 -20.158   5.935  0.00  0.00    +0.021 A 
ENDBRANCH   2   3
BRANCH   2  12
ATOM     12  N   LIG    1       24.859 -22.738   5.409  0.00  0.00    -0.160 N 
ATOM     13  C   LIG    1       24.964 -24.086   5.657  0.00  0.00    +0.323 C 
ATOM     14  O   LIG    1       25.177 -24.598   6.749  0.00  0.00    -0.251 OA
ATOM     15  N   LIG    1       24.805 -24.861   4.543  0.00  0.00    -0.312 N 
ATOM     16  H   LIG    1       25.015 -25.837   4.719  0.00  0.00    +0.146 HD
ATOM     17  H   LIG    1       25.262 -24.486   3.718  0.00  0.00    +0.146 HD
BRANCH  12  18
ATOM     18  O   LIG    1       24.144 -22.363   4.239  0.00  0.00    -0.291 OA
ATOM     19  H   LIG    1       23.239 -22.668   4.448  0.00  0.00    +0.242 HD
ENDBRANCH  12  18
ENDBRANCH   2  12
TORSDOF 3
ENDMDL
MODEL 3
REMARK VINA RESULT:      -7.9      1.984      2.814
REMARK  Name = *****
REMARK                            x       y       z     vdW  Elec       q    Type
REMARK                         _______ _______ _______ _____ _____    ______ ____
ROOT
ATOM      1  C   LIG    1       29.264 -18.519   5.675  0.00  0.00    +0.036 C 
ATOM      2  C   LIG    1       29.141 -19.882   6.360  0.00  0.00    +0.140 C 
ENDROOT
BRANCH   2   3
ATOM      3  C   LIG    1       27.730 -20.427   6.365  0.00  0.00    +0.013 A 
ATOM      4  S   LIG    1       27.343 -21.735   7.401  0.00  0.00    -0.091 S 
ATOM      5  C   LIG    1       25.674 -21.687   6.989  0.00  0.00    +0.020 A 
ATOM      6  C   LIG    1       25.418 -20.720   6.017  0.00  0.00    -0.011 A 
ATOM      7  C   LIG    1       24.086 -20.562   5.565  0.00  0.00    +0.009 A 
ATOM      8  C   LIG    1       23.060 -21.352   6.093  0.00  0.00    +0.001 A 
ATOM      9  C   LIG    1       23.340 -22.301   7.068  0.00  0.00    +0.001 A 
ATOM     10  C   LIG    1       24.646 -22.486   7.526  0.00  0.00    +0.015 A 
ATOM     11  C   LIG    1       26.616 -20.014   5.659  0.00  0.00    +0.021 A 
ENDBRANCH   2   3
BRANCH   2  12
ATOM     12  N   LIG    1       29.642 -19.848   7.739  0.00  0.00    -0.160 N 
ATOM     13  C   LIG    1       30.981 -19.722   8.029  0.00  0.00    +0.323 C 
ATOM     14  O   LIG    1       31.897 -19.782   7.219  0.00  0.00    -0.251 OA
ATOM     15  N   LIG    1       31.235 -19.511   9.355  0.00  0.00    -0.312 N 
ATOM     16  H   LIG    1       32.225 -19.552   9.568  0.00  0.00    +0.146 HD
ATOM     17  H   LIG    1       30.659 -20.073   9.974  0.00  0.00    +0.146 HD
BRANCH  12  18
ATOM     18  O   LIG    1       28.736 -19.276   8.673  0.00  0.00    -0.291 OA
ATOM     19  H   LIG    1       29.229 -19.360   9.513  0.00  0.00    +0.242 HD
ENDBRANCH  12  18
ENDBRANCH   2  12
TORSDOF 3
ENDMDL
MODEL 4
REMARK VINA RESULT:      -7.8      3.276      5.908
REMARK  Name = *****
REMARK                            x       y       z     vdW  Elec       q    Type
REMARK                         _______ _______ _______ _____ _____    ______ ____
ROOT
ATOM      1  C   LIG    1       23.991 -21.221   7.210  0.00  0.00    +0.036 C 
ATOM      2  C   LIG    1       25.142 -22.206   6.993  0.00  0.00    +0.140 C 
ENDROOT
BRANCH   2   3
ATOM      3  C   LIG    1       26.499 -21.542   6.931  0.00  0.00    +0.013 A 
ATOM      4  S   LIG    1       26.765 -20.289   5.794  0.00  0.00    -0.091 S 
ATOM      5  C   LIG    1       28.346 -19.963   6.386  0.00  0.00    +0.020 A 
ATOM      6  C   LIG    1       28.700 -20.847   7.406  0.00  0.00    -0.011 A 
ATOM      7  C   LIG    1       29.980 -20.713   7.995  0.00  0.00    +0.009 A 
ATOM      8  C   LIG    1       30.855 -19.710   7.565  0.00  0.00    +0.001 A 
ATOM      9  C   LIG    1       30.476 -18.836   6.555  0.00  0.00    +0.001 A 
ATOM     10  C   LIG    1       29.223 -18.951   5.949  0.00  0.00    +0.015 A 
ATOM     11  C   LIG    1       27.628 -21.759   7.697  0.00  0.00    +0.021 A 
ENDBRANCH   2   3
BRANCH   2  12
ATOM     12  N   LIG    1       24.951 -23.012   5.780  0.00  0.00    -0.160 N 
ATOM     13  C   LIG    1       25.221 -24.360   5.746  0.00  0.00    +0.323 C 
ATOM     14  O   LIG    1       25.781 -25.000   6.627  0.00  0.00    -0.251 OA
ATOM     15  N   LIG    1       24.799 -24.973   4.600  0.00  0.00    -0.312 N 
ATOM     16  H   LIG    1       25.121 -25.931   4.535  0.00  0.00    +0.146 HD
ATOM     17  H   LIG    1       24.966 -24.426   3.761  0.00  0.00    +0.146 HD
BRANCH  12  18
ATOM     18  O   LIG    1       23.899 -22.555   4.939  0.00  0.00    -0.291 OA
ATOM     19  H   LIG    1       23.235 -22.253   5.590  0.00  0.00    +0.242 HD
ENDBRANCH  12  18
ENDBRANCH   2  12
TORSDOF 3
ENDMDL
MODEL 5
REMARK VINA RESULT:      -7.6      5.281      7.199
REMARK  Name = *****
REMARK                            x       y       z     vdW  Elec       q    Type
REMARK                         _______ _______ _______ _____ _____    ______ ____
ROOT
ATOM      1  C   LIG    1       26.240 -27.152   4.862  0.00  0.00    +0.036 C 
ATOM      2  C   LIG    1       24.980 -26.986   5.714  0.00  0.00    +0.140 C 
ENDROOT
BRANCH   2   3
ATOM      3  C   LIG    1       24.767 -25.572   6.206  0.00  0.00    +0.013 A 
ATOM      4  S   LIG    1       26.127 -24.617   6.618  0.00  0.00    -0.091 S 
ATOM      5  C   LIG    1       25.171 -23.218   6.910  0.00  0.00    +0.020 A 
ATOM      6  C   LIG    1       23.811 -23.490   6.756  0.00  0.00    -0.011 A 
ATOM      7  C   LIG    1       22.889 -22.437   6.970  0.00  0.00    +0.009 A 
ATOM      8  C   LIG    1       23.341 -21.160   7.316  0.00  0.00    +0.001 A 
ATOM      9  C   LIG    1       24.701 -20.911   7.453  0.00  0.00    +0.001 A 
ATOM     10  C   LIG    1       25.632 -21.933   7.258  0.00  0.00    +0.015 A 
ATOM     11  C   LIG    1       23.596 -24.855   6.364  0.00  0.00    +0.021 A 
ENDBRANCH   2   3
BRANCH   2  12
ATOM     12  N   LIG    1       24.976 -27.896   6.867  0.00  0.00    -0.160 N 
ATOM     13  C   LIG    1       24.321 -29.105   6.843  0.00  0.00    +0.323 C 
ATOM     14  O   LIG    1       23.560 -29.489   5.964  0.00  0.00    -0.251 OA
ATOM     15  N   LIG    1       24.592 -29.894   7.925  0.00  0.00    -0.312 N 
ATOM     16  H   LIG    1       24.004 -30.719   7.957  0.00  0.00    +0.146 HD
ATOM     17  H   LIG    1       24.630 -29.383   8.802  0.00  0.00    +0.146 HD
BRANCH  12  18
ATOM     18  O   LIG    1       26.150 -27.827   7.665  0.00  0.00    -0.291 OA
ATOM     19  H   LIG    1       26.856 -27.943   6.998  0.00  0.00    +0.242 HD
ENDBRANCH  12  18
ENDBRANCH   2  12
TORSDOF 3
ENDMDL
MODEL 6
REMARK VINA RESULT:      -7.4      3.084      5.785
REMARK  Name = *****
REMARK                            x       y       z     vdW  Elec       q    Type
REMARK                         _______ _______ _______ _____ _____    ______ ____
ROOT
ATOM      1  C   LIG    1       24.538 -22.860   6.873  0.00  0.00    +0.036 C 
ATOM      2  C   LIG    1       24.979 -21.695   5.985  0.00  0.00    +0.140 C 
ENDROOT
BRANCH   2   3
ATOM      3  C   LIG    1       26.334 -21.134   6.356  0.00  0.00    +0.013 A 
ATOM      4  S   LIG    1       27.216 -21.857   7.635  0.00  0.00    -0.091 S 
ATOM      5  C   LIG    1       28.589 -20.855   7.375  0.00  0.00    +0.020 A 
ATOM      6  C   LIG    1       28.357 -19.927   6.360  0.00  0.00    -0.011 A 
ATOM      7  C   LIG    1       29.394 -19.021   6.030  0.00  0.00    +0.009 A 
ATOM      8  C   LIG    1       30.618 -19.072   6.705  0.00  0.00    +0.001 A 
ATOM      9  C   LIG    1       30.828 -20.011   7.705  0.00  0.00    +0.001 A 
ATOM     10  C   LIG    1       29.820 -20.911   8.058  0.00  0.00    +0.015 A 
ATOM     11  C   LIG    1       27.047 -20.094   5.793  0.00  0.00    +0.021 A 
ENDBRANCH   2   3
BRANCH   2  12
ATOM     12  N   LIG    1       23.996 -20.604   5.987  0.00  0.00    -0.160 N 
ATOM     13  C   LIG    1       23.460 -20.100   4.825  0.00  0.00    +0.323 C 
ATOM     14  O   LIG    1       23.833 -20.368   3.689  0.00  0.00    -0.251 OA
ATOM     15  N   LIG    1       22.425 -19.232   5.032  0.00  0.00    -0.312 N 
ATOM     16  H   LIG    1       22.131 -18.773   4.178  0.00  0.00    +0.146 HD
ATOM     17  H   LIG    1       22.577 -18.597   5.808  0.00  0.00    +0.146 HD
BRANCH  12  18
ATOM     18  O   LIG    1       23.157 -20.580   7.134  0.00  0.00    -0.291 OA
ATOM     19  H   LIG    1       23.030 -19.620   7.272  0.00  0.00    +0.242 HD
ENDBRANCH  12  18
ENDBRANCH   2  12
TORSDOF 3
ENDMDL
MODEL 7
REMARK VINA RESULT:      -7.4      2.388      3.345
REMARK  Name = *****
REMARK                            x       y       z     vdW  Elec       q    Type
REMARK                         _______ _______ _______ _____ _____    ______ ____
ROOT
ATOM      1  C   LIG    1       26.626 -20.371   7.690  0.00  0.00    +0.036 C 
ATOM      2  C   LIG    1       25.627 -20.844   6.632  0.00  0.00    +0.140 C 
ENDROOT
BRANCH   2   3
ATOM      3  C   LIG    1       25.422 -22.343   6.624  0.00  0.00    +0.013 A 
ATOM      4  S   LIG    1       23.911 -22.977   6.126  0.00  0.00    -0.091 S 
ATOM      5  C   LIG    1       24.457 -24.604   6.231  0.00  0.00    +0.020 A 
ATOM      6  C   LIG    1       25.767 -24.672   6.705  0.00  0.00    -0.011 A 
ATOM      7  C   LIG    1       26.359 -25.949   6.855  0.00  0.00    +0.009 A 
ATOM      8  C   LIG    1       25.645 -27.104   6.523  0.00  0.00    +0.001 A 
ATOM      9  C   LIG    1       24.345 -27.010   6.043  0.00  0.00    +0.001 A 
ATOM     10  C   LIG    1       23.732 -25.765   5.894  0.00  0.00    +0.015 A 
ATOM     11  C   LIG    1       26.302 -23.360   6.940  0.00  0.00    +0.021 A 
ENDBRANCH   2   3
BRANCH   2  12
ATOM     12  N   LIG    1       26.013 -20.411   5.283  0.00  0.00    -0.160 N 
ATOM     13  C   LIG    1       25.126 -19.797   4.429  0.00  0.00    +0.323 C 
ATOM     14  O   LIG    1       23.920 -19.685   4.610  0.00  0.00    -0.251 OA
ATOM     15  N   LIG    1       25.712 -19.291   3.304  0.00  0.00    -0.312 N 
ATOM     16  H   LIG    1       25.031 -18.963   2.629  0.00  0.00    +0.146 HD
ATOM     17  H   LIG    1       26.422 -19.899   2.907  0.00  0.00    +0.146 HD
BRANCH  12  18
ATOM     18  O   LIG    1       27.375 -20.024   5.165  0.00  0.00    -0.291 OA
ATOM     19  H   LIG    1       27.409 -19.224   5.727  0.00  0.00    +0.242 HD
ENDBRANCH  12  18
ENDBRANCH   2  12
TORSDOF 3
ENDMDL
MODEL 8
REMARK VINA RESULT:      -7.3      2.616      3.296
REMARK  Name = *****
REMARK                            x       y       z     vdW  Elec       q    Type
REMARK                         _______ _______ _______ _____ _____    ______ ____
ROOT
ATOM      1  C   LIG    1       30.679 -20.889   7.876  0.00  0.00    +0.036 C 
ATOM      2  C   LIG    1       29.591 -20.003   8.486  0.00  0.00    +0.140 C 
ENDROOT
BRANCH   2   3
ATOM      3  C   LIG    1       28.258 -20.113   7.780  0.00  0.00    +0.013 A 
ATOM      4  S   LIG    1       28.197 -19.928   6.078  0.00  0.00    -0.091 S 
ATOM      5  C   LIG    1       26.521 -20.306   6.006  0.00  0.00    +0.020 A 
ATOM      6  C   LIG    1       25.990 -20.512   7.279  0.00  0.00    -0.011 A 
ATOM      7  C   LIG    1       24.614 -20.827   7.389  0.00  0.00    +0.009 A 
ATOM      8  C   LIG    1       23.820 -20.937   6.243  0.00  0.00    +0.001 A 
ATOM      9  C   LIG    1       24.374 -20.738   4.986  0.00  0.00    +0.001 A 
ATOM     10  C   LIG    1       25.726 -20.416   4.848  0.00  0.00    +0.015 A 
ATOM     11  C   LIG    1       27.003 -20.383   8.291  0.00  0.00    +0.021 A 
ENDBRANCH   2   3
BRANCH   2  12
ATOM     12  N   LIG    1       29.993 -18.591   8.526  0.00  0.00    -0.160 N 
ATOM     13  C   LIG    1       30.400 -17.978   9.688  0.00  0.00    +0.323 C 
ATOM     14  O   LIG    1       30.330 -18.458  10.812  0.00  0.00    -0.251 OA
ATOM     15  N   LIG    1       30.920 -16.730   9.493  0.00  0.00    -0.312 N 
ATOM     16  H   LIG    1       31.092 -16.244  10.365  0.00  0.00    +0.146 HD
ATOM     17  H   LIG    1       30.409 -16.179   8.810  0.00  0.00    +0.146 HD
BRANCH  12  18
ATOM     18  O   LIG    1       30.584 -18.122   7.321  0.00  0.00    -0.291 OA
ATOM     19  H   LIG    1       30.372 -17.168   7.349  0.00  0.00    +0.242 HD
ENDBRANCH  12  18
ENDBRANCH   2  12
TORSDOF 3
ENDMDL
MODEL 9
REMARK VINA RESULT:      -7.3      3.038      5.707
REMARK  Name = *****
REMARK                            x       y       z     vdW  Elec       q    Type
REMARK                         _______ _______ _______ _____ _____    ______ ____
ROOT
ATOM      1  C   LIG    1       24.748 -23.044   7.263  0.00  0.00    +0.036 C 
ATOM      2  C   LIG    1       25.137 -21.937   6.281  0.00  0.00    +0.140 C 
ENDROOT
BRANCH   2   3
ATOM      3  C   LIG    1       26.535 -21.403   6.498  0.00  0.00    +0.013 A 
ATOM      4  S   LIG    1       27.071 -20.064   5.574  0.00  0.00    -0.091 S 
ATOM      5  C   LIG    1       28.562 -19.958   6.424  0.00  0.00    +0.020 A 
ATOM      6  C   LIG    1       28.683 -20.978   7.368  0.00  0.00    -0.011 A 
ATOM      7  C   LIG    1       29.863 -21.032   8.148  0.00  0.00    +0.009 A 
ATOM      8  C   LIG    1       30.870 -20.077   7.976  0.00  0.00    +0.001 A 
ATOM      9  C   LIG    1       30.721 -19.065   7.036  0.00  0.00    +0.001 A 
ATOM     10  C   LIG    1       29.572 -18.992   6.246  0.00  0.00    +0.015 A 
ATOM     11  C   LIG    1       27.512 -21.810   7.387  0.00  0.00    +0.021 A 
ENDBRANCH   2   3
BRANCH   2  12
ATOM     12  N   LIG    1       24.189 -20.816   6.318  0.00  0.00    -0.160 N 
ATOM     13  C   LIG    1       23.458 -20.439   5.215  0.00  0.00    +0.323 C 
ATOM     14  O   LIG    1       23.612 -20.861   4.076  0.00  0.00    -0.251 OA
ATOM     15  N   LIG    1       22.492 -19.512   5.491  0.00  0.00    -0.312 N 
ATOM     16  H   LIG    1       22.055 -19.150   4.652  0.00  0.00    +0.146 HD
ATOM     17  H   LIG    1       22.794 -18.791   6.139  0.00  0.00    +0.146 HD
BRANCH  12  18
ATOM     18  O   LIG    1       23.574 -20.617   7.584  0.00  0.00    -0.291 OA
ATOM     19  H   LIG    1       23.060 -19.799   7.433  0.00  0.00    +0.242 HD
ENDBRANCH  12  18
ENDBRANCH   2  12
TORSDOF 3
ENDMDL
