MODEL 1
REMARK VINA RESULT:      -7.8      0.000      0.000
REMARK  Name = *****
REMARK                            x       y       z     vdW  Elec       q    Type
REMARK                         _______ _______ _______ _____ _____    ______ ____
ROOT
ATOM      1  O   LIG    1       27.627 -20.576   7.434  0.00  0.00    -0.461 OA
ENDROOT
BRANCH   1  10
ATOM      2  C   LIG    1       25.804 -23.733   7.370  0.00  0.00    +0.193 C 
ATOM      3  N   LIG    1       24.621 -22.966   6.798  0.00  0.00    +0.247 N 
ATOM      4  C   LIG    1       23.492 -23.995   6.626  0.00  0.00    +0.193 C 
ATOM      5  C   LIG    1       24.119 -21.761   7.637  0.00  0.00    +0.102 C 
ATOM      6  C   LIG    1       23.190 -20.994   6.711  0.00  0.00    +0.201 C 
ATOM      7  C   LIG    1       23.676 -21.280   5.313  0.00  0.00    +0.201 C 
ATOM      8  O   LIG    1       23.733 -19.972   5.879  0.00  0.00    -0.357 OA
ATOM      9  C   LIG    1       25.330 -20.918   8.045  0.00  0.00    +0.102 C 
ATOM     10  C   LIG    1       26.280 -20.532   6.883  0.00  0.00    +0.187 C 
ATOM     11  C   LIG    1       26.188 -21.409   5.607  0.00  0.00    +0.102 C 
ATOM     12  C   LIG    1       24.877 -22.203   5.470  0.00  0.00    +0.102 C 
ENDBRANCH   1  10
BRANCH   1  13
ATOM     13  C   LIG    1       28.606 -19.873   6.795  0.00  0.00    +0.317 C 
ATOM     14  O   LIG    1       28.388 -19.115   5.846  0.00  0.00    -0.250 OA
BRANCH  13  15
ATOM     15  C   LIG    1       29.966 -20.133   7.418  0.00  0.00    +0.153 C 
BRANCH  15  16
ATOM     16  C   LIG    1       30.477 -18.938   8.225  0.00  0.00    -0.032 A 
ATOM     17  C   LIG    1       29.648 -18.314   9.172  0.00  0.00    +0.004 A 
ATOM     18  C   LIG    1       30.123 -17.252   9.954  0.00  0.00    +0.000 A 
ATOM     19  C   LIG    1       31.421 -16.779   9.783  0.00  0.00    +0.000 A 
ATOM     20  C   LIG    1       32.243 -17.358   8.824  0.00  0.00    +0.000 A 
ATOM     21  C   LIG    1       31.779 -18.432   8.062  0.00  0.00    +0.004 A 
ENDBRANCH  15  16
BRANCH  15  22
ATOM     22  C   LIG    1       29.880 -21.427   8.244  0.00  0.00    +0.175 C 
BRANCH  22  23
ATOM     23  O   LIG    1       31.174 -21.936   8.560  0.00  0.00    -0.394 OA
ATOM     24  H   LIG    1       31.654 -21.999   7.711  0.00  0.00    +0.209 HD
ENDBRANCH  22  23
ENDBRANCH  15  22
ENDBRANCH  13  15
ENDBRANCH   1  13
TORSDOF 6
ENDMDL
MODEL 2
REMARK VINA RESULT:      -7.8      0.932      1.882
REMARK  Name = *****
REMARK                            x       y       z     vdW  Elec       q    Type
REMARK                         _______ _______ _______ _____ _____    ______ ____
ROOT
ATOM      1  O   LIG    1       27.428 -20.284   8.330  0.00  0.00    -0.461 OA
ENDROOT
BRANCH   1  10
ATOM      2  C   LIG    1       26.035 -23.585   7.654  0.00  0.00    +0.193 C 
ATOM      3  N   LIG    1       24.951 -22.893   6.843  0.00  0.00    +0.247 N 
ATOM      4  C   LIG    1       24.019 -24.007   6.342  0.00  0.00    +0.193 C 
ATOM      5  C   LIG    1       24.129 -21.807   7.587  0.00  0.00    +0.102 C 
ATOM      6  C   LIG    1       23.376 -21.063   6.498  0.00  0.00    +0.201 C 
ATOM      7  C   LIG    1       24.217 -21.195   5.254  0.00  0.00    +0.201 C 
ATOM      8  O   LIG    1       23.990 -19.935   5.880  0.00  0.00    -0.357 OA
ATOM      9  C   LIG    1       25.103 -20.887   8.328  0.00  0.00    +0.102 C 
ATOM     10  C   LIG    1       26.259 -20.325   7.462  0.00  0.00    +0.187 C 
ATOM     11  C   LIG    1       26.580 -21.108   6.161  0.00  0.00    +0.102 C 
ATOM     12  C   LIG    1       25.437 -22.011   5.660  0.00  0.00    +0.102 C 
ENDBRANCH   1  10
BRANCH   1  13
ATOM     13  C   LIG    1       28.661 -20.360   7.753  0.00  0.00    +0.317 C 
ATOM     14  O   LIG    1       29.254 -21.425   7.555  0.00  0.00    -0.250 OA
BRANCH  13  15
ATOM     15  C   LIG    1       29.179 -18.984   7.376  0.00  0.00    +0.153 C 
BRANCH  15  16
ATOM     16  C   LIG    1       30.105 -18.396   8.442  0.00  0.00    -0.032 A 
ATOM     17  C   LIG    1       31.471 -18.209   8.171  0.00  0.00    +0.004 A 
ATOM     18  C   LIG    1       32.318 -17.623   9.121  0.00  0.00    +0.000 A 
ATOM     19  C   LIG    1       31.821 -17.239  10.364  0.00  0.00    +0.000 A 
ATOM     20  C   LIG    1       30.482 -17.452  10.664  0.00  0.00    +0.000 A 
ATOM     21  C   LIG    1       29.632 -18.013   9.710  0.00  0.00    +0.004 A 
ENDBRANCH  15  16
BRANCH  15  22
ATOM     22  C   LIG    1       29.837 -19.078   5.989  0.00  0.00    +0.175 C 
BRANCH  22  23
ATOM     23  O   LIG    1       29.527 -17.943   5.183  0.00  0.00    -0.394 OA
ATOM     24  H   LIG    1       28.619 -17.678   5.427  0.00  0.00    +0.209 HD
ENDBRANCH  22  23
ENDBRANCH  15  22
ENDBRANCH  13  15
ENDBRANCH   1  13
TORSDOF 6
ENDMDL
MODEL 3
REMARK VINA RESULT:      -7.7      1.434      2.743
REMARK  Name = *****
REMARK                            x       y       z     vdW  Elec       q    Type
REMARK                         _______ _______ _______ _____ _____    ______ ____
ROOT
ATOM      1  O   LIG    1       27.455 -20.298   7.801  0.00  0.00    -0.461 OA
ENDROOT
BRANCH   1  10
ATOM      2  C   LIG    1       23.852 -20.289   7.246  0.00  0.00    +0.193 C 
ATOM      3  N   LIG    1       23.986 -21.724   6.761  0.00  0.00    +0.247 N 
ATOM      4  C   LIG    1       22.575 -22.165   6.345  0.00  0.00    +0.193 C 
ATOM      5  C   LIG    1       24.982 -21.960   5.594  0.00  0.00    +0.102 C 
ATOM      6  C   LIG    1       25.173 -23.466   5.535  0.00  0.00    +0.201 C 
ATOM      7  C   LIG    1       24.927 -23.966   6.935  0.00  0.00    +0.201 C 
ATOM      8  O   LIG    1       26.207 -24.062   6.314  0.00  0.00    -0.357 OA
ATOM      9  C   LIG    1       26.291 -21.237   5.923  0.00  0.00    +0.102 C 
ATOM     10  C   LIG    1       26.873 -21.545   7.326  0.00  0.00    +0.187 C 
ATOM     11  C   LIG    1       25.874 -22.108   8.371  0.00  0.00    +0.102 C 
ATOM     12  C   LIG    1       24.603 -22.733   7.768  0.00  0.00    +0.102 C 
ENDBRANCH   1  10
BRANCH   1  13
ATOM     13  C   LIG    1       28.807 -20.245   7.979  0.00  0.00    +0.317 C 
ATOM     14  O   LIG    1       29.469 -21.185   8.427  0.00  0.00    -0.250 OA
BRANCH  13  15
ATOM     15  C   LIG    1       29.369 -18.906   7.537  0.00  0.00    +0.153 C 
BRANCH  15  16
ATOM     16  C   LIG    1       30.230 -18.249   8.617  0.00  0.00    -0.032 A 
ATOM     17  C   LIG    1       31.589 -17.980   8.376  0.00  0.00    +0.004 A 
ATOM     18  C   LIG    1       32.374 -17.332   9.338  0.00  0.00    +0.000 A 
ATOM     19  C   LIG    1       31.825 -16.965  10.564  0.00  0.00    +0.000 A 
ATOM     20  C   LIG    1       30.494 -17.258  10.835  0.00  0.00    +0.000 A 
ATOM     21  C   LIG    1       29.704 -17.882   9.868  0.00  0.00    +0.004 A 
ENDBRANCH  15  16
BRANCH  15  22
ATOM     22  C   LIG    1       30.116 -19.110   6.209  0.00  0.00    +0.175 C 
BRANCH  22  23
ATOM     23  O   LIG    1       29.820 -18.074   5.274  0.00  0.00    -0.394 OA
ATOM     24  H   LIG    1       29.263 -18.485   4.584  0.00  0.00    +0.209 HD
ENDBRANCH  22  23
ENDBRANCH  15  22
ENDBRANCH  13  15
ENDBRANCH   1  13
TORSDOF 6
ENDMDL
MODEL 4
REMARK VINA RESULT:      -7.3      4.406      7.946
REMARK  Name = *****
REMARK                            x       y       z     vdW  Elec       q    Type
REMARK                         _______ _______ _______ _____ _____    ______ ____
ROOT
ATOM      1  O   LIG    1       23.813 -25.032   6.214  0.00  0.00    -0.461 OA
ENDROOT
BRANCH   1  10
ATOM      2  C   LIG    1       24.067 -22.189   3.946  0.00  0.00    +0.193 C 
ATOM      3  N   LIG    1       24.258 -21.308   5.171  0.00  0.00    +0.247 N 
ATOM      4  C   LIG    1       24.384 -19.870   4.645  0.00  0.00    +0.193 C 
ATOM      5  C   LIG    1       23.144 -21.384   6.248  0.00  0.00    +0.102 C 
ATOM      6  C   LIG    1       23.727 -20.697   7.471  0.00  0.00    +0.201 C 
ATOM      7  C   LIG    1       25.220 -20.874   7.369  0.00  0.00    +0.201 C 
ATOM      8  O   LIG    1       24.459 -21.472   8.417  0.00  0.00    -0.357 OA
ATOM      9  C   LIG    1       22.838 -22.859   6.523  0.00  0.00    +0.102 C 
ATOM     10  C   LIG    1       24.077 -23.738   6.829  0.00  0.00    +0.187 C 
ATOM     11  C   LIG    1       25.443 -23.181   6.350  0.00  0.00    +0.102 C 
ATOM     12  C   LIG    1       25.460 -21.664   6.090  0.00  0.00    +0.102 C 
ENDBRANCH   1  10
BRANCH   1  13
ATOM     13  C   LIG    1       24.837 -25.656   5.564  0.00  0.00    +0.317 C 
ATOM     14  O   LIG    1       25.024 -25.564   4.347  0.00  0.00    -0.250 OA
BRANCH  13  15
ATOM     15  C   LIG    1       25.705 -26.442   6.529  0.00  0.00    +0.153 C 
BRANCH  15  16
ATOM     16  C   LIG    1       25.163 -27.848   6.791  0.00  0.00    -0.032 A 
ATOM     17  C   LIG    1       24.307 -28.464   5.861  0.00  0.00    +0.004 A 
ATOM     18  C   LIG    1       23.846 -29.771   6.065  0.00  0.00    +0.000 A 
ATOM     19  C   LIG    1       24.210 -30.474   7.211  0.00  0.00    +0.000 A 
ATOM     20  C   LIG    1       25.023 -29.868   8.159  0.00  0.00    +0.000 A 
ATOM     21  C   LIG    1       25.503 -28.574   7.946  0.00  0.00    +0.004 A 
ENDBRANCH  15  16
BRANCH  15  22
ATOM     22  C   LIG    1       27.147 -26.440   5.994  0.00  0.00    +0.175 C 
BRANCH  22  23
ATOM     23  O   LIG    1       27.277 -27.254   4.831  0.00  0.00    -0.394 OA
ATOM     24  H   LIG    1       26.958 -28.142   5.085  0.00  0.00    +0.209 HD
ENDBRANCH  22  23
ENDBRANCH  15  22
ENDBRANCH  13  15
ENDBRANCH   1  13
TORSDOF 6
ENDMDL
MODEL 5
REMARK VINA RESULT:      -7.2      6.685      9.565
REMARK  Name = *****
REMARK                            x       y       z     vdW  Elec       q    Type
REMARK                         _______ _______ _______ _____ _____    ______ ____
ROOT
ATOM      1  O   LIG    1       24.517 -28.594   7.072  0.00  0.00    -0.461 OA
ENDROOT
BRANCH   1  10
ATOM      2  C   LIG    1       23.221 -31.458   8.918  0.00  0.00    +0.193 C 
ATOM      3  N   LIG    1       24.202 -32.323   8.142  0.00  0.00    +0.247 N 
ATOM      4  C   LIG    1       23.962 -33.765   8.616  0.00  0.00    +0.193 C 
ATOM      5  C   LIG    1       24.103 -32.249   6.596  0.00  0.00    +0.102 C 
ATOM      6  C   LIG    1       25.368 -32.916   6.085  0.00  0.00    +0.201 C 
ATOM      7  C   LIG    1       26.400 -32.723   7.167  0.00  0.00    +0.201 C 
ATOM      8  O   LIG    1       26.535 -32.123   5.880  0.00  0.00    -0.357 OA
ATOM      9  C   LIG    1       24.039 -30.774   6.186  0.00  0.00    +0.102 C 
ATOM     10  C   LIG    1       25.147 -29.878   6.796  0.00  0.00    +0.187 C 
ATOM     11  C   LIG    1       25.842 -30.424   8.070  0.00  0.00    +0.102 C 
ATOM     12  C   LIG    1       25.702 -31.944   8.274  0.00  0.00    +0.102 C 
ENDBRANCH   1  10
BRANCH   1  13
ATOM     13  C   LIG    1       25.293 -27.473   7.020  0.00  0.00    +0.317 C 
ATOM     14  O   LIG    1       26.244 -27.272   7.780  0.00  0.00    -0.250 OA
BRANCH  13  15
ATOM     15  C   LIG    1       24.843 -26.542   5.909  0.00  0.00    +0.153 C 
BRANCH  15  16
ATOM     16  C   LIG    1       24.662 -25.102   6.391  0.00  0.00    -0.032 A 
ATOM     17  C   LIG    1       25.781 -24.314   6.712  0.00  0.00    +0.004 A 
ATOM     18  C   LIG    1       25.630 -22.977   7.104  0.00  0.00    +0.000 A 
ATOM     19  C   LIG    1       24.360 -22.414   7.208  0.00  0.00    +0.000 A 
ATOM     20  C   LIG    1       23.241 -23.188   6.933  0.00  0.00    +0.000 A 
ATOM     21  C   LIG    1       23.391 -24.513   6.518  0.00  0.00    +0.004 A 
ENDBRANCH  15  16
BRANCH  15  22
ATOM     22  C   LIG    1       25.835 -26.669   4.741  0.00  0.00    +0.175 C 
BRANCH  22  23
ATOM     23  O   LIG    1       27.090 -27.191   5.172  0.00  0.00    -0.394 OA
ATOM     24  H   LIG    1       27.734 -26.464   5.069  0.00  0.00    +0.209 HD
ENDBRANCH  22  23
ENDBRANCH  15  22
ENDBRANCH  13  15
ENDBRANCH   1  13
TORSDOF 6
ENDMDL
MODEL 6
REMARK VINA RESULT:      -7.2      2.293      6.702
REMARK  Name = *****
REMARK                            x       y       z     vdW  Elec       q    Type
REMARK                         _______ _______ _______ _____ _____    ______ ____
ROOT
ATOM      1  O   LIG    1       26.569 -22.366   7.493  0.00  0.00    -0.461 OA
ENDROOT
BRANCH   1  10
ATOM      2  C   LIG    1       27.679 -19.710   5.256  0.00  0.00    +0.193 C 
ATOM      3  N   LIG    1       28.806 -19.437   6.241  0.00  0.00    +0.247 N 
ATOM      4  C   LIG    1       29.592 -18.248   5.668  0.00  0.00    +0.193 C 
ATOM      5  C   LIG    1       28.377 -19.135   7.702  0.00  0.00    +0.102 C 
ATOM      6  C   LIG    1       29.655 -19.235   8.518  0.00  0.00    +0.201 C 
ATOM      7  C   LIG    1       30.545 -20.195   7.772  0.00  0.00    +0.201 C 
ATOM      8  O   LIG    1       30.029 -20.496   9.066  0.00  0.00    -0.357 OA
ATOM      9  C   LIG    1       27.351 -20.188   8.131  0.00  0.00    +0.102 C 
ATOM     10  C   LIG    1       27.779 -21.657   7.885  0.00  0.00    +0.187 C 
ATOM     11  C   LIG    1       28.898 -21.875   6.834  0.00  0.00    +0.102 C 
ATOM     12  C   LIG    1       29.755 -20.628   6.545  0.00  0.00    +0.102 C 
ENDBRANCH   1  10
BRANCH   1  13
ATOM     13  C   LIG    1       25.406 -22.061   8.138  0.00  0.00    +0.317 C 
ATOM     14  O   LIG    1       25.367 -21.533   9.253  0.00  0.00    -0.250 OA
BRANCH  13  15
ATOM     15  C   LIG    1       24.197 -22.432   7.299  0.00  0.00    +0.153 C 
BRANCH  15  16
ATOM     16  C   LIG    1       23.922 -21.417   6.189  0.00  0.00    -0.032 A 
ATOM     17  C   LIG    1       24.598 -21.507   4.959  0.00  0.00    +0.004 A 
ATOM     18  C   LIG    1       24.316 -20.614   3.917  0.00  0.00    +0.000 A 
ATOM     19  C   LIG    1       23.376 -19.602   4.093  0.00  0.00    +0.000 A 
ATOM     20  C   LIG    1       22.726 -19.473   5.314  0.00  0.00    +0.000 A 
ATOM     21  C   LIG    1       22.988 -20.377   6.345  0.00  0.00    +0.004 A 
ENDBRANCH  15  16
BRANCH  15  22
ATOM     22  C   LIG    1       24.396 -23.864   6.773  0.00  0.00    +0.175 C 
BRANCH  22  23
ATOM     23  O   LIG    1       23.149 -24.513   6.533  0.00  0.00    -0.394 OA
ATOM     24  H   LIG    1       22.769 -24.083   5.742  0.00  0.00    +0.209 HD
ENDBRANCH  22  23
ENDBRANCH  15  22
ENDBRANCH  13  15
ENDBRANCH   1  13
TORSDOF 6
ENDMDL
MODEL 7
REMARK VINA RESULT:      -7.1      2.320      6.591
REMARK  Name = *****
REMARK                            x       y       z     vdW  Elec       q    Type
REMARK                         _______ _______ _______ _____ _____    ______ ____
ROOT
ATOM      1  O   LIG    1       26.855 -21.574   7.525  0.00  0.00    -0.461 OA
ENDROOT
BRANCH   1  10
ATOM      2  C   LIG    1       30.144 -21.605   9.097  0.00  0.00    +0.193 C 
ATOM      3  N   LIG    1       30.459 -20.336   8.318  0.00  0.00    +0.247 N 
ATOM      4  C   LIG    1       31.906 -19.966   8.678  0.00  0.00    +0.193 C 
ATOM      5  C   LIG    1       30.300 -20.424   6.777  0.00  0.00    +0.102 C 
ATOM      6  C   LIG    1       30.341 -18.985   6.293  0.00  0.00    +0.201 C 
ATOM      7  C   LIG    1       29.833 -18.150   7.440  0.00  0.00    +0.201 C 
ATOM      8  O   LIG    1       29.124 -18.249   6.207  0.00  0.00    -0.357 OA
ATOM      9  C   LIG    1       28.954 -21.085   6.467  0.00  0.00    +0.102 C 
ATOM     10  C   LIG    1       27.737 -20.462   7.196  0.00  0.00    +0.187 C 
ATOM     11  C   LIG    1       28.054 -19.631   8.467  0.00  0.00    +0.102 C 
ATOM     12  C   LIG    1       29.508 -19.132   8.557  0.00  0.00    +0.102 C 
ENDBRANCH   1  10
BRANCH   1  13
ATOM     13  C   LIG    1       25.554 -21.295   7.829  0.00  0.00    +0.317 C 
ATOM     14  O   LIG    1       25.215 -20.629   8.810  0.00  0.00    -0.250 OA
BRANCH  13  15
ATOM     15  C   LIG    1       24.609 -21.887   6.799  0.00  0.00    +0.153 C 
BRANCH  15  16
ATOM     16  C   LIG    1       24.160 -20.861   5.759  0.00  0.00    -0.032 A 
ATOM     17  C   LIG    1       22.896 -20.254   5.858  0.00  0.00    +0.004 A 
ATOM     18  C   LIG    1       22.495 -19.274   4.941  0.00  0.00    +0.000 A 
ATOM     19  C   LIG    1       23.337 -18.903   3.895  0.00  0.00    +0.000 A 
ATOM     20  C   LIG    1       24.574 -19.519   3.758  0.00  0.00    +0.000 A 
ATOM     21  C   LIG    1       24.985 -20.479   4.685  0.00  0.00    +0.004 A 
ENDBRANCH  15  16
BRANCH  15  22
ATOM     22  C   LIG    1       25.283 -23.122   6.178  0.00  0.00    +0.175 C 
BRANCH  22  23
ATOM     23  O   LIG    1       25.699 -24.052   7.177  0.00  0.00    -0.394 OA
ATOM     24  H   LIG    1       26.259 -24.708   6.718  0.00  0.00    +0.209 HD
ENDBRANCH  22  23
ENDBRANCH  15  22
ENDBRANCH  13  15
ENDBRANCH   1  13
TORSDOF 6
ENDMDL
MODEL 8
REMARK VINA RESULT:      -7.1      4.035      8.064
REMARK  Name = *****
REMARK                            x       y       z     vdW  Elec       q    Type
REMARK                         _______ _______ _______ _____ _____    ______ ____
ROOT
ATOM      1  O   LIG    1       23.584 -25.083   6.562  0.00  0.00    -0.461 OA
ENDROOT
BRANCH   1  10
ATOM      2  C   LIG    1       25.876 -22.742   8.161  0.00  0.00    +0.193 C 
ATOM      3  N   LIG    1       25.305 -21.661   7.256  0.00  0.00    +0.247 N 
ATOM      4  C   LIG    1       26.078 -20.376   7.589  0.00  0.00    +0.193 C 
ATOM      5  C   LIG    1       25.371 -21.941   5.731  0.00  0.00    +0.102 C 
ATOM      6  C   LIG    1       24.461 -20.904   5.098  0.00  0.00    +0.201 C 
ATOM      7  C   LIG    1       23.431 -20.566   6.145  0.00  0.00    +0.201 C 
ATOM      8  O   LIG    1       23.080 -21.210   4.922  0.00  0.00    -0.357 OA
ATOM      9  C   LIG    1       24.865 -23.365   5.479  0.00  0.00    +0.102 C 
ATOM     10  C   LIG    1       23.496 -23.696   6.127  0.00  0.00    +0.187 C 
ATOM     11  C   LIG    1       23.061 -22.786   7.305  0.00  0.00    +0.102 C 
ATOM     12  C   LIG    1       23.773 -21.422   7.357  0.00  0.00    +0.102 C 
ENDBRANCH   1  10
BRANCH   1  13
ATOM     13  C   LIG    1       24.362 -25.937   5.836  0.00  0.00    +0.317 C 
ATOM     14  O   LIG    1       24.222 -26.117   4.623  0.00  0.00    -0.250 OA
BRANCH  13  15
ATOM     15  C   LIG    1       25.412 -26.602   6.707  0.00  0.00    +0.153 C 
BRANCH  15  16
ATOM     16  C   LIG    1       25.103 -28.076   6.973  0.00  0.00    -0.032 A 
ATOM     17  C   LIG    1       25.624 -28.717   8.110  0.00  0.00    +0.004 A 
ATOM     18  C   LIG    1       25.305 -30.052   8.392  0.00  0.00    +0.000 A 
ATOM     19  C   LIG    1       24.484 -30.775   7.531  0.00  0.00    +0.000 A 
ATOM     20  C   LIG    1       23.991 -30.170   6.382  0.00  0.00    +0.000 A 
ATOM     21  C   LIG    1       24.288 -28.833   6.113  0.00  0.00    +0.004 A 
ENDBRANCH  15  16
BRANCH  15  22
ATOM     22  C   LIG    1       26.789 -26.380   6.059  0.00  0.00    +0.175 C 
BRANCH  22  23
ATOM     23  O   LIG    1       26.961 -27.195   4.901  0.00  0.00    -0.394 OA
ATOM     24  H   LIG    1       26.066 -27.485   4.640  0.00  0.00    +0.209 HD
ENDBRANCH  22  23
ENDBRANCH  15  22
ENDBRANCH  13  15
ENDBRANCH   1  13
TORSDOF 6
ENDMDL
MODEL 9
REMARK VINA RESULT:      -7.0      1.505      2.721
REMARK  Name = *****
REMARK                            x       y       z     vdW  Elec       q    Type
REMARK                         _______ _______ _______ _____ _____    ______ ____
ROOT
ATOM      1  O   LIG    1       26.700 -20.315   8.417  0.00  0.00    -0.461 OA
ENDROOT
BRANCH   1  10
ATOM      2  C   LIG    1       25.530 -19.889   4.991  0.00  0.00    +0.193 C 
ATOM      3  N   LIG    1       24.681 -21.135   5.192  0.00  0.00    +0.247 N 
ATOM      4  C   LIG    1       23.966 -21.382   3.855  0.00  0.00    +0.193 C 
ATOM      5  C   LIG    1       25.441 -22.415   5.632  0.00  0.00    +0.102 C 
ATOM      6  C   LIG    1       24.360 -23.384   6.076  0.00  0.00    +0.201 C 
ATOM      7  C   LIG    1       23.209 -22.531   6.545  0.00  0.00    +0.201 C 
ATOM      8  O   LIG    1       23.937 -23.372   7.437  0.00  0.00    -0.357 OA
ATOM      9  C   LIG    1       26.378 -22.047   6.786  0.00  0.00    +0.102 C 
ATOM     10  C   LIG    1       25.709 -21.274   7.951  0.00  0.00    +0.187 C 
ATOM     11  C   LIG    1       24.376 -20.555   7.616  0.00  0.00    +0.102 C 
ATOM     12  C   LIG    1       23.660 -21.088   6.361  0.00  0.00    +0.102 C 
ENDBRANCH   1  10
BRANCH   1  13
ATOM     13  C   LIG    1       28.011 -20.546   8.116  0.00  0.00    +0.317 C 
ATOM     14  O   LIG    1       28.591 -21.603   8.380  0.00  0.00    -0.250 OA
BRANCH  13  15
ATOM     15  C   LIG    1       28.631 -19.356   7.407  0.00  0.00    +0.153 C 
BRANCH  15  16
ATOM     16  C   LIG    1       29.794 -18.749   8.193  0.00  0.00    -0.032 A 
ATOM     17  C   LIG    1       31.107 -18.832   7.697  0.00  0.00    +0.004 A 
ATOM     18  C   LIG    1       32.173 -18.234   8.382  0.00  0.00    +0.000 A 
ATOM     19  C   LIG    1       31.950 -17.568   9.585  0.00  0.00    +0.000 A 
ATOM     20  C   LIG    1       30.666 -17.509  10.110  0.00  0.00    +0.000 A 
ATOM     21  C   LIG    1       29.599 -18.084   9.416  0.00  0.00    +0.004 A 
ENDBRANCH  15  16
BRANCH  15  22
ATOM     22  C   LIG    1       29.024 -19.792   5.985  0.00  0.00    +0.175 C 
BRANCH  22  23
ATOM     23  O   LIG    1       28.826 -18.743   5.040  0.00  0.00    -0.394 OA
ATOM     24  H   LIG    1       29.696 -18.313   4.928  0.00  0.00    +0.209 HD
ENDBRANCH  22  23
ENDBRANCH  15  22
ENDBRANCH  13  15
ENDBRANCH   1  13
TORSDOF 6
ENDMDL
