MODEL 1
REMARK VINA RESULT:     -10.3      0.000      0.000
REMARK  Name = *****
REMARK                            x       y       z     vdW  Elec       q    Type
REMARK                         _______ _______ _______ _____ _____    ______ ____
ROOT
ATOM      1  C   LIG    1       24.440 -24.682   6.387  0.00  0.00    +0.248 C 
ATOM      2  N   LIG    1       25.315 -25.746   6.214  0.00  0.00    -0.281 N 
ATOM      3  H   LIG    1       26.216 -25.546   5.803  0.00  0.00    +0.155 HD
ATOM      4  O   LIG    1       23.278 -24.749   6.771  0.00  0.00    -0.270 OA
ENDROOT
BRANCH   1   9
ATOM      5  C   LIG    1       26.547 -19.414   5.132  0.00  0.00    +0.045 C 
ATOM      6  C   LIG    1       26.034 -20.793   5.442  0.00  0.00    -0.035 A 
ATOM      7  C   LIG    1       26.654 -21.609   6.414  0.00  0.00    +0.029 A 
ATOM      8  C   LIG    1       26.125 -22.880   6.691  0.00  0.00    +0.030 A 
ATOM      9  C   LIG    1       24.976 -23.336   6.033  0.00  0.00    +0.038 A 
ATOM     10  C   LIG    1       24.375 -22.533   5.058  0.00  0.00    +0.013 A 
ATOM     11  C   LIG    1       24.899 -21.270   4.772  0.00  0.00    +0.005 A 
BRANCH   7  12
ATOM     12  C   LIG    1       27.774 -21.145   7.166  0.00  0.00    -0.059 C 
ATOM     13  C   LIG    1       28.779 -20.788   7.740  0.00  0.00    -0.040 C 
BRANCH  13  14
ATOM     14  C   LIG    1       30.010 -20.415   8.315  0.00  0.00    +0.136 A 
ATOM     15  N   LIG    1       30.359 -19.143   8.697  0.00  0.00    -0.205 N 
ATOM     16  C   LIG    1       31.616 -19.235   9.280  0.00  0.00    +0.155 A 
ATOM     17  C   LIG    1       32.175 -18.046   9.800  0.00  0.00    +0.050 A 
ATOM     18  C   LIG    1       31.492 -16.899   9.697  0.00  0.00    +0.025 A 
ATOM     19  C   LIG    1       30.172 -16.955   9.027  0.00  0.00    +0.133 A 
ATOM     20  N   LIG    1       32.077 -20.468   9.253  0.00  0.00    -0.233 NA
ATOM     21  N   LIG    1       29.599 -18.011   8.542  0.00  0.00    -0.172 NA
ATOM     22  C   LIG    1       31.086 -21.207   8.652  0.00  0.00    +0.150 A 
ENDBRANCH  13  14
ENDBRANCH   7  12
ENDBRANCH   1   9
BRANCH   2  23
ATOM     23  C   LIG    1       25.056 -27.110   6.475  0.00  0.00    +0.034 A 
ATOM     24  C   LIG    1       25.629 -27.683   7.619  0.00  0.00    +0.036 A 
ATOM     25  C   LIG    1       25.456 -29.054   7.948  0.00  0.00    +0.061 A 
ATOM     26  C   LIG    1       24.665 -29.857   7.104  0.00  0.00    -0.022 A 
ATOM     27  C   LIG    1       24.063 -29.258   5.980  0.00  0.00    +0.007 A 
ATOM     28  C   LIG    1       24.269 -27.913   5.664  0.00  0.00    +0.024 A 
BRANCH  25  29
ATOM     29  C   LIG    1       26.151 -29.537   9.206  0.00  0.00    +0.418 C 
ATOM     30  F   LIG    1       25.252 -29.736  10.217  0.00  0.00    -0.166 F 
ATOM     31  F   LIG    1       27.023 -28.602   9.688  0.00  0.00    -0.166 F 
ATOM     32  F   LIG    1       26.847 -30.697   9.127  0.00  0.00    -0.166 F 
ENDBRANCH  25  29
BRANCH  26  33
ATOM     33  C   LIG    1       24.401 -31.337   7.326  0.00  0.00    +0.120 C 
BRANCH  33  34
ATOM     34  N   LIG    1       25.525 -32.231   7.000  0.00  0.00    -0.296 NA
ATOM     35  C   LIG    1       25.016 -33.552   6.556  0.00  0.00    +0.100 C 
ATOM     36  C   LIG    1       24.404 -33.574   5.127  0.00  0.00    +0.099 C 
ATOM     37  N   LIG    1       25.210 -32.934   4.068  0.00  0.00    -0.303 NA
ATOM     38  C   LIG    1       26.263 -33.825   3.580  0.00  0.00    +0.105 C 
ATOM     39  C   LIG    1       25.774 -31.654   4.543  0.00  0.00    +0.099 C 
ATOM     40  C   LIG    1       26.421 -31.723   5.944  0.00  0.00    +0.100 C 
ENDBRANCH  33  34
ENDBRANCH  26  33
ENDBRANCH   2  23
TORSDOF 7
ENDMDL
MODEL 2
REMARK VINA RESULT:     -10.3      1.496      2.286
REMARK  Name = *****
REMARK                            x       y       z     vdW  Elec       q    Type
REMARK                         _______ _______ _______ _____ _____    ______ ____
ROOT
ATOM      1  C   LIG    1       24.432 -24.534   6.386  0.00  0.00    +0.248 C 
ATOM      2  N   LIG    1       25.336 -25.574   6.211  0.00  0.00    -0.281 N 
ATOM      3  H   LIG    1       26.213 -25.357   5.759  0.00  0.00    +0.155 HD
ATOM      4  O   LIG    1       23.289 -24.627   6.817  0.00  0.00    -0.270 OA
ENDROOT
BRANCH   1   9
ATOM      5  C   LIG    1       26.312 -19.244   4.886  0.00  0.00    +0.045 C 
ATOM      6  C   LIG    1       25.857 -20.628   5.257  0.00  0.00    -0.035 A 
ATOM      7  C   LIG    1       26.557 -21.404   6.206  0.00  0.00    +0.029 A 
ATOM      8  C   LIG    1       26.082 -22.681   6.544  0.00  0.00    +0.030 A 
ATOM      9  C   LIG    1       24.908 -23.183   5.970  0.00  0.00    +0.038 A 
ATOM     10  C   LIG    1       24.226 -22.419   5.016  0.00  0.00    +0.013 A 
ATOM     11  C   LIG    1       24.696 -21.150   4.671  0.00  0.00    +0.005 A 
BRANCH   7  12
ATOM     12  C   LIG    1       27.709 -20.893   6.877  0.00  0.00    -0.059 C 
ATOM     13  C   LIG    1       28.713 -20.547   7.459  0.00  0.00    -0.040 C 
BRANCH  13  14
ATOM     14  C   LIG    1       29.913 -20.259   8.140  0.00  0.00    +0.136 A 
ATOM     15  N   LIG    1       30.290 -19.022   8.603  0.00  0.00    -0.205 N 
ATOM     16  C   LIG    1       31.493 -19.200   9.273  0.00  0.00    +0.155 A 
ATOM     17  C   LIG    1       32.065 -18.063   9.886  0.00  0.00    +0.050 A 
ATOM     18  C   LIG    1       31.446 -16.880   9.783  0.00  0.00    +0.025 A 
ATOM     19  C   LIG    1       30.179 -16.844   9.016  0.00  0.00    +0.133 A 
ATOM     20  N   LIG    1       31.898 -20.453   9.226  0.00  0.00    -0.233 NA
ATOM     21  N   LIG    1       29.597 -17.850   8.443  0.00  0.00    -0.172 NA
ATOM     22  C   LIG    1       30.922 -21.117   8.520  0.00  0.00    +0.150 A 
ENDBRANCH  13  14
ENDBRANCH   7  12
ENDBRANCH   1   9
BRANCH   2  23
ATOM     23  C   LIG    1       25.134 -26.936   6.525  0.00  0.00    +0.034 A 
ATOM     24  C   LIG    1       25.731 -27.441   7.688  0.00  0.00    +0.036 A 
ATOM     25  C   LIG    1       25.614 -28.805   8.069  0.00  0.00    +0.061 A 
ATOM     26  C   LIG    1       24.858 -29.671   7.258  0.00  0.00    -0.022 A 
ATOM     27  C   LIG    1       24.231 -29.141   6.114  0.00  0.00    +0.007 A 
ATOM     28  C   LIG    1       24.380 -27.801   5.746  0.00  0.00    +0.024 A 
BRANCH  25  29
ATOM     29  C   LIG    1       26.330 -29.210   9.343  0.00  0.00    +0.418 C 
ATOM     30  F   LIG    1       25.471 -29.212  10.408  0.00  0.00    -0.166 F 
ATOM     31  F   LIG    1       27.305 -28.315   9.678  0.00  0.00    -0.166 F 
ATOM     32  F   LIG    1       26.915 -30.433   9.367  0.00  0.00    -0.166 F 
ENDBRANCH  25  29
BRANCH  26  33
ATOM     33  C   LIG    1       24.655 -31.151   7.537  0.00  0.00    +0.120 C 
BRANCH  33  34
ATOM     34  N   LIG    1       23.306 -31.523   7.999  0.00  0.00    -0.296 NA
ATOM     35  C   LIG    1       23.119 -32.992   7.902  0.00  0.00    +0.100 C 
ATOM     36  C   LIG    1       23.868 -33.821   8.983  0.00  0.00    +0.099 C 
ATOM     37  N   LIG    1       23.714 -33.358  10.377  0.00  0.00    -0.303 NA
ATOM     38  C   LIG    1       22.455 -33.820  10.961  0.00  0.00    +0.105 C 
ATOM     39  C   LIG    1       23.827 -31.888  10.453  0.00  0.00    +0.099 C 
ATOM     40  C   LIG    1       23.007 -31.128   9.388  0.00  0.00    +0.100 C 
ENDBRANCH  33  34
ENDBRANCH  26  33
ENDBRANCH   2  23
TORSDOF 7
ENDMDL
MODEL 3
REMARK VINA RESULT:      -9.2      2.259      3.307
REMARK  Name = *****
REMARK                            x       y       z     vdW  Elec       q    Type
REMARK                         _______ _______ _______ _____ _____    ______ ____
ROOT
ATOM      1  C   LIG    1       24.857 -24.272   6.545  0.00  0.00    +0.248 C 
ATOM      2  N   LIG    1       25.895 -25.193   6.556  0.00  0.00    -0.281 N 
ATOM      3  H   LIG    1       26.775 -24.909   6.148  0.00  0.00    +0.155 HD
ATOM      4  O   LIG    1       23.700 -24.473   6.898  0.00  0.00    -0.270 OA
ENDROOT
BRANCH   1   9
ATOM      5  C   LIG    1       26.199 -18.963   4.600  0.00  0.00    +0.045 C 
ATOM      6  C   LIG    1       25.884 -20.350   5.086  0.00  0.00    -0.035 A 
ATOM      7  C   LIG    1       26.684 -20.990   6.058  0.00  0.00    +0.029 A 
ATOM      8  C   LIG    1       26.338 -22.276   6.504  0.00  0.00    +0.030 A 
ATOM      9  C   LIG    1       25.194 -22.919   6.015  0.00  0.00    +0.038 A 
ATOM     10  C   LIG    1       24.413 -22.290   5.040  0.00  0.00    +0.013 A 
ATOM     11  C   LIG    1       24.755 -21.014   4.587  0.00  0.00    +0.005 A 
BRANCH   7  12
ATOM     12  C   LIG    1       27.808 -20.334   6.642  0.00  0.00    -0.059 C 
ATOM     13  C   LIG    1       28.811 -19.803   7.065  0.00  0.00    -0.040 C 
BRANCH  13  14
ATOM     14  C   LIG    1       30.032 -19.217   7.456  0.00  0.00    +0.136 A 
ATOM     15  N   LIG    1       30.259 -18.561   8.642  0.00  0.00    -0.205 N 
ATOM     16  C   LIG    1       31.602 -18.213   8.651  0.00  0.00    +0.155 A 
ATOM     17  C   LIG    1       32.092 -17.559   9.804  0.00  0.00    +0.050 A 
ATOM     18  C   LIG    1       31.254 -17.291  10.813  0.00  0.00    +0.025 A 
ATOM     19  C   LIG    1       29.841 -17.705  10.647  0.00  0.00    +0.133 A 
ATOM     20  N   LIG    1       32.210 -18.580   7.541  0.00  0.00    -0.233 NA
ATOM     21  N   LIG    1       29.333 -18.317   9.624  0.00  0.00    -0.172 NA
ATOM     22  C   LIG    1       31.239 -19.202   6.792  0.00  0.00    +0.150 A 
ENDBRANCH  13  14
ENDBRANCH   7  12
ENDBRANCH   1   9
BRANCH   2  23
ATOM     23  C   LIG    1       25.839 -26.532   7.005  0.00  0.00    +0.034 A 
ATOM     24  C   LIG    1       25.308 -27.497   6.137  0.00  0.00    +0.036 A 
ATOM     25  C   LIG    1       25.177 -28.861   6.511  0.00  0.00    +0.061 A 
ATOM     26  C   LIG    1       25.614 -29.257   7.789  0.00  0.00    -0.022 A 
ATOM     27  C   LIG    1       26.181 -28.284   8.634  0.00  0.00    +0.007 A 
ATOM     28  C   LIG    1       26.277 -26.943   8.254  0.00  0.00    +0.024 A 
BRANCH  25  29
ATOM     29  C   LIG    1       24.569 -29.786   5.474  0.00  0.00    +0.418 C 
ATOM     30  F   LIG    1       24.338 -29.122   4.301  0.00  0.00    -0.166 F 
ATOM     31  F   LIG    1       23.344 -30.245   5.868  0.00  0.00    -0.166 F 
ATOM     32  F   LIG    1       25.286 -30.880   5.118  0.00  0.00    -0.166 F 
ENDBRANCH  25  29
BRANCH  26  33
ATOM     33  C   LIG    1       25.528 -30.677   8.325  0.00  0.00    +0.120 C 
BRANCH  33  34
ATOM     34  N   LIG    1       24.174 -31.128   8.689  0.00  0.00    -0.296 NA
ATOM     35  C   LIG    1       24.203 -32.553   9.102  0.00  0.00    +0.100 C 
ATOM     36  C   LIG    1       24.818 -32.817  10.506  0.00  0.00    +0.099 C 
ATOM     37  N   LIG    1       24.324 -31.958  11.601  0.00  0.00    -0.303 NA
ATOM     38  C   LIG    1       23.044 -32.435  12.123  0.00  0.00    +0.105 C 
ATOM     39  C   LIG    1       24.226 -30.552  11.158  0.00  0.00    +0.099 C 
ATOM     40  C   LIG    1       23.549 -30.362   9.783  0.00  0.00    +0.100 C 
ENDBRANCH  33  34
ENDBRANCH  26  33
ENDBRANCH   2  23
TORSDOF 7
ENDMDL
MODEL 4
REMARK VINA RESULT:      -8.8      4.519     10.105
REMARK  Name = *****
REMARK                            x       y       z     vdW  Elec       q    Type
REMARK                         _______ _______ _______ _____ _____    ______ ____
ROOT
ATOM      1  C   LIG    1       24.921 -28.035   6.515  0.00  0.00    +0.248 C 
ATOM      2  N   LIG    1       25.572 -26.892   6.959  0.00  0.00    -0.281 N 
ATOM      3  H   LIG    1       26.161 -26.979   7.775  0.00  0.00    +0.155 HD
ATOM      4  O   LIG    1       24.094 -28.099   5.612  0.00  0.00    -0.270 OA
ENDROOT
BRANCH   1   9
ATOM      5  C   LIG    1       26.299 -32.882   9.408  0.00  0.00    +0.045 C 
ATOM      6  C   LIG    1       25.912 -31.624   8.683  0.00  0.00    -0.035 A 
ATOM      7  C   LIG    1       25.987 -30.360   9.309  0.00  0.00    +0.029 A 
ATOM      8  C   LIG    1       25.641 -29.207   8.586  0.00  0.00    +0.030 A 
ATOM      9  C   LIG    1       25.249 -29.294   7.245  0.00  0.00    +0.038 A 
ATOM     10  C   LIG    1       25.159 -30.549   6.632  0.00  0.00    +0.013 A 
ATOM     11  C   LIG    1       25.495 -31.701   7.347  0.00  0.00    +0.005 A 
BRANCH   7  12
ATOM     12  C   LIG    1       26.463 -30.222  10.646  0.00  0.00    -0.059 C 
ATOM     13  C   LIG    1       26.900 -30.022  11.758  0.00  0.00    -0.040 C 
BRANCH  13  14
ATOM     14  C   LIG    1       27.437 -29.680  13.016  0.00  0.00    +0.136 A 
ATOM     15  N   LIG    1       28.774 -29.597  13.316  0.00  0.00    -0.205 N 
ATOM     16  C   LIG    1       28.859 -29.160  14.631  0.00  0.00    +0.155 A 
ATOM     17  C   LIG    1       30.152 -28.951  15.160  0.00  0.00    +0.050 A 
ATOM     18  C   LIG    1       31.223 -29.194  14.394  0.00  0.00    +0.025 A 
ATOM     19  C   LIG    1       30.973 -29.679  13.017  0.00  0.00    +0.133 A 
ATOM     20  N   LIG    1       27.667 -29.000  15.170  0.00  0.00    -0.233 NA
ATOM     21  N   LIG    1       29.816 -29.878  12.469  0.00  0.00    -0.172 NA
ATOM     22  C   LIG    1       26.778 -29.324  14.172  0.00  0.00    +0.150 A 
ENDBRANCH  13  14
ENDBRANCH   7  12
ENDBRANCH   1   9
BRANCH   2  23
ATOM     23  C   LIG    1       25.440 -25.584   6.441  0.00  0.00    +0.034 A 
ATOM     24  C   LIG    1       25.781 -24.508   7.272  0.00  0.00    +0.036 A 
ATOM     25  C   LIG    1       25.650 -23.156   6.855  0.00  0.00    +0.061 A 
ATOM     26  C   LIG    1       25.176 -22.893   5.556  0.00  0.00    -0.022 A 
ATOM     27  C   LIG    1       24.875 -23.985   4.719  0.00  0.00    +0.007 A 
ATOM     28  C   LIG    1       24.990 -25.305   5.160  0.00  0.00    +0.024 A 
BRANCH  25  29
ATOM     29  C   LIG    1       26.041 -22.099   7.869  0.00  0.00    +0.418 C 
ATOM     30  F   LIG    1       27.348 -21.729   7.712  0.00  0.00    -0.166 F 
ATOM     31  F   LIG    1       25.958 -22.574   9.147  0.00  0.00    -0.166 F 
ATOM     32  F   LIG    1       25.347 -20.934   7.853  0.00  0.00    -0.166 F 
ENDBRANCH  25  29
BRANCH  26  33
ATOM     33  C   LIG    1       24.978 -21.501   4.979  0.00  0.00    +0.120 C 
BRANCH  33  34
ATOM     34  N   LIG    1       23.791 -21.342   4.122  0.00  0.00    -0.296 NA
ATOM     35  C   LIG    1       22.588 -21.092   4.954  0.00  0.00    +0.100 C 
ATOM     36  C   LIG    1       22.502 -19.668   5.573  0.00  0.00    +0.099 C 
ATOM     37  N   LIG    1       22.749 -18.544   4.648  0.00  0.00    -0.303 NA
ATOM     38  C   LIG    1       21.558 -18.223   3.862  0.00  0.00    +0.105 C 
ATOM     39  C   LIG    1       23.903 -18.832   3.773  0.00  0.00    +0.099 C 
ATOM     40  C   LIG    1       23.889 -20.243   3.143  0.00  0.00    +0.100 C 
ENDBRANCH  33  34
ENDBRANCH  26  33
ENDBRANCH   2  23
TORSDOF 7
ENDMDL
MODEL 5
REMARK VINA RESULT:      -8.6      4.268     12.273
REMARK  Name = *****
REMARK                            x       y       z     vdW  Elec       q    Type
REMARK                         _______ _______ _______ _____ _____    ______ ____
ROOT
ATOM      1  C   LIG    1       26.184 -23.140   7.156  0.00  0.00    +0.248 C 
ATOM      2  N   LIG    1       27.447 -22.743   6.738  0.00  0.00    -0.281 N 
ATOM      3  H   LIG    1       27.953 -23.369   6.127  0.00  0.00    +0.155 HD
ATOM      4  O   LIG    1       25.472 -22.566   7.972  0.00  0.00    -0.270 OA
ENDROOT
BRANCH   1   9
ATOM      5  C   LIG    1       24.307 -28.158   4.905  0.00  0.00    +0.045 C 
ATOM      6  C   LIG    1       24.765 -26.862   5.514  0.00  0.00    -0.035 A 
ATOM      7  C   LIG    1       25.366 -26.821   6.792  0.00  0.00    +0.029 A 
ATOM      8  C   LIG    1       25.804 -25.592   7.312  0.00  0.00    +0.030 A 
ATOM      9  C   LIG    1       25.675 -24.413   6.568  0.00  0.00    +0.038 A 
ATOM     10  C   LIG    1       25.064 -24.455   5.310  0.00  0.00    +0.013 A 
ATOM     11  C   LIG    1       24.620 -25.672   4.789  0.00  0.00    +0.005 A 
BRANCH   7  12
ATOM     12  C   LIG    1       25.592 -28.012   7.543  0.00  0.00    -0.059 C 
ATOM     13  C   LIG    1       25.692 -29.034   8.185  0.00  0.00    -0.040 C 
BRANCH  13  14
ATOM     14  C   LIG    1       25.691 -30.234   8.925  0.00  0.00    +0.136 A 
ATOM     15  N   LIG    1       24.577 -30.865   9.419  0.00  0.00    -0.205 N 
ATOM     16  C   LIG    1       25.017 -32.041  10.011  0.00  0.00    +0.155 A 
ATOM     17  C   LIG    1       24.034 -32.896  10.559  0.00  0.00    +0.050 A 
ATOM     18  C   LIG    1       22.746 -32.537  10.502  0.00  0.00    +0.025 A 
ATOM     19  C   LIG    1       22.432 -31.240   9.858  0.00  0.00    +0.133 A 
ATOM     20  N   LIG    1       26.327 -32.161   9.943  0.00  0.00    -0.233 NA
ATOM     21  N   LIG    1       23.283 -30.419   9.328  0.00  0.00    -0.172 NA
ATOM     22  C   LIG    1       26.754 -31.040   9.272  0.00  0.00    +0.150 A 
ENDBRANCH  13  14
ENDBRANCH   7  12
ENDBRANCH   1   9
BRANCH   2  23
ATOM     23  C   LIG    1       28.150 -21.586   7.141  0.00  0.00    +0.034 A 
ATOM     24  C   LIG    1       28.289 -20.543   6.214  0.00  0.00    +0.036 A 
ATOM     25  C   LIG    1       29.007 -19.354   6.513  0.00  0.00    +0.061 A 
ATOM     26  C   LIG    1       29.582 -19.215   7.791  0.00  0.00    -0.022 A 
ATOM     27  C   LIG    1       29.400 -20.254   8.724  0.00  0.00    +0.007 A 
ATOM     28  C   LIG    1       28.710 -21.424   8.399  0.00  0.00    +0.024 A 
BRANCH  25  29
ATOM     29  C   LIG    1       29.089 -18.322   5.405  0.00  0.00    +0.418 C 
ATOM     30  F   LIG    1       28.071 -18.486   4.507  0.00  0.00    -0.166 F 
ATOM     31  F   LIG    1       30.233 -18.461   4.672  0.00  0.00    -0.166 F 
ATOM     32  F   LIG    1       29.027 -17.017   5.765  0.00  0.00    -0.166 F 
ENDBRANCH  25  29
BRANCH  26  33
ATOM     33  C   LIG    1       30.383 -18.006   8.245  0.00  0.00    +0.120 C 
BRANCH  33  34
ATOM     34  N   LIG    1       31.509 -18.303   9.146  0.00  0.00    -0.296 NA
ATOM     35  C   LIG    1       32.591 -17.305   8.959  0.00  0.00    +0.100 C 
ATOM     36  C   LIG    1       32.301 -15.901   9.560  0.00  0.00    +0.099 C 
ATOM     37  N   LIG    1       31.799 -15.883  10.949  0.00  0.00    -0.303 NA
ATOM     38  C   LIG    1       32.886 -16.021  11.916  0.00  0.00    +0.105 C 
ATOM     39  C   LIG    1       30.774 -16.929  11.147  0.00  0.00    +0.099 C 
ATOM     40  C   LIG    1       31.158 -18.313  10.579  0.00  0.00    +0.100 C 
ENDBRANCH  33  34
ENDBRANCH  26  33
ENDBRANCH   2  23
TORSDOF 7
ENDMDL
MODEL 6
REMARK VINA RESULT:      -8.6      2.473      3.866
REMARK  Name = *****
REMARK                            x       y       z     vdW  Elec       q    Type
REMARK                         _______ _______ _______ _____ _____    ______ ____
ROOT
ATOM      1  C   LIG    1       25.600 -26.438   6.560  0.00  0.00    +0.248 C 
ATOM      2  N   LIG    1       24.998 -27.307   7.460  0.00  0.00    -0.281 N 
ATOM      3  H   LIG    1       24.285 -26.928   8.067  0.00  0.00    +0.155 HD
ATOM      4  O   LIG    1       26.546 -26.692   5.824  0.00  0.00    -0.270 OA
ENDROOT
BRANCH   1   9
ATOM      5  C   LIG    1       23.540 -21.005   6.512  0.00  0.00    +0.045 C 
ATOM      6  C   LIG    1       24.086 -22.405   6.488  0.00  0.00    -0.035 A 
ATOM      7  C   LIG    1       25.476 -22.653   6.464  0.00  0.00    +0.029 A 
ATOM      8  C   LIG    1       25.944 -23.978   6.471  0.00  0.00    +0.030 A 
ATOM      9  C   LIG    1       25.049 -25.052   6.527  0.00  0.00    +0.038 A 
ATOM     10  C   LIG    1       23.672 -24.804   6.532  0.00  0.00    +0.013 A 
ATOM     11  C   LIG    1       23.199 -23.490   6.520  0.00  0.00    +0.005 A 
BRANCH   7  12
ATOM     12  C   LIG    1       26.421 -21.585   6.494  0.00  0.00    -0.059 C 
ATOM     13  C   LIG    1       27.288 -20.739   6.500  0.00  0.00    -0.040 C 
BRANCH  13  14
ATOM     14  C   LIG    1       28.374 -19.841   6.474  0.00  0.00    +0.136 A 
ATOM     15  N   LIG    1       29.423 -19.831   7.360  0.00  0.00    -0.205 N 
ATOM     16  C   LIG    1       30.297 -18.842   6.928  0.00  0.00    +0.155 A 
ATOM     17  C   LIG    1       31.492 -18.671   7.663  0.00  0.00    +0.050 A 
ATOM     18  C   LIG    1       31.720 -19.440   8.734  0.00  0.00    +0.025 A 
ATOM     19  C   LIG    1       30.682 -20.437   9.085  0.00  0.00    +0.133 A 
ATOM     20  N   LIG    1       29.843 -18.223   5.857  0.00  0.00    -0.233 NA
ATOM     21  N   LIG    1       29.575 -20.652   8.448  0.00  0.00    -0.172 NA
ATOM     22  C   LIG    1       28.646 -18.836   5.571  0.00  0.00    +0.150 A 
ENDBRANCH  13  14
ENDBRANCH   7  12
ENDBRANCH   1   9
BRANCH   2  23
ATOM     23  C   LIG    1       25.329 -28.662   7.684  0.00  0.00    +0.034 A 
ATOM     24  C   LIG    1       24.936 -29.604   6.723  0.00  0.00    +0.036 A 
ATOM     25  C   LIG    1       25.192 -30.994   6.875  0.00  0.00    +0.061 A 
ATOM     26  C   LIG    1       25.880 -31.432   8.022  0.00  0.00    -0.022 A 
ATOM     27  C   LIG    1       26.304 -30.469   8.958  0.00  0.00    +0.007 A 
ATOM     28  C   LIG    1       26.019 -29.111   8.799  0.00  0.00    +0.024 A 
BRANCH  25  29
ATOM     29  C   LIG    1       24.691 -31.894   5.763  0.00  0.00    +0.418 C 
ATOM     30  F   LIG    1       25.068 -31.418   4.539  0.00  0.00    -0.166 F 
ATOM     31  F   LIG    1       23.326 -31.931   5.723  0.00  0.00    -0.166 F 
ATOM     32  F   LIG    1       25.103 -33.186   5.775  0.00  0.00    -0.166 F 
ENDBRANCH  25  29
BRANCH  26  33
ATOM     33  C   LIG    1       26.215 -32.884   8.320  0.00  0.00    +0.120 C 
BRANCH  33  34
ATOM     34  N   LIG    1       25.147 -33.650   8.986  0.00  0.00    -0.296 NA
ATOM     35  C   LIG    1       25.464 -33.825  10.425  0.00  0.00    +0.100 C 
ATOM     36  C   LIG    1       25.284 -32.551  11.297  0.00  0.00    +0.099 C 
ATOM     37  N   LIG    1       24.014 -31.819  11.120  0.00  0.00    -0.303 NA
ATOM     38  C   LIG    1       22.928 -32.437  11.881  0.00  0.00    +0.105 C 
ATOM     39  C   LIG    1       23.667 -31.714   9.688  0.00  0.00    +0.099 C 
ATOM     40  C   LIG    1       23.810 -33.034   8.899  0.00  0.00    +0.100 C 
ENDBRANCH  33  34
ENDBRANCH  26  33
ENDBRANCH   2  23
TORSDOF 7
ENDMDL
MODEL 7
REMARK VINA RESULT:      -8.3      4.542     10.705
REMARK  Name = *****
REMARK                            x       y       z     vdW  Elec       q    Type
REMARK                         _______ _______ _______ _____ _____    ______ ____
ROOT
ATOM      1  C   LIG    1       24.940 -28.249   6.203  0.00  0.00    +0.248 C 
ATOM      2  N   LIG    1       25.148 -27.066   6.899  0.00  0.00    -0.281 N 
ATOM      3  H   LIG    1       25.267 -27.130   7.901  0.00  0.00    +0.155 HD
ATOM      4  O   LIG    1       24.678 -28.356   5.010  0.00  0.00    -0.270 OA
ENDROOT
BRANCH   1   9
ATOM      5  C   LIG    1       25.275 -33.056   9.450  0.00  0.00    +0.045 C 
ATOM      6  C   LIG    1       25.150 -31.816   8.611  0.00  0.00    -0.035 A 
ATOM      7  C   LIG    1       24.616 -30.620   9.139  0.00  0.00    +0.029 A 
ATOM      8  C   LIG    1       24.542 -29.476   8.328  0.00  0.00    +0.030 A 
ATOM      9  C   LIG    1       25.016 -29.501   7.011  0.00  0.00    +0.038 A 
ATOM     10  C   LIG    1       25.529 -30.691   6.485  0.00  0.00    +0.013 A 
ATOM     11  C   LIG    1       25.600 -31.835   7.283  0.00  0.00    +0.005 A 
BRANCH   7  12
ATOM     12  C   LIG    1       24.201 -30.531  10.501  0.00  0.00    -0.059 C 
ATOM     13  C   LIG    1       23.804 -30.379  11.635  0.00  0.00    -0.040 C 
BRANCH  13  14
ATOM     14  C   LIG    1       23.279 -30.110  12.915  0.00  0.00    +0.136 A 
ATOM     15  N   LIG    1       22.922 -28.870  13.386  0.00  0.00    -0.205 N 
ATOM     16  C   LIG    1       22.386 -29.066  14.652  0.00  0.00    +0.155 A 
ATOM     17  C   LIG    1       21.898 -27.927  15.330  0.00  0.00    +0.050 A 
ATOM     18  C   LIG    1       21.987 -26.726  14.746  0.00  0.00    +0.025 A 
ATOM     19  C   LIG    1       22.606 -26.672  13.401  0.00  0.00    +0.133 A 
ATOM     20  N   LIG    1       22.417 -30.336  15.004  0.00  0.00    -0.233 NA
ATOM     21  N   LIG    1       23.059 -27.678  12.721  0.00  0.00    -0.172 NA
ATOM     22  C   LIG    1       22.974 -30.990  13.930  0.00  0.00    +0.150 A 
ENDBRANCH  13  14
ENDBRANCH   7  12
ENDBRANCH   1   9
BRANCH   2  23
ATOM     23  C   LIG    1       25.132 -25.756   6.371  0.00  0.00    +0.034 A 
ATOM     24  C   LIG    1       25.553 -24.706   7.199  0.00  0.00    +0.036 A 
ATOM     25  C   LIG    1       25.539 -23.351   6.771  0.00  0.00    +0.061 A 
ATOM     26  C   LIG    1       25.105 -23.059   5.464  0.00  0.00    -0.022 A 
ATOM     27  C   LIG    1       24.723 -24.129   4.631  0.00  0.00    +0.007 A 
ATOM     28  C   LIG    1       24.721 -25.450   5.083  0.00  0.00    +0.024 A 
BRANCH  25  29
ATOM     29  C   LIG    1       26.006 -22.323   7.783  0.00  0.00    +0.418 C 
ATOM     30  F   LIG    1       27.273 -21.895   7.498  0.00  0.00    -0.166 F 
ATOM     31  F   LIG    1       26.086 -22.853   9.039  0.00  0.00    -0.166 F 
ATOM     32  F   LIG    1       25.275 -21.187   7.899  0.00  0.00    -0.166 F 
ENDBRANCH  25  29
BRANCH  26  33
ATOM     33  C   LIG    1       25.030 -21.660   4.877  0.00  0.00    +0.120 C 
BRANCH  33  34
ATOM     34  N   LIG    1       23.852 -21.398   4.031  0.00  0.00    -0.296 NA
ATOM     35  C   LIG    1       22.656 -21.163   4.878  0.00  0.00    +0.100 C 
ATOM     36  C   LIG    1       22.620 -19.785   5.596  0.00  0.00    +0.099 C 
ATOM     37  N   LIG    1       22.910 -18.608   4.752  0.00  0.00    -0.303 NA
ATOM     38  C   LIG    1       21.735 -18.189   3.989  0.00  0.00    +0.105 C 
ATOM     39  C   LIG    1       24.056 -18.876   3.859  0.00  0.00    +0.099 C 
ATOM     40  C   LIG    1       23.993 -20.237   3.132  0.00  0.00    +0.100 C 
ENDBRANCH  33  34
ENDBRANCH  26  33
ENDBRANCH   2  23
TORSDOF 7
ENDMDL
MODEL 8
REMARK VINA RESULT:      -8.3      4.599     11.843
REMARK  Name = *****
REMARK                            x       y       z     vdW  Elec       q    Type
REMARK                         _______ _______ _______ _____ _____    ______ ____
ROOT
ATOM      1  C   LIG    1       25.145 -28.333   6.113  0.00  0.00    +0.248 C 
ATOM      2  N   LIG    1       25.042 -27.152   6.837  0.00  0.00    -0.281 N 
ATOM      3  H   LIG    1       24.878 -27.228   7.831  0.00  0.00    +0.155 HD
ATOM      4  O   LIG    1       25.239 -28.435   4.895  0.00  0.00    -0.270 OA
ENDROOT
BRANCH   1   9
ATOM      5  C   LIG    1       24.965 -33.165   9.335  0.00  0.00    +0.045 C 
ATOM      6  C   LIG    1       24.976 -31.924   8.488  0.00  0.00    -0.035 A 
ATOM      7  C   LIG    1       24.101 -30.846   8.748  0.00  0.00    +0.029 A 
ATOM      8  C   LIG    1       24.165 -29.693   7.948  0.00  0.00    +0.030 A 
ATOM      9  C   LIG    1       25.102 -29.591   6.913  0.00  0.00    +0.038 A 
ATOM     10  C   LIG    1       25.955 -30.667   6.647  0.00  0.00    +0.013 A 
ATOM     11  C   LIG    1       25.894 -31.819   7.434  0.00  0.00    +0.005 A 
BRANCH   7  12
ATOM     12  C   LIG    1       23.192 -30.878   9.846  0.00  0.00    -0.059 C 
ATOM     13  C   LIG    1       22.357 -30.942  10.722  0.00  0.00    -0.040 C 
BRANCH  13  14
ATOM     14  C   LIG    1       21.315 -31.072  11.662  0.00  0.00    +0.136 A 
ATOM     15  N   LIG    1       19.979 -31.180  11.363  0.00  0.00    -0.205 N 
ATOM     16  C   LIG    1       19.317 -31.363  12.569  0.00  0.00    +0.155 A 
ATOM     17  C   LIG    1       17.917 -31.548  12.516  0.00  0.00    +0.050 A 
ATOM     18  C   LIG    1       17.296 -31.522  11.330  0.00  0.00    +0.025 A 
ATOM     19  C   LIG    1       18.136 -31.294  10.131  0.00  0.00    +0.133 A 
ATOM     20  N   LIG    1       20.148 -31.343  13.591  0.00  0.00    -0.233 NA
ATOM     21  N   LIG    1       19.421 -31.131  10.111  0.00  0.00    -0.172 NA
ATOM     22  C   LIG    1       21.392 -31.159  13.035  0.00  0.00    +0.150 A 
ENDBRANCH  13  14
ENDBRANCH   7  12
ENDBRANCH   1   9
BRANCH   2  23
ATOM     23  C   LIG    1       25.057 -25.837   6.322  0.00  0.00    +0.034 A 
ATOM     24  C   LIG    1       25.483 -24.803   7.168  0.00  0.00    +0.036 A 
ATOM     25  C   LIG    1       25.500 -23.444   6.753  0.00  0.00    +0.061 A 
ATOM     26  C   LIG    1       25.093 -23.131   5.442  0.00  0.00    -0.022 A 
ATOM     27  C   LIG    1       24.706 -24.185   4.592  0.00  0.00    +0.007 A 
ATOM     28  C   LIG    1       24.674 -25.511   5.030  0.00  0.00    +0.024 A 
BRANCH  25  29
ATOM     29  C   LIG    1       25.968 -22.434   7.783  0.00  0.00    +0.418 C 
ATOM     30  F   LIG    1       25.110 -21.372   7.853  0.00  0.00    -0.166 F 
ATOM     31  F   LIG    1       27.174 -21.892   7.443  0.00  0.00    -0.166 F 
ATOM     32  F   LIG    1       26.093 -22.862   9.063  0.00  0.00    -0.166 F 
ENDBRANCH  25  29
BRANCH  26  33
ATOM     33  C   LIG    1       25.052 -21.725   4.868  0.00  0.00    +0.120 C 
BRANCH  33  34
ATOM     34  N   LIG    1       23.887 -21.430   4.016  0.00  0.00    -0.296 NA
ATOM     35  C   LIG    1       22.688 -21.187   4.857  0.00  0.00    +0.100 C 
ATOM     36  C   LIG    1       22.670 -19.819   5.594  0.00  0.00    +0.099 C 
ATOM     37  N   LIG    1       22.988 -18.634   4.771  0.00  0.00    -0.303 NA
ATOM     38  C   LIG    1       21.827 -18.184   4.005  0.00  0.00    +0.105 C 
ATOM     39  C   LIG    1       24.137 -18.910   3.884  0.00  0.00    +0.099 C 
ATOM     40  C   LIG    1       24.057 -20.259   3.136  0.00  0.00    +0.100 C 
ENDBRANCH  33  34
ENDBRANCH  26  33
ENDBRANCH   2  23
TORSDOF 7
ENDMDL
MODEL 9
REMARK VINA RESULT:      -8.0      1.858      3.048
REMARK  Name = *****
REMARK                            x       y       z     vdW  Elec       q    Type
REMARK                         _______ _______ _______ _____ _____    ______ ____
ROOT
ATOM      1  C   LIG    1       24.292 -25.869   6.098  0.00  0.00    +0.248 C 
ATOM      2  N   LIG    1       24.825 -26.549   7.185  0.00  0.00    -0.281 N 
ATOM      3  H   LIG    1       25.112 -25.999   7.982  0.00  0.00    +0.155 HD
ATOM      4  O   LIG    1       23.987 -26.353   5.014  0.00  0.00    -0.270 OA
ENDROOT
BRANCH   1   9
ATOM      5  C   LIG    1       23.688 -20.142   6.872  0.00  0.00    +0.045 C 
ATOM      6  C   LIG    1       23.858 -21.616   6.636  0.00  0.00    -0.035 A 
ATOM      7  C   LIG    1       25.137 -22.198   6.494  0.00  0.00    +0.029 A 
ATOM      8  C   LIG    1       25.251 -23.585   6.302  0.00  0.00    +0.030 A 
ATOM      9  C   LIG    1       24.112 -24.399   6.276  0.00  0.00    +0.038 A 
ATOM     10  C   LIG    1       22.845 -23.818   6.399  0.00  0.00    +0.013 A 
ATOM     11  C   LIG    1       22.724 -22.439   6.584  0.00  0.00    +0.005 A 
BRANCH   7  12
ATOM     12  C   LIG    1       26.324 -21.414   6.601  0.00  0.00    -0.059 C 
ATOM     13  C   LIG    1       27.309 -20.709   6.611  0.00  0.00    -0.040 C 
BRANCH  13  14
ATOM     14  C   LIG    1       28.414 -19.838   6.524  0.00  0.00    +0.136 A 
ATOM     15  N   LIG    1       29.475 -19.806   7.395  0.00  0.00    -0.205 N 
ATOM     16  C   LIG    1       30.365 -18.862   6.901  0.00  0.00    +0.155 A 
ATOM     17  C   LIG    1       31.573 -18.680   7.611  0.00  0.00    +0.050 A 
ATOM     18  C   LIG    1       31.799 -19.397   8.718  0.00  0.00    +0.025 A 
ATOM     19  C   LIG    1       30.743 -20.350   9.134  0.00  0.00    +0.133 A 
ATOM     20  N   LIG    1       29.910 -18.289   5.805  0.00  0.00    -0.233 NA
ATOM     21  N   LIG    1       29.623 -20.573   8.523  0.00  0.00    -0.172 NA
ATOM     22  C   LIG    1       28.696 -18.889   5.566  0.00  0.00    +0.150 A 
ENDBRANCH  13  14
ENDBRANCH   7  12
ENDBRANCH   1   9
BRANCH   2  23
ATOM     23  C   LIG    1       25.091 -27.934   7.273  0.00  0.00    +0.034 A 
ATOM     24  C   LIG    1       25.776 -28.403   8.403  0.00  0.00    +0.036 A 
ATOM     25  C   LIG    1       26.120 -29.772   8.566  0.00  0.00    +0.061 A 
ATOM     26  C   LIG    1       25.742 -30.688   7.565  0.00  0.00    -0.022 A 
ATOM     27  C   LIG    1       25.020 -30.207   6.456  0.00  0.00    +0.007 A 
ATOM     28  C   LIG    1       24.715 -28.853   6.306  0.00  0.00    +0.024 A 
BRANCH  25  29
ATOM     29  C   LIG    1       26.876 -30.128   9.831  0.00  0.00    +0.418 C 
ATOM     30  F   LIG    1       27.816 -29.179  10.123  0.00  0.00    -0.166 F 
ATOM     31  F   LIG    1       27.580 -31.289   9.685  0.00  0.00    -0.166 F 
ATOM     32  F   LIG    1       26.155 -30.265  10.970  0.00  0.00    -0.166 F 
ENDBRANCH  25  29
BRANCH  26  33
ATOM     33  C   LIG    1       26.050 -32.175   7.602  0.00  0.00    +0.120 C 
BRANCH  33  34
ATOM     34  N   LIG    1       24.882 -33.052   7.803  0.00  0.00    -0.296 NA
ATOM     35  C   LIG    1       25.033 -33.824   9.061  0.00  0.00    +0.100 C 
ATOM     36  C   LIG    1       24.816 -33.005  10.365  0.00  0.00    +0.099 C 
ATOM     37  N   LIG    1       23.605 -32.160  10.404  0.00  0.00    -0.303 NA
ATOM     38  C   LIG    1       22.416 -32.938  10.750  0.00  0.00    +0.105 C 
ATOM     39  C   LIG    1       23.422 -31.451   9.121  0.00  0.00    +0.099 C 
ATOM     40  C   LIG    1       23.592 -32.342   7.870  0.00  0.00    +0.100 C 
ENDBRANCH  33  34
ENDBRANCH  26  33
ENDBRANCH   2  23
TORSDOF 7
ENDMDL
