MODEL 1
REMARK VINA RESULT:      -5.2      0.000      0.000
REMARK  Name = *****
REMARK                            x       y       z     vdW  Elec       q    Type
REMARK                         _______ _______ _______ _____ _____    ______ ____
ROOT
ATOM      1  C   LIG    1       26.460 -14.157   3.883  0.00  0.00    +0.013 C 
ENDROOT
BRANCH   1   2
ATOM      2  C   LIG    1       24.921 -14.213   4.125  0.00  0.00    +0.008 C 
BRANCH   2   4
ATOM      3  C   LIG    1       23.843 -11.871   4.156  0.00  0.00    +0.007 C 
ATOM      4  C   LIG    1       24.059 -13.170   3.360  0.00  0.00    -0.017 C 
ATOM      5  C   LIG    1       24.680 -12.800   2.012  0.00  0.00    +0.007 C 
ENDBRANCH   2   4
ENDBRANCH   1   2
BRANCH   1   6
ATOM      6  C   LIG    1       27.071 -15.546   3.610  0.00  0.00    +0.081 C 
BRANCH   6   7
ATOM      7  N   LIG    1       26.028 -16.470   3.153  0.00  0.00    -0.330 NA
ATOM      8  H   LIG    1       26.441 -17.199   2.560  0.00  0.00    +0.118 HD
ATOM      9  H   LIG    1       25.340 -15.992   2.566  0.00  0.00    +0.118 HD
ENDBRANCH   6   7
ENDBRANCH   1   6
BRANCH   1  10
ATOM     10  C   LIG    1       27.192 -13.413   5.033  0.00  0.00    +0.125 C 
BRANCH  10  11
ATOM     11  C   LIG    1       28.492 -12.746   4.666  0.00  0.00    +0.305 C 
ATOM     12  O   LIG    1       29.114 -12.970   3.620  0.00  0.00    -0.251 OA
BRANCH  11  13
ATOM     13  O   LIG    1       28.943 -11.883   5.599  0.00  0.00    -0.481 OA
ATOM     14  H   LIG    1       29.762 -11.417   5.304  0.00  0.00    +0.295 HD
ENDBRANCH  11  13
ENDBRANCH  10  11
ENDBRANCH   1  10
TORSDOF 7
ENDMDL
MODEL 2
REMARK VINA RESULT:      -5.0      2.581      3.323
REMARK  Name = *****
REMARK                            x       y       z     vdW  Elec       q    Type
REMARK                         _______ _______ _______ _____ _____    ______ ____
ROOT
ATOM      1  C   LIG    1       27.149 -14.055   4.518  0.00  0.00    +0.013 C 
ENDROOT
BRANCH   1   2
ATOM      2  C   LIG    1       25.761 -13.425   4.842  0.00  0.00    +0.008 C 
BRANCH   2   4
ATOM      3  C   LIG    1       23.550 -14.638   4.306  0.00  0.00    +0.007 C 
ATOM      4  C   LIG    1       24.630 -13.664   3.803  0.00  0.00    -0.017 C 
ATOM      5  C   LIG    1       23.940 -12.359   3.404  0.00  0.00    +0.007 C 
ENDBRANCH   2   4
ENDBRANCH   1   2
BRANCH   1   6
ATOM      6  C   LIG    1       28.277 -13.007   4.441  0.00  0.00    +0.081 C 
BRANCH   6   7
ATOM      7  N   LIG    1       29.155 -13.299   3.302  0.00  0.00    -0.330 NA
ATOM      8  H   LIG    1       30.098 -12.940   3.486  0.00  0.00    +0.118 HD
ATOM      9  H   LIG    1       28.835 -12.820   2.456  0.00  0.00    +0.118 HD
ENDBRANCH   6   7
ENDBRANCH   1   6
BRANCH   1  10
ATOM     10  C   LIG    1       27.089 -14.943   3.245  0.00  0.00    +0.125 C 
BRANCH  10  11
ATOM     11  C   LIG    1       26.955 -16.426   3.479  0.00  0.00    +0.305 C 
ATOM     12  O   LIG    1       25.959 -17.089   3.165  0.00  0.00    -0.251 OA
BRANCH  11  13
ATOM     13  O   LIG    1       28.022 -16.978   4.092  0.00  0.00    -0.481 OA
ATOM     14  H   LIG    1       28.821 -16.973   3.513  0.00  0.00    +0.295 HD
ENDBRANCH  11  13
ENDBRANCH  10  11
ENDBRANCH   1  10
TORSDOF 7
ENDMDL
MODEL 3
REMARK VINA RESULT:      -4.8      0.832      1.180
REMARK  Name = *****
REMARK                            x       y       z     vdW  Elec       q    Type
REMARK                         _______ _______ _______ _____ _____    ______ ____
ROOT
ATOM      1  C   LIG    1       27.247 -14.467   3.402  0.00  0.00    +0.013 C 
ENDROOT
BRANCH   1   2
ATOM      2  C   LIG    1       25.960 -14.045   2.632  0.00  0.00    +0.008 C 
BRANCH   2   4
ATOM      3  C   LIG    1       24.232 -12.133   2.538  0.00  0.00    +0.007 C 
ATOM      4  C   LIG    1       24.930 -13.185   3.417  0.00  0.00    -0.017 C 
ATOM      5  C   LIG    1       23.849 -14.050   4.068  0.00  0.00    +0.007 C 
ENDBRANCH   2   4
ENDBRANCH   1   2
BRANCH   1   6
ATOM      6  C   LIG    1       27.234 -15.951   3.817  0.00  0.00    +0.081 C 
BRANCH   6   7
ATOM      7  N   LIG    1       26.113 -16.642   3.169  0.00  0.00    -0.330 NA
ATOM      8  H   LIG    1       25.398 -15.962   2.890  0.00  0.00    +0.118 HD
ATOM      9  H   LIG    1       25.649 -17.283   3.817  0.00  0.00    +0.118 HD
ENDBRANCH   6   7
ENDBRANCH   1   6
BRANCH   1  10
ATOM     10  C   LIG    1       27.525 -13.526   4.606  0.00  0.00    +0.125 C 
BRANCH  10  11
ATOM     11  C   LIG    1       28.728 -12.626   4.478  0.00  0.00    +0.305 C 
ATOM     12  O   LIG    1       29.475 -12.607   3.491  0.00  0.00    -0.251 OA
BRANCH  11  13
ATOM     13  O   LIG    1       28.939 -11.844   5.555  0.00  0.00    -0.481 OA
ATOM     14  H   LIG    1       28.131 -11.767   6.117  0.00  0.00    +0.295 HD
ENDBRANCH  11  13
ENDBRANCH  10  11
ENDBRANCH   1  10
TORSDOF 7
ENDMDL
MODEL 4
REMARK VINA RESULT:      -4.4      6.397      7.200
REMARK  Name = *****
REMARK                            x       y       z     vdW  Elec       q    Type
REMARK                         _______ _______ _______ _____ _____    ______ ____
ROOT
ATOM      1  C   LIG    1       25.574 -20.103   5.595  0.00  0.00    +0.013 C 
ENDROOT
BRANCH   1   2
ATOM      2  C   LIG    1       24.141 -20.539   6.024  0.00  0.00    +0.008 C 
BRANCH   2   4
ATOM      3  C   LIG    1       21.905 -21.449   5.119  0.00  0.00    +0.007 C 
ATOM      4  C   LIG    1       23.024 -20.408   4.950  0.00  0.00    -0.017 C 
ATOM      5  C   LIG    1       22.383 -19.019   4.964  0.00  0.00    +0.007 C 
ENDBRANCH   2   4
ENDBRANCH   1   2
BRANCH   1   6
ATOM      6  C   LIG    1       25.766 -20.107   4.065  0.00  0.00    +0.081 C 
BRANCH   6   7
ATOM      7  N   LIG    1       26.031 -18.744   3.591  0.00  0.00    -0.330 NA
ATOM      8  H   LIG    1       25.380 -18.504   2.835  0.00  0.00    +0.118 HD
ATOM      9  H   LIG    1       26.967 -18.668   3.185  0.00  0.00    +0.118 HD
ENDBRANCH   6   7
ENDBRANCH   1   6
BRANCH   1  10
ATOM     10  C   LIG    1       26.665 -20.934   6.323  0.00  0.00    +0.125 C 
BRANCH  10  11
ATOM     11  C   LIG    1       28.073 -20.403   6.229  0.00  0.00    +0.305 C 
ATOM     12  O   LIG    1       28.370 -19.315   5.720  0.00  0.00    -0.251 OA
BRANCH  11  13
ATOM     13  O   LIG    1       29.003 -21.238   6.735  0.00  0.00    -0.481 OA
ATOM     14  H   LIG    1       28.922 -22.148   6.363  0.00  0.00    +0.295 HD
ENDBRANCH  11  13
ENDBRANCH  10  11
ENDBRANCH   1  10
TORSDOF 7
ENDMDL
MODEL 5
REMARK VINA RESULT:      -4.3      6.387      7.413
REMARK  Name = *****
REMARK                            x       y       z     vdW  Elec       q    Type
REMARK                         _______ _______ _______ _____ _____    ______ ____
ROOT
ATOM      1  C   LIG    1       24.527 -21.275   5.530  0.00  0.00    +0.013 C 
ENDROOT
BRANCH   1   2
ATOM      2  C   LIG    1       24.363 -20.544   4.163  0.00  0.00    +0.008 C 
BRANCH   2   4
ATOM      3  C   LIG    1       25.305 -18.315   3.274  0.00  0.00    +0.007 C 
ATOM      4  C   LIG    1       24.288 -18.992   4.209  0.00  0.00    -0.017 C 
ATOM      5  C   LIG    1       22.895 -18.479   3.843  0.00  0.00    +0.007 C 
ENDBRANCH   2   4
ENDBRANCH   1   2
BRANCH   1   6
ATOM      6  C   LIG    1       23.177 -21.569   6.214  0.00  0.00    +0.081 C 
BRANCH   6   7
ATOM      7  N   LIG    1       22.100 -21.568   5.218  0.00  0.00    -0.330 NA
ATOM      8  H   LIG    1       21.890 -20.606   4.931  0.00  0.00    +0.118 HD
ATOM      9  H   LIG    1       21.231 -21.937   5.612  0.00  0.00    +0.118 HD
ENDBRANCH   6   7
ENDBRANCH   1   6
BRANCH   1  10
ATOM     10  C   LIG    1       25.505 -20.517   6.468  0.00  0.00    +0.125 C 
BRANCH  10  11
ATOM     11  C   LIG    1       26.968 -20.832   6.290  0.00  0.00    +0.305 C 
ATOM     12  O   LIG    1       27.614 -21.572   7.043  0.00  0.00    -0.251 OA
BRANCH  11  13
ATOM     13  O   LIG    1       27.532 -20.211   5.234  0.00  0.00    -0.481 OA
ATOM     14  H   LIG    1       28.504 -20.378   5.187  0.00  0.00    +0.295 HD
ENDBRANCH  11  13
ENDBRANCH  10  11
ENDBRANCH   1  10
TORSDOF 7
ENDMDL
MODEL 6
REMARK VINA RESULT:      -4.3      6.233      7.907
REMARK  Name = *****
REMARK                            x       y       z     vdW  Elec       q    Type
REMARK                         _______ _______ _______ _____ _____    ______ ____
ROOT
ATOM      1  C   LIG    1       25.203 -20.451   5.954  0.00  0.00    +0.013 C 
ENDROOT
BRANCH   1   2
ATOM      2  C   LIG    1       26.488 -21.219   6.388  0.00  0.00    +0.008 C 
BRANCH   2   4
ATOM      3  C   LIG    1       28.976 -21.196   7.062  0.00  0.00    +0.007 C 
ATOM      4  C   LIG    1       27.736 -20.354   6.720  0.00  0.00    -0.017 C 
ATOM      5  C   LIG    1       28.102 -19.420   5.566  0.00  0.00    +0.007 C 
ENDBRANCH   2   4
ENDBRANCH   1   2
BRANCH   1   6
ATOM      6  C   LIG    1       23.948 -20.905   6.725  0.00  0.00    +0.081 C 
BRANCH   6   7
ATOM      7  N   LIG    1       22.743 -20.600   5.945  0.00  0.00    -0.330 NA
ATOM      8  H   LIG    1       22.870 -20.902   4.973  0.00  0.00    +0.118 HD
ATOM      9  H   LIG    1       22.575 -19.592   5.903  0.00  0.00    +0.118 HD
ENDBRANCH   6   7
ENDBRANCH   1   6
BRANCH   1  10
ATOM     10  C   LIG    1       24.996 -20.508   4.416  0.00  0.00    +0.125 C 
BRANCH  10  11
ATOM     11  C   LIG    1       24.716 -19.191   3.738  0.00  0.00    +0.305 C 
ATOM     12  O   LIG    1       23.581 -18.730   3.564  0.00  0.00    -0.251 OA
BRANCH  11  13
ATOM     13  O   LIG    1       25.825 -18.556   3.309  0.00  0.00    -0.481 OA
ATOM     14  H   LIG    1       26.030 -17.763   3.860  0.00  0.00    +0.295 HD
ENDBRANCH  11  13
ENDBRANCH  10  11
ENDBRANCH   1  10
TORSDOF 7
ENDMDL
MODEL 7
REMARK VINA RESULT:      -4.3      7.128      8.391
REMARK  Name = *****
REMARK                            x       y       z     vdW  Elec       q    Type
REMARK                         _______ _______ _______ _____ _____    ______ ____
ROOT
ATOM      1  C   LIG    1       25.261 -20.812   5.637  0.00  0.00    +0.013 C 
ENDROOT
BRANCH   1   2
ATOM      2  C   LIG    1       26.413 -20.169   6.466  0.00  0.00    +0.008 C 
BRANCH   2   4
ATOM      3  C   LIG    1       28.634 -19.197   5.589  0.00  0.00    +0.007 C 
ATOM      4  C   LIG    1       27.862 -20.466   5.990  0.00  0.00    -0.017 C 
ATOM      5  C   LIG    1       28.675 -21.194   7.062  0.00  0.00    +0.007 C 
ENDBRANCH   2   4
ENDBRANCH   1   2
BRANCH   1   6
ATOM      6  C   LIG    1       25.337 -20.460   4.138  0.00  0.00    +0.081 C 
BRANCH   6   7
ATOM      7  N   LIG    1       25.434 -19.006   3.970  0.00  0.00    -0.330 NA
ATOM      8  H   LIG    1       26.387 -18.692   4.180  0.00  0.00    +0.118 HD
ATOM      9  H   LIG    1       24.828 -18.515   4.631  0.00  0.00    +0.118 HD
ENDBRANCH   6   7
ENDBRANCH   1   6
BRANCH   1  10
ATOM     10  C   LIG    1       23.869 -20.485   6.244  0.00  0.00    +0.125 C 
BRANCH  10  11
ATOM     11  C   LIG    1       22.728 -20.385   5.264  0.00  0.00    +0.305 C 
ATOM     12  O   LIG    1       22.341 -19.323   4.759  0.00  0.00    -0.251 OA
BRANCH  11  13
ATOM     13  O   LIG    1       22.139 -21.567   4.993  0.00  0.00    -0.481 OA
ATOM     14  H   LIG    1       22.582 -22.036   4.246  0.00  0.00    +0.295 HD
ENDBRANCH  11  13
ENDBRANCH  10  11
ENDBRANCH   1  10
TORSDOF 7
ENDMDL
MODEL 8
REMARK VINA RESULT:      -4.2      5.874      6.821
REMARK  Name = *****
REMARK                            x       y       z     vdW  Elec       q    Type
REMARK                         _______ _______ _______ _____ _____    ______ ____
ROOT
ATOM      1  C   LIG    1       23.285 -20.615   4.510  0.00  0.00    +0.013 C 
ENDROOT
BRANCH   1   2
ATOM      2  C   LIG    1       22.719 -19.300   5.127  0.00  0.00    +0.008 C 
BRANCH   2   4
ATOM      3  C   LIG    1       20.792 -18.557   3.583  0.00  0.00    +0.007 C 
ATOM      4  C   LIG    1       22.195 -18.233   4.126  0.00  0.00    -0.017 C 
ATOM      5  C   LIG    1       22.148 -16.839   4.755  0.00  0.00    +0.007 C 
ENDBRANCH   2   4
ENDBRANCH   1   2
BRANCH   1   6
ATOM      6  C   LIG    1       23.863 -21.571   5.572  0.00  0.00    +0.081 C 
BRANCH   6   7
ATOM      7  N   LIG    1       24.328 -20.806   6.734  0.00  0.00    -0.330 NA
ATOM      8  H   LIG    1       25.260 -20.421   6.549  0.00  0.00    +0.118 HD
ATOM      9  H   LIG    1       24.433 -21.406   7.555  0.00  0.00    +0.118 HD
ENDBRANCH   6   7
ENDBRANCH   1   6
BRANCH   1  10
ATOM     10  C   LIG    1       24.301 -20.321   3.373  0.00  0.00    +0.125 C 
BRANCH  10  11
ATOM     11  C   LIG    1       25.467 -19.440   3.741  0.00  0.00    +0.305 C 
ATOM     12  O   LIG    1       25.586 -18.262   3.380  0.00  0.00    -0.251 OA
BRANCH  11  13
ATOM     13  O   LIG    1       26.399 -20.058   4.494  0.00  0.00    -0.481 OA
ATOM     14  H   LIG    1       26.460 -19.667   5.398  0.00  0.00    +0.295 HD
ENDBRANCH  11  13
ENDBRANCH  10  11
ENDBRANCH   1  10
TORSDOF 7
ENDMDL
MODEL 9
REMARK VINA RESULT:      -4.2      5.625      7.096
REMARK  Name = *****
REMARK                            x       y       z     vdW  Elec       q    Type
REMARK                         _______ _______ _______ _____ _____    ______ ____
ROOT
ATOM      1  C   LIG    1       23.904 -19.501   4.397  0.00  0.00    +0.013 C 
ENDROOT
BRANCH   1   2
ATOM      2  C   LIG    1       24.178 -21.012   4.664  0.00  0.00    +0.008 C 
BRANCH   2   4
ATOM      3  C   LIG    1       25.710 -20.676   6.710  0.00  0.00    +0.007 C 
ATOM      4  C   LIG    1       24.489 -21.413   6.133  0.00  0.00    -0.017 C 
ATOM      5  C   LIG    1       23.299 -21.149   7.058  0.00  0.00    +0.007 C 
ENDBRANCH   2   4
ENDBRANCH   1   2
BRANCH   1   6
ATOM      6  C   LIG    1       22.401 -19.173   4.311  0.00  0.00    +0.081 C 
BRANCH   6   7
ATOM      7  N   LIG    1       22.175 -17.765   4.657  0.00  0.00    -0.330 NA
ATOM      8  H   LIG    1       21.810 -17.694   5.613  0.00  0.00    +0.118 HD
ATOM      9  H   LIG    1       21.462 -17.345   4.055  0.00  0.00    +0.118 HD
ENDBRANCH   6   7
ENDBRANCH   1   6
BRANCH   1  10
ATOM     10  C   LIG    1       24.685 -18.991   3.155  0.00  0.00    +0.125 C 
BRANCH  10  11
ATOM     11  C   LIG    1       25.863 -18.095   3.437  0.00  0.00    +0.305 C 
ATOM     12  O   LIG    1       25.954 -16.925   3.042  0.00  0.00    -0.251 OA
BRANCH  11  13
ATOM     13  O   LIG    1       26.839 -18.690   4.152  0.00  0.00    -0.481 OA
ATOM     14  H   LIG    1       27.001 -18.228   5.010  0.00  0.00    +0.295 HD
ENDBRANCH  11  13
ENDBRANCH  10  11
ENDBRANCH   1  10
TORSDOF 7
ENDMDL
