MODEL 1
REMARK VINA RESULT:       9.6      0.000      0.000
REMARK  Name = *****
REMARK                            x       y       z     vdW  Elec       q    Type
REMARK                         _______ _______ _______ _____ _____    ______ ____
ROOT
ATOM      1  C   LIG    1       26.036 -14.316   4.541  0.00  0.00    +0.180 C 
ATOM      2  C   LIG    1       25.438 -14.908   3.157  0.00  0.00    +0.021 C 
ATOM      3  C   LIG    1       23.970 -15.295   3.496  0.00  0.00    +0.006 C 
ATOM      4  C   LIG    1       23.759 -16.711   4.111  0.00  0.00    +0.034 C 
ATOM      5  C   LIG    1       24.471 -17.837   3.324  0.00  0.00    +0.153 C 
ATOM      6  C   LIG    1       25.973 -17.473   3.184  0.00  0.00    +0.154 C 
ATOM      7  F   LIG    1       23.952 -17.805   2.045  0.00  0.00    -0.238 F 
ATOM      8  C   LIG    1       24.180 -19.300   3.912  0.00  0.00    +0.044 C 
ATOM      9  C   LIG    1       22.685 -19.497   4.306  0.00  0.00    -0.053 C 
ATOM     10  C   LIG    1       22.323 -20.679   4.865  0.00  0.00    +0.051 C 
ATOM     11  C   LIG    1       23.094 -20.901   6.146  0.00  0.00    +0.179 C 
ATOM     12  C   LIG    1       24.477 -20.342   6.205  0.00  0.00    +0.047 C 
ATOM     13  O   LIG    1       22.637 -21.572   7.062  0.00  0.00    -0.288 OA
ATOM     14  C   LIG    1       21.976 -18.299   4.903  0.00  0.00    +0.032 C 
ATOM     15  C   LIG    1       24.556 -20.367   2.844  0.00  0.00    +0.023 C 
ATOM     16  C   LIG    1       24.985 -19.636   5.177  0.00  0.00    -0.009 C 
ATOM     17  C   LIG    1       22.250 -17.010   4.158  0.00  0.00    +0.011 C 
ATOM     18  C   LIG    1       23.568 -14.173   4.463  0.00  0.00    +0.012 C 
ATOM     19  C   LIG    1       25.381 -13.847   2.014  0.00  0.00    +0.016 C 
ATOM     20  C   LIG    1       26.204 -16.101   2.548  0.00  0.00    +0.045 C 
ATOM     21  C   LIG    1       24.754 -14.063   5.420  0.00  0.00    +0.038 C 
ATOM     22  C   LIG    1       24.658 -12.783   6.250  0.00  0.00    +0.012 C 
ENDROOT
BRANCH   6  23
ATOM     23  O   LIG    1       26.687 -18.408   2.373  0.00  0.00    -0.389 OA
ATOM     24  H   LIG    1       26.284 -18.379   1.482  0.00  0.00    +0.210 HD
ENDBRANCH   6  23
BRANCH   1  25
ATOM     25  C   LIG    1       26.875 -13.009   4.300  0.00  0.00    +0.192 C 
ATOM     26  O   LIG    1       26.601 -12.246   3.367  0.00  0.00    -0.292 OA
BRANCH  25  27
ATOM     27  C   LIG    1       28.012 -12.693   5.253  0.00  0.00    +0.187 C 
ATOM     28 CL   LIG    1       29.241 -11.680   4.466  0.00  0.00    -0.117 Cl
ENDBRANCH  25  27
ENDBRANCH   1  25
BRANCH   1  29
ATOM     29  O   LIG    1       26.796 -15.397   5.161  0.00  0.00    -0.450 OA
BRANCH  29  30
ATOM     30  C   LIG    1       28.026 -15.729   4.706  0.00  0.00    +0.308 C 
ATOM     31  O   LIG    1       28.907 -14.929   4.415  0.00  0.00    -0.251 OA
BRANCH  30  33
ATOM     32  C   LIG    1       29.327 -17.809   5.258  0.00  0.00    +0.015 C 
ATOM     33  C   LIG    1       28.122 -17.233   4.527  0.00  0.00    +0.117 C 
ENDBRANCH  30  33
ENDBRANCH  29  30
ENDBRANCH   1  29
TORSDOF 6
ENDMDL
MODEL 2
REMARK VINA RESULT:      12.2      2.836      6.954
REMARK  Name = *****
REMARK                            x       y       z     vdW  Elec       q    Type
REMARK                         _______ _______ _______ _____ _____    ______ ____
ROOT
ATOM      1  C   LIG    1       24.107 -19.734   5.438  0.00  0.00    +0.180 C 
ATOM      2  C   LIG    1       24.429 -19.404   3.885  0.00  0.00    +0.021 C 
ATOM      3  C   LIG    1       25.953 -19.093   3.857  0.00  0.00    +0.006 C 
ATOM      4  C   LIG    1       26.358 -17.623   4.180  0.00  0.00    +0.034 C 
ATOM      5  C   LIG    1       25.553 -16.572   3.378  0.00  0.00    +0.153 C 
ATOM      6  C   LIG    1       24.040 -16.829   3.603  0.00  0.00    +0.154 C 
ATOM      7  F   LIG    1       25.790 -16.836   2.044  0.00  0.00    -0.238 F 
ATOM      8  C   LIG    1       26.033 -15.067   3.651  0.00  0.00    +0.044 C 
ATOM      9  C   LIG    1       27.586 -14.936   3.702  0.00  0.00    -0.053 C 
ATOM     10  C   LIG    1       28.115 -13.718   3.978  0.00  0.00    +0.051 C 
ATOM     11  C   LIG    1       27.642 -13.246   5.334  0.00  0.00    +0.179 C 
ATOM     12  C   LIG    1       26.276 -13.675   5.758  0.00  0.00    +0.047 C 
ATOM     13  O   LIG    1       28.313 -12.487   6.019  0.00  0.00    -0.288 OA
ATOM     14  C   LIG    1       28.344 -16.087   4.330  0.00  0.00    +0.032 C 
ATOM     15  C   LIG    1       25.494 -14.143   2.522  0.00  0.00    +0.023 C 
ATOM     16  C   LIG    1       25.530 -14.483   4.981  0.00  0.00    -0.009 C 
ATOM     17  C   LIG    1       27.856 -17.444   3.875  0.00  0.00    +0.011 C 
ATOM     18  C   LIG    1       26.494 -20.088   4.893  0.00  0.00    +0.012 C 
ATOM     19  C   LIG    1       24.193 -20.624   2.941  0.00  0.00    +0.016 C 
ATOM     20  C   LIG    1       23.612 -18.256   3.257  0.00  0.00    +0.045 C 
ATOM     21  C   LIG    1       25.531 -19.957   6.072  0.00  0.00    +0.038 C 
ATOM     22  C   LIG    1       25.736 -21.104   7.062  0.00  0.00    +0.012 C 
ENDROOT
BRANCH   6  23
ATOM     23  O   LIG    1       23.218 -15.970   2.810  0.00  0.00    -0.389 OA
ATOM     24  H   LIG    1       23.372 -15.057   3.125  0.00  0.00    +0.210 HD
ENDBRANCH   6  23
BRANCH   1  25
ATOM     25  C   LIG    1       23.173 -20.989   5.585  0.00  0.00    +0.192 C 
ATOM     26  O   LIG    1       22.943 -21.478   6.696  0.00  0.00    -0.292 OA
BRANCH  25  27
ATOM     27  C   LIG    1       22.542 -21.572   4.334  0.00  0.00    +0.187 C 
ATOM     28 CL   LIG    1       20.777 -21.366   4.356  0.00  0.00    -0.117 Cl
ENDBRANCH  25  27
ENDBRANCH   1  25
BRANCH   1  29
ATOM     29  O   LIG    1       23.549 -18.514   6.014  0.00  0.00    -0.450 OA
BRANCH  29  30
ATOM     30  C   LIG    1       22.339 -18.055   5.623  0.00  0.00    +0.308 C 
ATOM     31  O   LIG    1       21.648 -18.554   4.742  0.00  0.00    -0.251 OA
BRANCH  30  33
ATOM     32  C   LIG    1       22.045 -15.562   5.462  0.00  0.00    +0.015 C 
ATOM     33  C   LIG    1       22.002 -16.780   6.375  0.00  0.00    +0.117 C 
ENDBRANCH  30  33
ENDBRANCH  29  30
ENDBRANCH   1  29
TORSDOF 6
ENDMDL
