MODEL 1
REMARK VINA RESULT:       8.9      0.000      0.000
REMARK  Name = *****
REMARK                            x       y       z     vdW  Elec       q    Type
REMARK                         _______ _______ _______ _____ _____    ______ ____
ROOT
ATOM      1  C   LIG    1       27.047 -16.825   3.434  0.00  0.00    -0.021 C 
ATOM      2  C   LIG    1       26.465 -15.603   3.533  0.00  0.00    -0.035 C 
ATOM      3  C   LIG    1       24.964 -15.411   3.390  0.00  0.00    +0.059 C 
ATOM      4  C   LIG    1       24.531 -14.326   2.375  0.00  0.00    +0.085 C 
ATOM      5  C   LIG    1       23.031 -14.120   2.448  0.00  0.00    -0.011 C 
ATOM      6  C   LIG    1       22.325 -14.384   3.551  0.00  0.00    +0.009 C 
ATOM      7  C   LIG    1       22.966 -14.861   4.778  0.00  0.00    +0.051 C 
ATOM      8  S   LIG    1       25.285 -12.686   2.618  0.00  0.00    -0.116 S 
ATOM      9  C   LIG    1       26.882 -13.095   3.299  0.00  0.00    +0.016 A 
ATOM     10  C   LIG    1       27.745 -11.988   3.448  0.00  0.00    +0.015 A 
ATOM     11  C   LIG    1       29.010 -12.122   4.011  0.00  0.00    +0.001 A 
ATOM     12  C   LIG    1       29.421 -13.365   4.462  0.00  0.00    +0.001 A 
ATOM     13  C   LIG    1       28.574 -14.469   4.320  0.00  0.00    +0.009 A 
ATOM     14  C   LIG    1       24.230 -15.329   4.713  0.00  0.00    -0.005 C 
ATOM     15  C   LIG    1       27.305 -14.375   3.701  0.00  0.00    -0.008 A 
ENDROOT
BRANCH   7  16
ATOM     16  C   LIG    1       22.155 -14.878   6.053  0.00  0.00    +0.417 C 
ATOM     17  F   LIG    1       20.884 -15.304   5.842  0.00  0.00    -0.166 F 
ATOM     18  F   LIG    1       22.065 -13.634   6.596  0.00  0.00    -0.166 F 
ATOM     19  F   LIG    1       22.683 -15.678   7.017  0.00  0.00    -0.166 F 
ENDBRANCH   7  16
BRANCH   1  20
ATOM     20  C   LIG    1       26.383 -18.180   3.329  0.00  0.00    +0.043 C 
BRANCH  20  21
ATOM     21  C   LIG    1       26.725 -19.150   4.483  0.00  0.00    +0.088 C 
BRANCH  21  25
ATOM     22  N   LIG    1       23.364 -20.186   5.889  0.00  0.00    -0.298 NA
ATOM     23  C   LIG    1       24.673 -20.228   6.576  0.00  0.00    +0.100 C 
ATOM     24  C   LIG    1       25.765 -21.004   5.809  0.00  0.00    +0.100 C 
ATOM     25  N   LIG    1       26.046 -20.464   4.466  0.00  0.00    -0.300 NA
ATOM     26  C   LIG    1       24.764 -20.383   3.724  0.00  0.00    +0.100 C 
ATOM     27  C   LIG    1       23.578 -19.726   4.492  0.00  0.00    +0.100 C 
BRANCH  22  28
ATOM     28  C   LIG    1       22.650 -21.485   5.904  0.00  0.00    +0.112 C 
BRANCH  28  29
ATOM     29  C   LIG    1       21.489 -21.571   4.896  0.00  0.00    +0.171 C 
BRANCH  29  30
ATOM     30  O   LIG    1       21.058 -20.266   4.518  0.00  0.00    -0.394 OA
ATOM     31  H   LIG    1       20.764 -20.346   3.588  0.00  0.00    +0.209 HD
ENDBRANCH  29  30
ENDBRANCH  28  29
ENDBRANCH  22  28
ENDBRANCH  21  25
ENDBRANCH  20  21
ENDBRANCH   1  20
TORSDOF 7
ENDMDL
MODEL 2
REMARK VINA RESULT:      10.4      4.237      8.075
REMARK  Name = *****
REMARK                            x       y       z     vdW  Elec       q    Type
REMARK                         _______ _______ _______ _____ _____    ______ ____
ROOT
ATOM      1  C   LIG    1       23.513 -16.938   4.080  0.00  0.00    -0.021 C 
ATOM      2  C   LIG    1       23.839 -18.255   4.042  0.00  0.00    -0.035 C 
ATOM      3  C   LIG    1       25.265 -18.726   3.810  0.00  0.00    +0.059 C 
ATOM      4  C   LIG    1       25.438 -19.773   2.683  0.00  0.00    +0.085 C 
ATOM      5  C   LIG    1       26.868 -20.278   2.664  0.00  0.00    -0.011 C 
ATOM      6  C   LIG    1       27.645 -20.267   3.750  0.00  0.00    +0.009 C 
ATOM      7  C   LIG    1       27.151 -19.793   5.044  0.00  0.00    +0.051 C 
ATOM      8  S   LIG    1       24.376 -21.246   2.816  0.00  0.00    -0.116 S 
ATOM      9  C   LIG    1       22.916 -20.596   3.608  0.00  0.00    +0.016 A 
ATOM     10  C   LIG    1       21.852 -21.519   3.702  0.00  0.00    +0.015 A 
ATOM     11  C   LIG    1       20.657 -21.191   4.335  0.00  0.00    +0.001 A 
ATOM     12  C   LIG    1       20.521 -19.940   4.913  0.00  0.00    +0.001 A 
ATOM     13  C   LIG    1       21.569 -19.018   4.828  0.00  0.00    +0.009 A 
ATOM     14  C   LIG    1       26.006 -19.079   5.082  0.00  0.00    -0.005 C 
ATOM     15  C   LIG    1       22.773 -19.302   4.142  0.00  0.00    -0.008 A 
ENDROOT
BRANCH   7  16
ATOM     16  C   LIG    1       27.987 -20.060   6.275  0.00  0.00    +0.417 C 
ATOM     17  F   LIG    1       28.106 -18.958   7.057  0.00  0.00    -0.166 F 
ATOM     18  F   LIG    1       29.249 -20.440   5.940  0.00  0.00    -0.166 F 
ATOM     19  F   LIG    1       27.486 -21.049   7.062  0.00  0.00    -0.166 F 
ENDBRANCH   7  16
BRANCH   1  20
ATOM     20  C   LIG    1       24.433 -15.737   4.062  0.00  0.00    +0.043 C 
BRANCH  20  21
ATOM     21  C   LIG    1       23.711 -14.376   4.186  0.00  0.00    +0.088 C 
BRANCH  21  25
ATOM     22  N   LIG    1       27.212 -13.647   2.941  0.00  0.00    -0.298 NA
ATOM     23  C   LIG    1       26.832 -14.300   4.212  0.00  0.00    +0.100 C 
ATOM     24  C   LIG    1       25.841 -13.485   5.070  0.00  0.00    +0.100 C 
ATOM     25  N   LIG    1       24.568 -13.188   4.386  0.00  0.00    -0.300 NA
ATOM     26  C   LIG    1       24.880 -12.541   3.089  0.00  0.00    +0.100 C 
ATOM     27  C   LIG    1       25.972 -13.243   2.228  0.00  0.00    +0.100 C 
BRANCH  22  28
ATOM     28  C   LIG    1       28.110 -12.482   3.122  0.00  0.00    +0.112 C 
BRANCH  28  29
ATOM     29  C   LIG    1       29.241 -12.718   4.141  0.00  0.00    +0.171 C 
BRANCH  29  30
ATOM     30  O   LIG    1       29.039 -11.922   5.305  0.00  0.00    -0.394 OA
ATOM     31  H   LIG    1       28.138 -12.138   5.618  0.00  0.00    +0.209 HD
ENDBRANCH  29  30
ENDBRANCH  28  29
ENDBRANCH  22  28
ENDBRANCH  21  25
ENDBRANCH  20  21
ENDBRANCH   1  20
TORSDOF 7
ENDMDL
