MODEL 1
REMARK VINA RESULT:      -4.9      0.000      0.000
REMARK  Name = *****
REMARK                            x       y       z     vdW  Elec       q    Type
REMARK                         _______ _______ _______ _____ _____    ______ ____
ROOT
ATOM      1  C   LIG    1       22.878 -16.741   3.963  0.00  0.00    +0.000 A 
ATOM      2  C   LIG    1       22.160 -17.833   4.449  0.00  0.00    +0.004 A 
ATOM      3  C   LIG    1       22.791 -19.066   4.670  0.00  0.00    -0.043 A 
ATOM      4  C   LIG    1       21.971 -20.222   5.185  0.00  0.00    +0.035 C 
ATOM      5  C   LIG    1       22.630 -21.572   4.919  0.00  0.00    +0.006 C 
ATOM      6  C   LIG    1       24.068 -21.555   5.419  0.00  0.00    +0.020 C 
ATOM      7  C   LIG    1       24.907 -20.506   4.671  0.00  0.00    +0.134 C 
ATOM      8  C   LIG    1       24.175 -19.190   4.439  0.00  0.00    -0.030 A 
ATOM      9  C   LIG    1       24.878 -18.088   3.920  0.00  0.00    +0.005 A 
ATOM     10  C   LIG    1       24.235 -16.871   3.691  0.00  0.00    +0.000 A 
ENDROOT
BRANCH   7  11
ATOM     11  C   LIG    1       26.208 -20.318   5.440  0.00  0.00    +0.288 C 
ATOM     12  N   LIG    1       27.355 -19.854   4.838  0.00  0.00    -0.233 N 
ATOM     13  H   LIG    1       27.476 -20.083   3.856  0.00  0.00    +0.291 HD
ATOM     14  C   LIG    1       28.453 -20.121   5.734  0.00  0.00    +0.272 C 
ATOM     15  C   LIG    1       27.710 -20.296   7.062  0.00  0.00    +0.333 C 
ATOM     16  N   LIG    1       26.295 -20.614   6.714  0.00  0.00    -0.083 NA
ENDBRANCH   7  11
TORSDOF 1
ENDMDL
MODEL 2
REMARK VINA RESULT:      -4.8      2.280      4.370
REMARK  Name = *****
REMARK                            x       y       z     vdW  Elec       q    Type
REMARK                         _______ _______ _______ _____ _____    ______ ____
ROOT
ATOM      1  C   LIG    1       23.587 -20.708   4.852  0.00  0.00    +0.000 A 
ATOM      2  C   LIG    1       24.643 -20.894   5.743  0.00  0.00    +0.004 A 
ATOM      3  C   LIG    1       25.875 -20.254   5.539  0.00  0.00    -0.043 A 
ATOM      4  C   LIG    1       26.992 -20.494   6.523  0.00  0.00    +0.035 C 
ATOM      5  C   LIG    1       28.363 -20.160   5.945  0.00  0.00    +0.006 C 
ATOM      6  C   LIG    1       28.348 -18.759   5.349  0.00  0.00    +0.020 C 
ATOM      7  C   LIG    1       27.349 -18.659   4.184  0.00  0.00    +0.134 C 
ATOM      8  C   LIG    1       26.032 -19.382   4.444  0.00  0.00    -0.030 A 
ATOM      9  C   LIG    1       24.967 -19.230   3.538  0.00  0.00    +0.005 A 
ATOM     10  C   LIG    1       23.752 -19.883   3.745  0.00  0.00    +0.000 A 
ENDROOT
BRANCH   7  11
ATOM     11  C   LIG    1       27.147 -17.182   3.871  0.00  0.00    +0.288 C 
ATOM     12  N   LIG    1       28.029 -16.216   4.297  0.00  0.00    -0.233 N 
ATOM     13  H   LIG    1       28.513 -16.398   5.171  0.00  0.00    +0.291 HD
ATOM     14  C   LIG    1       27.380 -14.937   4.140  0.00  0.00    +0.272 C 
ATOM     15  C   LIG    1       26.290 -15.288   3.121  0.00  0.00    +0.333 C 
ATOM     16  N   LIG    1       26.105 -16.766   3.194  0.00  0.00    -0.083 NA
ENDBRANCH   7  11
TORSDOF 1
ENDMDL
MODEL 3
REMARK VINA RESULT:      -4.4      1.229      2.349
REMARK  Name = *****
REMARK                            x       y       z     vdW  Elec       q    Type
REMARK                         _______ _______ _______ _____ _____    ______ ____
ROOT
ATOM      1  C   LIG    1       25.205 -15.108   3.578  0.00  0.00    +0.000 A 
ATOM      2  C   LIG    1       23.921 -15.477   3.978  0.00  0.00    +0.004 A 
ATOM      3  C   LIG    1       23.574 -16.830   4.112  0.00  0.00    -0.043 A 
ATOM      4  C   LIG    1       22.171 -17.183   4.536  0.00  0.00    +0.035 C 
ATOM      5  C   LIG    1       21.794 -18.617   4.177  0.00  0.00    +0.006 C 
ATOM      6  C   LIG    1       22.859 -19.577   4.687  0.00  0.00    +0.020 C 
ATOM      7  C   LIG    1       24.219 -19.305   4.023  0.00  0.00    +0.134 C 
ATOM      8  C   LIG    1       24.546 -17.823   3.883  0.00  0.00    -0.030 A 
ATOM      9  C   LIG    1       25.827 -17.434   3.450  0.00  0.00    +0.005 A 
ATOM     10  C   LIG    1       26.155 -16.086   3.306  0.00  0.00    +0.000 A 
ENDROOT
BRANCH   7  11
ATOM     11  C   LIG    1       25.280 -20.060   4.813  0.00  0.00    +0.288 C 
ATOM     12  N   LIG    1       24.996 -21.218   5.500  0.00  0.00    -0.233 N 
ATOM     13  H   LIG    1       24.055 -21.306   5.870  0.00  0.00    +0.291 HD
ATOM     14  C   LIG    1       26.099 -21.472   6.395  0.00  0.00    +0.272 C 
ATOM     15  C   LIG    1       27.202 -20.632   5.743  0.00  0.00    +0.333 C 
ATOM     16  N   LIG    1       26.514 -19.623   4.888  0.00  0.00    -0.083 NA
ENDBRANCH   7  11
TORSDOF 1
ENDMDL
MODEL 4
REMARK VINA RESULT:      -3.6      1.980      3.846
REMARK  Name = *****
REMARK                            x       y       z     vdW  Elec       q    Type
REMARK                         _______ _______ _______ _____ _____    ______ ____
ROOT
ATOM      1  C   LIG    1       22.358 -20.138   5.126  0.00  0.00    +0.000 A 
ATOM      2  C   LIG    1       23.424 -20.605   5.894  0.00  0.00    +0.004 A 
ATOM      3  C   LIG    1       24.745 -20.257   5.574  0.00  0.00    -0.043 A 
ATOM      4  C   LIG    1       25.867 -20.795   6.426  0.00  0.00    +0.035 C 
ATOM      5  C   LIG    1       27.214 -20.757   5.712  0.00  0.00    +0.006 C 
ATOM      6  C   LIG    1       27.468 -19.363   5.156  0.00  0.00    +0.020 C 
ATOM      7  C   LIG    1       26.410 -18.980   4.108  0.00  0.00    +0.134 C 
ATOM      8  C   LIG    1       24.993 -19.392   4.490  0.00  0.00    -0.030 A 
ATOM      9  C   LIG    1       23.909 -18.955   3.708  0.00  0.00    +0.005 A 
ATOM     10  C   LIG    1       22.601 -19.320   4.028  0.00  0.00    +0.000 A 
ENDROOT
BRANCH   7  11
ATOM     11  C   LIG    1       26.529 -17.483   3.854  0.00  0.00    +0.288 C 
ATOM     12  N   LIG    1       25.491 -16.742   3.337  0.00  0.00    -0.233 N 
ATOM     13  H   LIG    1       24.859 -17.226   2.707  0.00  0.00    +0.291 HD
ATOM     14  C   LIG    1       26.035 -15.477   2.907  0.00  0.00    +0.272 C 
ATOM     15  C   LIG    1       27.336 -15.430   3.713  0.00  0.00    +0.333 C 
ATOM     16  N   LIG    1       27.643 -16.837   4.101  0.00  0.00    -0.083 NA
ENDBRANCH   7  11
TORSDOF 1
ENDMDL
MODEL 5
REMARK VINA RESULT:      -3.6      1.406      2.326
REMARK  Name = *****
REMARK                            x       y       z     vdW  Elec       q    Type
REMARK                         _______ _______ _______ _____ _____    ______ ____
ROOT
ATOM      1  C   LIG    1       24.003 -14.523   4.043  0.00  0.00    +0.000 A 
ATOM      2  C   LIG    1       23.110 -15.565   4.294  0.00  0.00    +0.004 A 
ATOM      3  C   LIG    1       23.508 -16.902   4.145  0.00  0.00    -0.043 A 
ATOM      4  C   LIG    1       22.505 -17.995   4.416  0.00  0.00    +0.035 C 
ATOM      5  C   LIG    1       22.893 -19.319   3.766  0.00  0.00    +0.006 C 
ATOM      6  C   LIG    1       24.324 -19.680   4.137  0.00  0.00    +0.020 C 
ATOM      7  C   LIG    1       25.318 -18.631   3.613  0.00  0.00    +0.134 C 
ATOM      8  C   LIG    1       24.837 -17.195   3.780  0.00  0.00    -0.030 A 
ATOM      9  C   LIG    1       25.715 -16.132   3.501  0.00  0.00    +0.005 A 
ATOM     10  C   LIG    1       25.302 -14.807   3.639  0.00  0.00    +0.000 A 
ENDROOT
BRANCH   7  11
ATOM     11  C   LIG    1       26.656 -18.877   4.298  0.00  0.00    +0.288 C 
ATOM     12  N   LIG    1       26.954 -20.069   4.918  0.00  0.00    -0.233 N 
ATOM     13  H   LIG    1       26.174 -20.575   5.325  0.00  0.00    +0.291 HD
ATOM     14  C   LIG    1       28.120 -19.851   5.739  0.00  0.00    +0.272 C 
ATOM     15  C   LIG    1       28.698 -18.588   5.094  0.00  0.00    +0.333 C 
ATOM     16  N   LIG    1       27.580 -17.948   4.343  0.00  0.00    -0.083 NA
ENDBRANCH   7  11
TORSDOF 1
ENDMDL
MODEL 6
REMARK VINA RESULT:      -2.9      3.265      5.360
REMARK  Name = *****
REMARK                            x       y       z     vdW  Elec       q    Type
REMARK                         _______ _______ _______ _____ _____    ______ ____
ROOT
ATOM      1  C   LIG    1       24.940 -19.621   3.140  0.00  0.00    +0.000 A 
ATOM      2  C   LIG    1       23.680 -19.223   3.585  0.00  0.00    +0.004 A 
ATOM      3  C   LIG    1       23.452 -17.905   4.010  0.00  0.00    -0.043 A 
ATOM      4  C   LIG    1       22.076 -17.524   4.493  0.00  0.00    +0.035 C 
ATOM      5  C   LIG    1       22.087 -16.265   5.355  0.00  0.00    +0.006 C 
ATOM      6  C   LIG    1       22.826 -15.148   4.634  0.00  0.00    +0.020 C 
ATOM      7  C   LIG    1       24.298 -15.520   4.388  0.00  0.00    +0.134 C 
ATOM      8  C   LIG    1       24.498 -16.964   3.945  0.00  0.00    -0.030 A 
ATOM      9  C   LIG    1       25.771 -17.390   3.524  0.00  0.00    +0.005 A 
ATOM     10  C   LIG    1       25.987 -18.707   3.118  0.00  0.00    +0.000 A 
ENDROOT
BRANCH   7  11
ATOM     11  C   LIG    1       24.869 -14.522   3.389  0.00  0.00    +0.288 C 
ATOM     12  N   LIG    1       26.186 -14.555   2.991  0.00  0.00    -0.233 N 
ATOM     13  H   LIG    1       26.856 -14.898   3.672  0.00  0.00    +0.291 HD
ATOM     14  C   LIG    1       26.471 -13.302   2.335  0.00  0.00    +0.272 C 
ATOM     15  C   LIG    1       25.058 -12.834   1.975  0.00  0.00    +0.333 C 
ATOM     16  N   LIG    1       24.127 -13.570   2.877  0.00  0.00    -0.083 NA
ENDBRANCH   7  11
TORSDOF 1
ENDMDL
MODEL 7
REMARK VINA RESULT:      -2.4      3.831      6.218
REMARK  Name = *****
REMARK                            x       y       z     vdW  Elec       q    Type
REMARK                         _______ _______ _______ _____ _____    ______ ____
ROOT
ATOM      1  C   LIG    1       24.256 -11.851   2.065  0.00  0.00    +0.000 A 
ATOM      2  C   LIG    1       25.646 -11.940   2.130  0.00  0.00    +0.004 A 
ATOM      3  C   LIG    1       26.266 -13.001   2.808  0.00  0.00    -0.043 A 
ATOM      4  C   LIG    1       27.772 -13.050   2.861  0.00  0.00    +0.035 C 
ATOM      5  C   LIG    1       28.289 -13.930   3.996  0.00  0.00    +0.006 C 
ATOM      6  C   LIG    1       27.622 -15.297   3.938  0.00  0.00    +0.020 C 
ATOM      7  C   LIG    1       26.101 -15.185   4.132  0.00  0.00    +0.134 C 
ATOM      8  C   LIG    1       25.474 -14.009   3.392  0.00  0.00    -0.030 A 
ATOM      9  C   LIG    1       24.074 -13.887   3.344  0.00  0.00    +0.005 A 
ATOM     10  C   LIG    1       23.471 -12.819   2.679  0.00  0.00    +0.000 A 
ENDROOT
BRANCH   7  11
ATOM     11  C   LIG    1       25.482 -16.518   3.733  0.00  0.00    +0.288 C 
ATOM     12  N   LIG    1       24.148 -16.793   3.926  0.00  0.00    -0.233 N 
ATOM     13  H   LIG    1       23.703 -16.345   4.720  0.00  0.00    +0.291 HD
ATOM     14  C   LIG    1       23.973 -18.217   3.769  0.00  0.00    +0.272 C 
ATOM     15  C   LIG    1       25.232 -18.580   2.976  0.00  0.00    +0.333 C 
ATOM     16  N   LIG    1       26.206 -17.473   3.203  0.00  0.00    -0.083 NA
ENDBRANCH   7  11
TORSDOF 1
ENDMDL
MODEL 8
REMARK VINA RESULT:      -2.3      3.661      5.883
REMARK  Name = *****
REMARK                            x       y       z     vdW  Elec       q    Type
REMARK                         _______ _______ _______ _____ _____    ______ ____
ROOT
ATOM      1  C   LIG    1       28.422 -12.943   4.509  0.00  0.00    +0.000 A 
ATOM      2  C   LIG    1       27.191 -12.604   5.071  0.00  0.00    +0.004 A 
ATOM      3  C   LIG    1       26.024 -13.294   4.711  0.00  0.00    -0.043 A 
ATOM      4  C   LIG    1       24.714 -12.885   5.337  0.00  0.00    +0.035 C 
ATOM      5  C   LIG    1       23.509 -13.354   4.528  0.00  0.00    +0.006 C 
ATOM      6  C   LIG    1       23.624 -14.844   4.241  0.00  0.00    +0.020 C 
ATOM      7  C   LIG    1       24.866 -15.155   3.390  0.00  0.00    +0.134 C 
ATOM      8  C   LIG    1       26.104 -14.370   3.805  0.00  0.00    -0.030 A 
ATOM      9  C   LIG    1       27.347 -14.678   3.224  0.00  0.00    +0.005 A 
ATOM     10  C   LIG    1       28.498 -13.974   3.580  0.00  0.00    +0.000 A 
ENDROOT
BRANCH   7  11
ATOM     11  C   LIG    1       25.093 -16.660   3.430  0.00  0.00    +0.288 C 
ATOM     12  N   LIG    1       24.077 -17.547   3.705  0.00  0.00    -0.233 N 
ATOM     13  H   LIG    1       23.341 -17.216   4.321  0.00  0.00    +0.291 HD
ATOM     14  C   LIG    1       24.684 -18.821   4.004  0.00  0.00    +0.272 C 
ATOM     15  C   LIG    1       26.063 -18.645   3.360  0.00  0.00    +0.333 C 
ATOM     16  N   LIG    1       26.280 -17.176   3.224  0.00  0.00    -0.083 NA
ENDBRANCH   7  11
TORSDOF 1
ENDMDL
