MODEL 1
REMARK VINA RESULT:      -9.9      0.000      0.000
REMARK  Name = *****
REMARK                            x       y       z     vdW  Elec       q    Type
REMARK                         _______ _______ _______ _____ _____    ______ ____
ROOT
ATOM      1  N   LIG    1       27.386 -21.493   8.719  0.00  0.00    -0.312 NA
ATOM      2  H   LIG    1       27.074 -22.458   8.808  0.00  0.00    +0.122 HD
ENDROOT
BRANCH   1   3
ATOM      3  C   LIG    1       26.252 -20.643   8.322  0.00  0.00    +0.086 C 
BRANCH   3   4
ATOM      4  C   LIG    1       25.942 -20.757   6.827  0.00  0.00    +0.052 C 
BRANCH   4   7
ATOM      5  C   LIG    1       22.839 -20.232   6.054  0.00  0.00    +0.063 C 
ATOM      6  C   LIG    1       23.557 -21.521   6.222  0.00  0.00    +0.017 C 
ATOM      7  C   LIG    1       24.879 -21.784   6.554  0.00  0.00    -0.018 C 
ATOM      8  C   LIG    1       25.027 -23.212   6.587  0.00  0.00    +0.003 C 
ATOM      9  C   LIG    1       23.793 -23.767   6.251  0.00  0.00    +0.047 C 
ATOM     10  C   LIG    1       23.573 -25.148   6.165  0.00  0.00    +0.026 C 
ATOM     11  C   LIG    1       24.651 -25.994   6.433  0.00  0.00    +0.002 C 
ATOM     12  C   LIG    1       25.895 -25.476   6.781  0.00  0.00    +0.001 C 
ATOM     13  C   LIG    1       26.097 -24.091   6.864  0.00  0.00    +0.010 C 
ATOM     14  N   LIG    1       22.924 -22.724   6.041  0.00  0.00    -0.358 NA
ATOM     15  H   LIG    1       21.954 -22.838   5.784  0.00  0.00    +0.166 HD
ENDBRANCH   4   7
ENDBRANCH   3   4
ENDBRANCH   1   3
BRANCH   1  16
ATOM     16  C   LIG    1       28.465 -21.435   7.722  0.00  0.00    +0.116 C 
BRANCH  16  17
ATOM     17  C   LIG    1       29.479 -20.347   7.995  0.00  0.00    -0.034 C 
ATOM     18  C   LIG    1       29.329 -19.078   7.417  0.00  0.00    +0.005 C 
ATOM     19  C   LIG    1       30.282 -18.080   7.641  0.00  0.00    +0.008 C 
ATOM     20  C   LIG    1       31.396 -18.344   8.442  0.00  0.00    -0.025 C 
ATOM     21  C   LIG    1       31.560 -19.613   9.003  0.00  0.00    +0.008 C 
ATOM     22  C   LIG    1       30.607 -20.606   8.786  0.00  0.00    +0.005 C 
BRANCH  20  23
ATOM     23  C   LIG    1       32.421 -17.328   8.663  0.00  0.00    +0.013 C 
ATOM     24  C   LIG    1       32.482 -16.446   9.673  0.00  0.00    +0.070 C 
BRANCH  24  25
ATOM     25  C   LIG    1       31.517 -16.304  10.798  0.00  0.00    +0.259 C 
ATOM     26  N   LIG    1       32.108 -15.739  11.902  0.00  0.00    -0.194 N 
ATOM     27  H   LIG    1       33.072 -15.438  11.966  0.00  0.00    +0.182 HD
ATOM     28  O   LIG    1       30.354 -16.664  10.776  0.00  0.00    -0.269 OA
BRANCH  26  29
ATOM     29  O   LIG    1       31.314 -15.590  13.058  0.00  0.00    -0.295 OA
ATOM     30  H   LIG    1       30.511 -16.108  12.830  0.00  0.00    +0.241 HD
ENDBRANCH  26  29
ENDBRANCH  24  25
ENDBRANCH  20  23
ENDBRANCH  16  17
ENDBRANCH   1  16
TORSDOF 8
ENDMDL
MODEL 2
REMARK VINA RESULT:      -9.7      1.363      2.862
REMARK  Name = *****
REMARK                            x       y       z     vdW  Elec       q    Type
REMARK                         _______ _______ _______ _____ _____    ______ ____
ROOT
ATOM      1  N   LIG    1       26.993 -21.463   8.723  0.00  0.00    -0.312 NA
ATOM      2  H   LIG    1       27.359 -21.774   9.620  0.00  0.00    +0.122 HD
ENDROOT
BRANCH   1   3
ATOM      3  C   LIG    1       25.870 -22.327   8.324  0.00  0.00    +0.086 C 
BRANCH   3   4
ATOM      4  C   LIG    1       25.902 -22.660   6.829  0.00  0.00    +0.052 C 
BRANCH   4   7
ATOM      5  C   LIG    1       22.772 -23.500   6.832  0.00  0.00    +0.063 C 
ATOM      6  C   LIG    1       23.442 -22.386   6.113  0.00  0.00    +0.017 C 
ATOM      7  C   LIG    1       24.775 -22.000   6.085  0.00  0.00    -0.018 C 
ATOM      8  C   LIG    1       24.864 -20.861   5.215  0.00  0.00    +0.003 C 
ATOM      9  C   LIG    1       23.575 -20.581   4.761  0.00  0.00    +0.047 C 
ATOM     10  C   LIG    1       23.280 -19.515   3.902  0.00  0.00    +0.026 C 
ATOM     11  C   LIG    1       24.339 -18.704   3.489  0.00  0.00    +0.002 C 
ATOM     12  C   LIG    1       25.641 -18.959   3.913  0.00  0.00    +0.001 C 
ATOM     13  C   LIG    1       25.917 -20.032   4.772  0.00  0.00    +0.010 C 
ATOM     14  N   LIG    1       22.738 -21.521   5.315  0.00  0.00    -0.358 NA
ATOM     15  H   LIG    1       21.743 -21.557   5.154  0.00  0.00    +0.166 HD
ENDBRANCH   4   7
ENDBRANCH   3   4
ENDBRANCH   1   3
BRANCH   1  16
ATOM     16  C   LIG    1       28.076 -21.512   7.729  0.00  0.00    +0.116 C 
BRANCH  16  17
ATOM     17  C   LIG    1       29.164 -20.491   7.975  0.00  0.00    -0.034 C 
ATOM     18  C   LIG    1       29.072 -19.209   7.414  0.00  0.00    +0.005 C 
ATOM     19  C   LIG    1       30.093 -18.274   7.612  0.00  0.00    +0.008 C 
ATOM     20  C   LIG    1       31.216 -18.613   8.371  0.00  0.00    -0.025 C 
ATOM     21  C   LIG    1       31.320 -19.896   8.915  0.00  0.00    +0.008 C 
ATOM     22  C   LIG    1       30.301 -20.827   8.724  0.00  0.00    +0.005 C 
BRANCH  20  23
ATOM     23  C   LIG    1       32.308 -17.664   8.564  0.00  0.00    +0.013 C 
ATOM     24  C   LIG    1       32.396 -16.712   9.505  0.00  0.00    +0.070 C 
BRANCH  24  25
ATOM     25  C   LIG    1       31.398 -16.407  10.567  0.00  0.00    +0.259 C 
ATOM     26  N   LIG    1       31.984 -15.807  11.655  0.00  0.00    -0.194 N 
ATOM     27  H   LIG    1       32.967 -15.580  11.745  0.00  0.00    +0.182 HD
ATOM     28  O   LIG    1       30.210 -16.674  10.514  0.00  0.00    -0.269 OA
BRANCH  26  29
ATOM     29  O   LIG    1       31.155 -15.506  12.756  0.00  0.00    -0.295 OA
ATOM     30  H   LIG    1       30.950 -14.557  12.612  0.00  0.00    +0.241 HD
ENDBRANCH  26  29
ENDBRANCH  24  25
ENDBRANCH  20  23
ENDBRANCH  16  17
ENDBRANCH   1  16
TORSDOF 8
ENDMDL
MODEL 3
REMARK VINA RESULT:      -9.5      5.402      9.486
REMARK  Name = *****
REMARK                            x       y       z     vdW  Elec       q    Type
REMARK                         _______ _______ _______ _____ _____    ______ ____
ROOT
ATOM      1  N   LIG    1       23.733 -23.168   6.285  0.00  0.00    -0.312 NA
ATOM      2  H   LIG    1       23.909 -22.808   5.349  0.00  0.00    +0.122 HD
ENDROOT
BRANCH   1   3
ATOM      3  C   LIG    1       23.314 -22.065   7.165  0.00  0.00    +0.086 C 
BRANCH   3   4
ATOM      4  C   LIG    1       23.400 -20.705   6.466  0.00  0.00    +0.052 C 
BRANCH   4   7
ATOM      5  C   LIG    1       24.138 -20.324   3.333  0.00  0.00    +0.063 C 
ATOM      6  C   LIG    1       25.037 -20.310   4.516  0.00  0.00    +0.017 C 
ATOM      7  C   LIG    1       24.758 -20.472   5.865  0.00  0.00    -0.018 C 
ATOM      8  C   LIG    1       26.009 -20.376   6.566  0.00  0.00    +0.003 C 
ATOM      9  C   LIG    1       27.002 -20.136   5.616  0.00  0.00    +0.047 C 
ATOM     10  C   LIG    1       28.352 -19.967   5.947  0.00  0.00    +0.026 C 
ATOM     11  C   LIG    1       28.704 -20.046   7.297  0.00  0.00    +0.002 C 
ATOM     12  C   LIG    1       27.741 -20.294   8.271  0.00  0.00    +0.001 C 
ATOM     13  C   LIG    1       26.394 -20.463   7.922  0.00  0.00    +0.010 C 
ATOM     14  N   LIG    1       26.387 -20.107   4.388  0.00  0.00    -0.358 NA
ATOM     15  H   LIG    1       26.872 -19.950   3.516  0.00  0.00    +0.166 HD
ENDBRANCH   4   7
ENDBRANCH   3   4
ENDBRANCH   1   3
BRANCH   1  16
ATOM     16  C   LIG    1       24.960 -23.806   6.784  0.00  0.00    +0.116 C 
BRANCH  16  17
ATOM     17  C   LIG    1       25.108 -25.246   6.349  0.00  0.00    -0.034 C 
ATOM     18  C   LIG    1       26.381 -25.792   6.125  0.00  0.00    +0.005 C 
ATOM     19  C   LIG    1       26.519 -27.113   5.690  0.00  0.00    +0.008 C 
ATOM     20  C   LIG    1       25.385 -27.901   5.473  0.00  0.00    -0.025 C 
ATOM     21  C   LIG    1       24.115 -27.355   5.675  0.00  0.00    +0.008 C 
ATOM     22  C   LIG    1       23.976 -26.040   6.114  0.00  0.00    +0.005 C 
BRANCH  20  23
ATOM     23  C   LIG    1       25.505 -29.273   4.988  0.00  0.00    +0.013 C 
ATOM     24  C   LIG    1       25.303 -30.399   5.689  0.00  0.00    +0.070 C 
BRANCH  24  25
ATOM     25  C   LIG    1       24.912 -30.505   7.121  0.00  0.00    +0.259 C 
ATOM     26  N   LIG    1       26.008 -30.477   7.948  0.00  0.00    -0.194 N 
ATOM     27  H   LIG    1       26.971 -30.386   7.648  0.00  0.00    +0.182 HD
ATOM     28  O   LIG    1       23.772 -30.633   7.532  0.00  0.00    -0.269 OA
BRANCH  26  29
ATOM     29  O   LIG    1       25.781 -30.618   9.333  0.00  0.00    -0.295 OA
ATOM     30  H   LIG    1       25.872 -31.586   9.464  0.00  0.00    +0.241 HD
ENDBRANCH  26  29
ENDBRANCH  24  25
ENDBRANCH  20  23
ENDBRANCH  16  17
ENDBRANCH   1  16
TORSDOF 8
ENDMDL
MODEL 4
REMARK VINA RESULT:      -9.4      5.328      9.359
REMARK  Name = *****
REMARK                            x       y       z     vdW  Elec       q    Type
REMARK                         _______ _______ _______ _____ _____    ______ ____
ROOT
ATOM      1  N   LIG    1       26.272 -23.263   7.268  0.00  0.00    -0.312 NA
ATOM      2  H   LIG    1       26.735 -24.084   7.654  0.00  0.00    +0.122 HD
ENDROOT
BRANCH   1   3
ATOM      3  C   LIG    1       25.779 -22.414   8.365  0.00  0.00    +0.086 C 
BRANCH   3   4
ATOM      4  C   LIG    1       26.256 -20.965   8.230  0.00  0.00    +0.052 C 
BRANCH   4   7
ATOM      5  C   LIG    1       28.855 -20.326   6.403  0.00  0.00    +0.063 C 
ATOM      6  C   LIG    1       27.415 -20.255   6.042  0.00  0.00    +0.017 C 
ATOM      7  C   LIG    1       26.280 -20.517   6.795  0.00  0.00    -0.018 C 
ATOM      8  C   LIG    1       25.147 -20.276   5.946  0.00  0.00    +0.003 C 
ATOM      9  C   LIG    1       25.637 -19.897   4.696  0.00  0.00    +0.047 C 
ATOM     10  C   LIG    1       24.808 -19.602   3.607  0.00  0.00    +0.026 C 
ATOM     11  C   LIG    1       23.427 -19.694   3.799  0.00  0.00    +0.002 C 
ATOM     12  C   LIG    1       22.902 -20.060   5.035  0.00  0.00    +0.001 C 
ATOM     13  C   LIG    1       23.748 -20.351   6.116  0.00  0.00    +0.010 C 
ATOM     14  N   LIG    1       27.008 -19.888   4.784  0.00  0.00    -0.358 NA
ATOM     15  H   LIG    1       27.623 -19.647   4.021  0.00  0.00    +0.166 HD
ENDBRANCH   4   7
ENDBRANCH   3   4
ENDBRANCH   1   3
BRANCH   1  16
ATOM     16  C   LIG    1       25.168 -23.706   6.405  0.00  0.00    +0.116 C 
BRANCH  16  17
ATOM     17  C   LIG    1       25.214 -25.181   6.077  0.00  0.00    -0.034 C 
ATOM     18  C   LIG    1       24.029 -25.893   5.841  0.00  0.00    +0.005 C 
ATOM     19  C   LIG    1       24.067 -27.264   5.572  0.00  0.00    +0.008 C 
ATOM     20  C   LIG    1       25.292 -27.937   5.539  0.00  0.00    -0.025 C 
ATOM     21  C   LIG    1       26.473 -27.236   5.794  0.00  0.00    +0.008 C 
ATOM     22  C   LIG    1       26.437 -25.868   6.056  0.00  0.00    +0.005 C 
BRANCH  20  23
ATOM     23  C   LIG    1       25.353 -29.375   5.292  0.00  0.00    +0.013 C 
ATOM     24  C   LIG    1       25.169 -30.358   6.186  0.00  0.00    +0.070 C 
BRANCH  24  25
ATOM     25  C   LIG    1       24.863 -30.206   7.635  0.00  0.00    +0.259 C 
ATOM     26  N   LIG    1       26.009 -30.144   8.390  0.00  0.00    -0.194 N 
ATOM     27  H   LIG    1       26.955 -30.184   8.031  0.00  0.00    +0.182 HD
ATOM     28  O   LIG    1       23.745 -30.169   8.118  0.00  0.00    -0.269 OA
BRANCH  26  29
ATOM     29  O   LIG    1       25.860 -30.047   9.789  0.00  0.00    -0.295 OA
ATOM     30  H   LIG    1       25.178 -30.728   9.976  0.00  0.00    +0.241 HD
ENDBRANCH  26  29
ENDBRANCH  24  25
ENDBRANCH  20  23
ENDBRANCH  16  17
ENDBRANCH   1  16
TORSDOF 8
ENDMDL
MODEL 5
REMARK VINA RESULT:      -9.3      1.539      2.425
REMARK  Name = *****
REMARK                            x       y       z     vdW  Elec       q    Type
REMARK                         _______ _______ _______ _____ _____    ______ ____
ROOT
ATOM      1  N   LIG    1       25.584 -20.639   7.276  0.00  0.00    -0.312 NA
ATOM      2  H   LIG    1       25.995 -20.032   7.982  0.00  0.00    +0.122 HD
ENDROOT
BRANCH   1   3
ATOM      3  C   LIG    1       25.216 -21.926   7.887  0.00  0.00    +0.086 C 
BRANCH   3   4
ATOM      4  C   LIG    1       25.980 -23.099   7.265  0.00  0.00    +0.052 C 
BRANCH   4   7
ATOM      5  C   LIG    1       22.765 -22.903   6.897  0.00  0.00    +0.063 C 
ATOM      6  C   LIG    1       23.674 -24.041   6.604  0.00  0.00    +0.017 C 
ATOM      7  C   LIG    1       25.049 -24.162   6.751  0.00  0.00    -0.018 C 
ATOM      8  C   LIG    1       25.402 -25.487   6.323  0.00  0.00    +0.003 C 
ATOM      9  C   LIG    1       24.229 -26.117   5.909  0.00  0.00    +0.047 C 
ATOM     10  C   LIG    1       24.200 -27.424   5.406  0.00  0.00    +0.026 C 
ATOM     11  C   LIG    1       25.411 -28.115   5.324  0.00  0.00    +0.002 C 
ATOM     12  C   LIG    1       26.600 -27.521   5.738  0.00  0.00    +0.001 C 
ATOM     13  C   LIG    1       26.611 -26.212   6.240  0.00  0.00    +0.010 C 
ATOM     14  N   LIG    1       23.202 -25.224   6.094  0.00  0.00    -0.358 NA
ATOM     15  H   LIG    1       22.236 -25.419   5.877  0.00  0.00    +0.166 HD
ENDBRANCH   4   7
ENDBRANCH   3   4
ENDBRANCH   1   3
BRANCH   1  16
ATOM     16  C   LIG    1       26.559 -20.829   6.191  0.00  0.00    +0.116 C 
BRANCH  16  17
ATOM     17  C   LIG    1       27.940 -20.313   6.528  0.00  0.00    -0.034 C 
ATOM     18  C   LIG    1       28.714 -20.949   7.509  0.00  0.00    +0.005 C 
ATOM     19  C   LIG    1       29.978 -20.455   7.846  0.00  0.00    +0.008 C 
ATOM     20  C   LIG    1       30.478 -19.317   7.206  0.00  0.00    -0.025 C 
ATOM     21  C   LIG    1       29.702 -18.669   6.242  0.00  0.00    +0.008 C 
ATOM     22  C   LIG    1       28.445 -19.164   5.901  0.00  0.00    +0.005 C 
BRANCH  20  23
ATOM     23  C   LIG    1       31.781 -18.765   7.565  0.00  0.00    +0.013 C 
ATOM     24  C   LIG    1       32.119 -18.177   8.722  0.00  0.00    +0.070 C 
BRANCH  24  25
ATOM     25  C   LIG    1       31.242 -17.954   9.904  0.00  0.00    +0.259 C 
ATOM     26  N   LIG    1       31.005 -16.617  10.113  0.00  0.00    -0.194 N 
ATOM     27  H   LIG    1       31.361 -15.859   9.544  0.00  0.00    +0.182 HD
ATOM     28  O   LIG    1       30.802 -18.829  10.629  0.00  0.00    -0.269 OA
BRANCH  26  29
ATOM     29  O   LIG    1       30.224 -16.263  11.233  0.00  0.00    -0.295 OA
ATOM     30  H   LIG    1       30.527 -15.348  11.420  0.00  0.00    +0.241 HD
ENDBRANCH  26  29
ENDBRANCH  24  25
ENDBRANCH  20  23
ENDBRANCH  16  17
ENDBRANCH   1  16
TORSDOF 8
ENDMDL
MODEL 6
REMARK VINA RESULT:      -9.3      1.897      2.876
REMARK  Name = *****
REMARK                            x       y       z     vdW  Elec       q    Type
REMARK                         _______ _______ _______ _____ _____    ______ ____
ROOT
ATOM      1  N   LIG    1       25.955 -20.567   4.323  0.00  0.00    -0.312 NA
ATOM      2  H   LIG    1       26.094 -20.922   3.379  0.00  0.00    +0.122 HD
ENDROOT
BRANCH   1   3
ATOM      3  C   LIG    1       24.535 -20.229   4.517  0.00  0.00    +0.086 C 
BRANCH   3   4
ATOM      4  C   LIG    1       23.699 -21.454   4.900  0.00  0.00    +0.052 C 
BRANCH   4   7
ATOM      5  C   LIG    1       24.572 -20.762   7.943  0.00  0.00    +0.063 C 
ATOM      6  C   LIG    1       24.780 -22.014   7.171  0.00  0.00    +0.017 C 
ATOM      7  C   LIG    1       24.424 -22.343   5.871  0.00  0.00    -0.018 C 
ATOM      8  C   LIG    1       24.882 -23.685   5.638  0.00  0.00    +0.003 C 
ATOM      9  C   LIG    1       25.481 -24.131   6.816  0.00  0.00    +0.047 C 
ATOM     10  C   LIG    1       26.025 -25.414   6.960  0.00  0.00    +0.026 C 
ATOM     11  C   LIG    1       25.959 -26.273   5.860  0.00  0.00    +0.002 C 
ATOM     12  C   LIG    1       25.378 -25.859   4.665  0.00  0.00    +0.001 C 
ATOM     13  C   LIG    1       24.838 -24.570   4.539  0.00  0.00    +0.010 C 
ATOM     14  N   LIG    1       25.409 -23.101   7.722  0.00  0.00    -0.358 NA
ATOM     15  H   LIG    1       25.770 -23.149   8.664  0.00  0.00    +0.166 HD
ENDBRANCH   4   7
ENDBRANCH   3   4
ENDBRANCH   1   3
BRANCH   1  16
ATOM     16  C   LIG    1       26.810 -19.386   4.515  0.00  0.00    +0.116 C 
BRANCH  16  17
ATOM     17  C   LIG    1       27.895 -19.592   5.548  0.00  0.00    -0.034 C 
ATOM     18  C   LIG    1       29.063 -18.816   5.513  0.00  0.00    +0.005 C 
ATOM     19  C   LIG    1       30.082 -19.027   6.446  0.00  0.00    +0.008 C 
ATOM     20  C   LIG    1       29.944 -20.018   7.422  0.00  0.00    -0.025 C 
ATOM     21  C   LIG    1       28.791 -20.807   7.447  0.00  0.00    +0.008 C 
ATOM     22  C   LIG    1       27.772 -20.594   6.521  0.00  0.00    +0.005 C 
BRANCH  20  23
ATOM     23  C   LIG    1       31.009 -20.277   8.386  0.00  0.00    +0.013 C 
ATOM     24  C   LIG    1       31.637 -19.378   9.158  0.00  0.00    +0.070 C 
BRANCH  24  25
ATOM     25  C   LIG    1       31.393 -17.911   9.206  0.00  0.00    +0.259 C 
ATOM     26  N   LIG    1       32.509 -17.199   8.837  0.00  0.00    -0.194 N 
ATOM     27  H   LIG    1       33.395 -17.598   8.554  0.00  0.00    +0.182 HD
ATOM     28  O   LIG    1       30.352 -17.382   9.555  0.00  0.00    -0.269 OA
BRANCH  26  29
ATOM     29  O   LIG    1       32.427 -15.792   8.884  0.00  0.00    -0.295 OA
ATOM     30  H   LIG    1       31.760 -15.644   9.590  0.00  0.00    +0.241 HD
ENDBRANCH  26  29
ENDBRANCH  24  25
ENDBRANCH  20  23
ENDBRANCH  16  17
ENDBRANCH   1  16
TORSDOF 8
ENDMDL
MODEL 7
REMARK VINA RESULT:      -9.2      5.913      8.578
REMARK  Name = *****
REMARK                            x       y       z     vdW  Elec       q    Type
REMARK                         _______ _______ _______ _____ _____    ______ ____
ROOT
ATOM      1  N   LIG    1       25.577 -27.190   4.964  0.00  0.00    -0.312 NA
ATOM      2  H   LIG    1       24.752 -26.695   4.632  0.00  0.00    +0.122 HD
ENDROOT
BRANCH   1   3
ATOM      3  C   LIG    1       25.256 -28.616   5.144  0.00  0.00    +0.086 C 
BRANCH   3   4
ATOM      4  C   LIG    1       24.252 -28.841   6.278  0.00  0.00    +0.052 C 
BRANCH   4   7
ATOM      5  C   LIG    1       23.658 -32.027   6.208  0.00  0.00    +0.063 C 
ATOM      6  C   LIG    1       24.459 -31.244   7.185  0.00  0.00    +0.017 C 
ATOM      7  C   LIG    1       24.732 -29.886   7.248  0.00  0.00    -0.018 C 
ATOM      8  C   LIG    1       25.550 -29.675   8.410  0.00  0.00    +0.003 C 
ATOM      9  C   LIG    1       25.764 -30.921   8.999  0.00  0.00    +0.047 C 
ATOM     10  C   LIG    1       26.542 -31.099  10.150  0.00  0.00    +0.026 C 
ATOM     11  C   LIG    1       27.121 -29.965  10.724  0.00  0.00    +0.002 C 
ATOM     12  C   LIG    1       26.921 -28.704  10.169  0.00  0.00    +0.001 C 
ATOM     13  C   LIG    1       26.138 -28.544   9.016  0.00  0.00    +0.010 C 
ATOM     14  N   LIG    1       25.090 -31.849   8.242  0.00  0.00    -0.358 NA
ATOM     15  H   LIG    1       25.073 -32.838   8.442  0.00  0.00    +0.166 HD
ENDBRANCH   4   7
ENDBRANCH   3   4
ENDBRANCH   1   3
BRANCH   1  16
ATOM     16  C   LIG    1       26.015 -26.584   6.230  0.00  0.00    +0.116 C 
BRANCH  16  17
ATOM     17  C   LIG    1       25.311 -25.284   6.549  0.00  0.00    -0.034 C 
ATOM     18  C   LIG    1       23.929 -25.159   6.346  0.00  0.00    +0.005 C 
ATOM     19  C   LIG    1       23.281 -23.948   6.608  0.00  0.00    +0.008 C 
ATOM     20  C   LIG    1       24.010 -22.851   7.074  0.00  0.00    -0.025 C 
ATOM     21  C   LIG    1       25.390 -22.965   7.259  0.00  0.00    +0.008 C 
ATOM     22  C   LIG    1       26.036 -24.173   7.004  0.00  0.00    +0.005 C 
BRANCH  20  23
ATOM     23  C   LIG    1       23.359 -21.567   7.323  0.00  0.00    +0.013 C 
ATOM     24  C   LIG    1       23.306 -20.513   6.495  0.00  0.00    +0.070 C 
BRANCH  24  25
ATOM     25  C   LIG    1       23.899 -20.412   5.134  0.00  0.00    +0.259 C 
ATOM     26  N   LIG    1       25.264 -20.264   5.186  0.00  0.00    -0.194 N 
ATOM     27  H   LIG    1       25.822 -20.235   6.031  0.00  0.00    +0.182 HD
ATOM     28  O   LIG    1       23.271 -20.425   4.090  0.00  0.00    -0.269 OA
BRANCH  26  29
ATOM     29  O   LIG    1       25.948 -20.108   3.962  0.00  0.00    -0.295 OA
ATOM     30  H   LIG    1       25.413 -19.422   3.508  0.00  0.00    +0.241 HD
ENDBRANCH  26  29
ENDBRANCH  24  25
ENDBRANCH  20  23
ENDBRANCH  16  17
ENDBRANCH   1  16
TORSDOF 8
ENDMDL
MODEL 8
REMARK VINA RESULT:      -9.1      5.972     10.360
REMARK  Name = *****
REMARK                            x       y       z     vdW  Elec       q    Type
REMARK                         _______ _______ _______ _____ _____    ______ ____
ROOT
ATOM      1  N   LIG    1       25.136 -23.945   6.719  0.00  0.00    -0.312 NA
ATOM      2  H   LIG    1       24.810 -23.248   6.054  0.00  0.00    +0.122 HD
ENDROOT
BRANCH   1   3
ATOM      3  C   LIG    1       26.012 -23.306   7.714  0.00  0.00    +0.086 C 
BRANCH   3   4
ATOM      4  C   LIG    1       25.675 -21.825   7.911  0.00  0.00    +0.052 C 
BRANCH   4   7
ATOM      5  C   LIG    1       28.540 -20.931   6.689  0.00  0.00    +0.063 C 
ATOM      6  C   LIG    1       27.175 -20.661   6.169  0.00  0.00    +0.017 C 
ATOM      7  C   LIG    1       25.931 -21.024   6.665  0.00  0.00    -0.018 C 
ATOM      8  C   LIG    1       24.948 -20.487   5.765  0.00  0.00    +0.003 C 
ATOM      9  C   LIG    1       25.633 -19.835   4.740  0.00  0.00    +0.047 C 
ATOM     10  C   LIG    1       24.988 -19.207   3.668  0.00  0.00    +0.026 C 
ATOM     11  C   LIG    1       23.592 -19.242   3.640  0.00  0.00    +0.002 C 
ATOM     12  C   LIG    1       22.874 -19.875   4.651  0.00  0.00    +0.001 C 
ATOM     13  C   LIG    1       23.537 -20.498   5.718  0.00  0.00    +0.010 C 
ATOM     14  N   LIG    1       26.975 -19.952   5.012  0.00  0.00    -0.358 NA
ATOM     15  H   LIG    1       27.706 -19.568   4.431  0.00  0.00    +0.166 HD
ENDBRANCH   4   7
ENDBRANCH   3   4
ENDBRANCH   1   3
BRANCH   1  16
ATOM     16  C   LIG    1       25.851 -25.000   5.985  0.00  0.00    +0.116 C 
BRANCH  16  17
ATOM     17  C   LIG    1       25.470 -26.398   6.419  0.00  0.00    -0.034 C 
ATOM     18  C   LIG    1       24.389 -27.057   5.816  0.00  0.00    +0.005 C 
ATOM     19  C   LIG    1       24.014 -28.336   6.238  0.00  0.00    +0.008 C 
ATOM     20  C   LIG    1       24.715 -28.966   7.270  0.00  0.00    -0.025 C 
ATOM     21  C   LIG    1       25.780 -28.305   7.887  0.00  0.00    +0.008 C 
ATOM     22  C   LIG    1       26.159 -27.033   7.463  0.00  0.00    +0.005 C 
BRANCH  20  23
ATOM     23  C   LIG    1       24.321 -30.288   7.749  0.00  0.00    +0.013 C 
ATOM     24  C   LIG    1       24.628 -31.472   7.199  0.00  0.00    +0.070 C 
BRANCH  24  25
ATOM     25  C   LIG    1       25.440 -31.708   5.974  0.00  0.00    +0.259 C 
ATOM     26  N   LIG    1       24.652 -31.772   4.850  0.00  0.00    -0.194 N 
ATOM     27  H   LIG    1       23.645 -31.664   4.828  0.00  0.00    +0.182 HD
ATOM     28  O   LIG    1       26.648 -31.860   5.948  0.00  0.00    -0.269 OA
BRANCH  26  29
ATOM     29  O   LIG    1       25.293 -32.039   3.622  0.00  0.00    -0.295 OA
ATOM     30  H   LIG    1       25.443 -33.008   3.669  0.00  0.00    +0.241 HD
ENDBRANCH  26  29
ENDBRANCH  24  25
ENDBRANCH  20  23
ENDBRANCH  16  17
ENDBRANCH   1  16
TORSDOF 8
ENDMDL
MODEL 9
REMARK VINA RESULT:      -9.1      5.780     10.380
REMARK  Name = *****
REMARK                            x       y       z     vdW  Elec       q    Type
REMARK                         _______ _______ _______ _____ _____    ______ ____
ROOT
ATOM      1  N   LIG    1       25.596 -24.038   6.698  0.00  0.00    -0.312 NA
ATOM      2  H   LIG    1       25.795 -24.465   7.600  0.00  0.00    +0.122 HD
ENDROOT
BRANCH   1   3
ATOM      3  C   LIG    1       24.276 -23.389   6.742  0.00  0.00    +0.086 C 
BRANCH   3   4
ATOM      4  C   LIG    1       24.372 -21.913   7.141  0.00  0.00    +0.052 C 
BRANCH   4   7
ATOM      5  C   LIG    1       24.046 -21.098   4.021  0.00  0.00    +0.063 C 
ATOM      6  C   LIG    1       25.178 -20.830   4.946  0.00  0.00    +0.017 C 
ATOM      7  C   LIG    1       25.352 -21.165   6.281  0.00  0.00    -0.018 C 
ATOM      8  C   LIG    1       26.640 -20.665   6.674  0.00  0.00    +0.003 C 
ATOM      9  C   LIG    1       27.193 -20.022   5.567  0.00  0.00    +0.047 C 
ATOM     10  C   LIG    1       28.445 -19.394   5.593  0.00  0.00    +0.026 C 
ATOM     11  C   LIG    1       29.160 -19.423   6.792  0.00  0.00    +0.002 C 
ATOM     12  C   LIG    1       28.644 -20.064   7.915  0.00  0.00    +0.001 C 
ATOM     13  C   LIG    1       27.390 -20.689   7.871  0.00  0.00    +0.010 C 
ATOM     14  N   LIG    1       26.291 -20.142   4.537  0.00  0.00    -0.358 NA
ATOM     15  H   LIG    1       26.436 -19.767   3.612  0.00  0.00    +0.166 HD
ENDBRANCH   4   7
ENDBRANCH   3   4
ENDBRANCH   1   3
BRANCH   1  16
ATOM     16  C   LIG    1       25.639 -25.080   5.662  0.00  0.00    +0.116 C 
BRANCH  16  17
ATOM     17  C   LIG    1       25.355 -26.467   6.192  0.00  0.00    -0.034 C 
ATOM     18  C   LIG    1       24.362 -27.262   5.603  0.00  0.00    +0.005 C 
ATOM     19  C   LIG    1       24.074 -28.532   6.112  0.00  0.00    +0.008 C 
ATOM     20  C   LIG    1       24.777 -29.017   7.219  0.00  0.00    -0.025 C 
ATOM     21  C   LIG    1       25.753 -28.220   7.822  0.00  0.00    +0.008 C 
ATOM     22  C   LIG    1       26.045 -26.957   7.311  0.00  0.00    +0.005 C 
BRANCH  20  23
ATOM     23  C   LIG    1       24.471 -30.327   7.788  0.00  0.00    +0.013 C 
ATOM     24  C   LIG    1       24.758 -31.525   7.258  0.00  0.00    +0.070 C 
BRANCH  24  25
ATOM     25  C   LIG    1       25.453 -31.793   5.969  0.00  0.00    +0.259 C 
ATOM     26  N   LIG    1       24.560 -31.957   4.938  0.00  0.00    -0.194 N 
ATOM     27  H   LIG    1       23.552 -31.898   5.016  0.00  0.00    +0.182 HD
ATOM     28  O   LIG    1       26.659 -31.889   5.826  0.00  0.00    -0.269 OA
BRANCH  26  29
ATOM     29  O   LIG    1       25.086 -32.264   3.666  0.00  0.00    -0.295 OA
ATOM     30  H   LIG    1       24.645 -31.602   3.091  0.00  0.00    +0.241 HD
ENDBRANCH  26  29
ENDBRANCH  24  25
ENDBRANCH  20  23
ENDBRANCH  16  17
ENDBRANCH   1  16
TORSDOF 8
ENDMDL
