MODEL 1
REMARK VINA RESULT:      -4.6      0.000      0.000
REMARK  Name = *****
REMARK                            x       y       z     vdW  Elec       q    Type
REMARK                         _______ _______ _______ _____ _____    ______ ____
ROOT
ATOM      1  C   LIG    1       26.783 -14.589   3.228  0.00  0.00    +0.074 C 
ENDROOT
BRANCH   1   2
ATOM      2  N   LIG    1       26.846 -14.072   1.862  0.00  0.00    -0.324 NA
ATOM      3  H   LIG    1       27.184 -13.110   1.892  0.00  0.00    +0.119 HD
ATOM      4  H   LIG    1       27.534 -14.591   1.320  0.00  0.00    +0.119 HD
ENDBRANCH   1   2
BRANCH   1   6
ATOM      5  C   LIG    1       28.630 -12.948   3.705  0.00  0.00    +0.005 C 
ATOM      6  C   LIG    1       27.594 -13.692   4.121  0.00  0.00    -0.016 C 
ENDBRANCH   1   6
BRANCH   1   7
ATOM      7  C   LIG    1       25.312 -14.674   3.682  0.00  0.00    +0.034 C 
BRANCH   7   8
ATOM      8  C   LIG    1       24.815 -13.426   4.417  0.00  0.00    +0.122 C 
BRANCH   8   9
ATOM      9  C   LIG    1       24.021 -12.509   3.517  0.00  0.00    +0.305 C 
ATOM     10  O   LIG    1       23.535 -11.447   3.865  0.00  0.00    -0.251 OA
BRANCH   9  11
ATOM     11  O   LIG    1       23.854 -13.008   2.272  0.00  0.00    -0.481 OA
ATOM     12  H   LIG    1       23.026 -13.508   2.148  0.00  0.00    +0.295 HD
ENDBRANCH   9  11
ENDBRANCH   8   9
ENDBRANCH   7   8
ENDBRANCH   1   7
TORSDOF 6
ENDMDL
MODEL 2
REMARK VINA RESULT:      -4.4      2.838      3.936
REMARK  Name = *****
REMARK                            x       y       z     vdW  Elec       q    Type
REMARK                         _______ _______ _______ _____ _____    ______ ____
ROOT
ATOM      1  C   LIG    1       24.980 -13.134   3.230  0.00  0.00    +0.074 C 
ENDROOT
BRANCH   1   2
ATOM      2  N   LIG    1       23.841 -12.910   2.341  0.00  0.00    -0.324 NA
ATOM      3  H   LIG    1       24.168 -12.946   1.376  0.00  0.00    +0.119 HD
ATOM      4  H   LIG    1       23.167 -13.665   2.435  0.00  0.00    +0.119 HD
ENDBRANCH   1   2
BRANCH   1   6
ATOM      5  C   LIG    1       23.461 -14.847   4.275  0.00  0.00    +0.005 C 
ATOM      6  C   LIG    1       24.560 -14.079   4.322  0.00  0.00    -0.016 C 
ENDBRANCH   1   6
BRANCH   1   7
ATOM      7  C   LIG    1       26.170 -13.686   2.420  0.00  0.00    +0.034 C 
BRANCH   7   8
ATOM      8  C   LIG    1       27.211 -14.423   3.267  0.00  0.00    +0.122 C 
BRANCH   8   9
ATOM      9  C   LIG    1       28.174 -13.476   3.943  0.00  0.00    +0.305 C 
ATOM     10  O   LIG    1       27.947 -12.880   4.983  0.00  0.00    -0.251 OA
BRANCH   9  11
ATOM     11  O   LIG    1       29.321 -13.307   3.248  0.00  0.00    -0.481 OA
ATOM     12  H   LIG    1       29.256 -12.661   2.519  0.00  0.00    +0.295 HD
ENDBRANCH   9  11
ENDBRANCH   8   9
ENDBRANCH   7   8
ENDBRANCH   1   7
TORSDOF 6
ENDMDL
MODEL 3
REMARK VINA RESULT:      -4.4      7.464      8.208
REMARK  Name = *****
REMARK                            x       y       z     vdW  Elec       q    Type
REMARK                         _______ _______ _______ _____ _____    ______ ____
ROOT
ATOM      1  C   LIG    1       22.884 -20.859   5.059  0.00  0.00    +0.074 C 
ENDROOT
BRANCH   1   2
ATOM      2  N   LIG    1       22.978 -21.453   6.391  0.00  0.00    -0.324 NA
ATOM      3  H   LIG    1       22.081 -21.878   6.624  0.00  0.00    +0.119 HD
ATOM      4  H   LIG    1       23.654 -22.213   6.391  0.00  0.00    +0.119 HD
ENDBRANCH   1   2
BRANCH   1   6
ATOM      5  C   LIG    1       21.992 -18.633   4.297  0.00  0.00    +0.005 C 
ATOM      6  C   LIG    1       22.632 -19.384   5.205  0.00  0.00    -0.016 C 
ENDBRANCH   1   6
BRANCH   1   7
ATOM      7  C   LIG    1       24.178 -21.146   4.271  0.00  0.00    +0.034 C 
BRANCH   7   8
ATOM      8  C   LIG    1       25.218 -20.025   4.354  0.00  0.00    +0.122 C 
BRANCH   8   9
ATOM      9  C   LIG    1       26.240 -20.272   5.439  0.00  0.00    +0.305 C 
ATOM     10  O   LIG    1       25.973 -20.480   6.609  0.00  0.00    -0.251 OA
BRANCH   9  11
ATOM     11  O   LIG    1       27.513 -20.189   4.990  0.00  0.00    -0.481 OA
ATOM     12  H   LIG    1       28.109 -20.874   5.348  0.00  0.00    +0.295 HD
ENDBRANCH   9  11
ENDBRANCH   8   9
ENDBRANCH   7   8
ENDBRANCH   1   7
TORSDOF 6
ENDMDL
MODEL 4
REMARK VINA RESULT:      -4.3      6.431      7.497
REMARK  Name = *****
REMARK                            x       y       z     vdW  Elec       q    Type
REMARK                         _______ _______ _______ _____ _____    ______ ____
ROOT
ATOM      1  C   LIG    1       22.637 -20.399   5.401  0.00  0.00    +0.074 C 
ENDROOT
BRANCH   1   2
ATOM      2  N   LIG    1       23.042 -21.571   4.626  0.00  0.00    -0.324 NA
ATOM      3  H   LIG    1       23.999 -21.434   4.302  0.00  0.00    +0.119 HD
ATOM      4  H   LIG    1       23.065 -22.396   5.221  0.00  0.00    +0.119 HD
ENDBRANCH   1   2
BRANCH   1   6
ATOM      5  C   LIG    1       24.522 -20.956   6.973  0.00  0.00    +0.005 C 
ATOM      6  C   LIG    1       23.293 -20.466   6.752  0.00  0.00    -0.016 C 
ENDBRANCH   1   6
BRANCH   1   7
ATOM      7  C   LIG    1       23.021 -19.115   4.638  0.00  0.00    +0.034 C 
BRANCH   7   8
ATOM      8  C   LIG    1       23.863 -19.365   3.384  0.00  0.00    +0.122 C 
BRANCH   8   9
ATOM      9  C   LIG    1       25.305 -18.957   3.571  0.00  0.00    +0.305 C 
ATOM     10  O   LIG    1       25.744 -17.841   3.348  0.00  0.00    -0.251 OA
BRANCH   9  11
ATOM     11  O   LIG    1       26.094 -19.979   3.970  0.00  0.00    -0.481 OA
ATOM     12  H   LIG    1       26.779 -19.727   4.618  0.00  0.00    +0.295 HD
ENDBRANCH   9  11
ENDBRANCH   8   9
ENDBRANCH   7   8
ENDBRANCH   1   7
TORSDOF 6
ENDMDL
MODEL 5
REMARK VINA RESULT:      -4.2      6.723      7.313
REMARK  Name = *****
REMARK                            x       y       z     vdW  Elec       q    Type
REMARK                         _______ _______ _______ _____ _____    ______ ____
ROOT
ATOM      1  C   LIG    1       24.525 -21.348   6.288  0.00  0.00    +0.074 C 
ENDROOT
BRANCH   1   2
ATOM      2  N   LIG    1       24.904 -21.572   4.894  0.00  0.00    -0.324 NA
ATOM      3  H   LIG    1       24.056 -21.666   4.336  0.00  0.00    +0.119 HD
ATOM      4  H   LIG    1       25.390 -20.757   4.526  0.00  0.00    +0.119 HD
ENDBRANCH   1   2
BRANCH   1   6
ATOM      5  C   LIG    1       26.850 -20.395   6.426  0.00  0.00    +0.005 C 
ATOM      6  C   LIG    1       25.686 -20.720   7.008  0.00  0.00    -0.016 C 
ENDBRANCH   1   6
BRANCH   1   7
ATOM      7  C   LIG    1       23.266 -20.460   6.347  0.00  0.00    +0.034 C 
BRANCH   7   8
ATOM      8  C   LIG    1       22.540 -20.322   5.006  0.00  0.00    +0.122 C 
BRANCH   8   9
ATOM      9  C   LIG    1       22.755 -18.966   4.374  0.00  0.00    +0.305 C 
ATOM     10  O   LIG    1       21.979 -18.031   4.459  0.00  0.00    -0.251 OA
BRANCH   9  11
ATOM     11  O   LIG    1       23.893 -18.900   3.647  0.00  0.00    -0.481 OA
ATOM     12  H   LIG    1       24.555 -18.274   3.996  0.00  0.00    +0.295 HD
ENDBRANCH   9  11
ENDBRANCH   8   9
ENDBRANCH   7   8
ENDBRANCH   1   7
TORSDOF 6
ENDMDL
MODEL 6
REMARK VINA RESULT:      -4.2      2.771      3.755
REMARK  Name = *****
REMARK                            x       y       z     vdW  Elec       q    Type
REMARK                         _______ _______ _______ _____ _____    ______ ____
ROOT
ATOM      1  C   LIG    1       24.333 -13.547   3.360  0.00  0.00    +0.074 C 
ENDROOT
BRANCH   1   2
ATOM      2  N   LIG    1       24.272 -12.583   4.458  0.00  0.00    -0.324 NA
ATOM      3  H   LIG    1       23.944 -11.689   4.090  0.00  0.00    +0.119 HD
ATOM      4  H   LIG    1       23.579 -12.873   5.143  0.00  0.00    +0.119 HD
ENDBRANCH   1   2
BRANCH   1   6
ATOM      5  C   LIG    1       24.405 -11.484   1.920  0.00  0.00    +0.005 C 
ATOM      6  C   LIG    1       24.592 -12.803   2.080  0.00  0.00    -0.016 C 
ENDBRANCH   1   6
BRANCH   1   7
ATOM      7  C   LIG    1       25.429 -14.592   3.649  0.00  0.00    +0.034 C 
BRANCH   7   8
ATOM      8  C   LIG    1       26.783 -14.265   3.016  0.00  0.00    +0.122 C 
BRANCH   8   9
ATOM      9  C   LIG    1       27.689 -13.506   3.957  0.00  0.00    +0.305 C 
ATOM     10  O   LIG    1       27.410 -13.225   5.110  0.00  0.00    -0.251 OA
BRANCH   9  11
ATOM     11  O   LIG    1       28.845 -13.115   3.375  0.00  0.00    -0.481 OA
ATOM     12  H   LIG    1       29.173 -13.725   2.688  0.00  0.00    +0.295 HD
ENDBRANCH   9  11
ENDBRANCH   8   9
ENDBRANCH   7   8
ENDBRANCH   1   7
TORSDOF 6
ENDMDL
MODEL 7
REMARK VINA RESULT:      -4.2      7.561      8.498
REMARK  Name = *****
REMARK                            x       y       z     vdW  Elec       q    Type
REMARK                         _______ _______ _______ _____ _____    ______ ____
ROOT
ATOM      1  C   LIG    1       24.373 -20.638   5.060  0.00  0.00    +0.074 C 
ENDROOT
BRANCH   1   2
ATOM      2  N   LIG    1       24.111 -21.572   3.965  0.00  0.00    -0.324 NA
ATOM      3  H   LIG    1       23.122 -21.822   3.978  0.00  0.00    +0.119 HD
ATOM      4  H   LIG    1       24.272 -21.118   3.069  0.00  0.00    +0.119 HD
ENDBRANCH   1   2
BRANCH   1   6
ATOM      5  C   LIG    1       22.370 -19.122   4.902  0.00  0.00    +0.005 C 
ATOM      6  C   LIG    1       23.062 -20.079   5.539  0.00  0.00    -0.016 C 
ENDBRANCH   1   6
BRANCH   1   7
ATOM      7  C   LIG    1       25.135 -21.362   6.188  0.00  0.00    +0.034 C 
BRANCH   7   8
ATOM      8  C   LIG    1       26.139 -20.474   6.928  0.00  0.00    +0.122 C 
BRANCH   8   9
ATOM      9  C   LIG    1       27.537 -20.599   6.368  0.00  0.00    +0.305 C 
ATOM     10  O   LIG    1       28.495 -21.029   6.987  0.00  0.00    -0.251 OA
BRANCH   9  11
ATOM     11  O   LIG    1       27.641 -20.133   5.104  0.00  0.00    -0.481 OA
ATOM     12  H   LIG    1       28.558 -20.046   4.783  0.00  0.00    +0.295 HD
ENDBRANCH   9  11
ENDBRANCH   8   9
ENDBRANCH   7   8
ENDBRANCH   1   7
TORSDOF 6
ENDMDL
MODEL 8
REMARK VINA RESULT:      -4.1      2.406      3.805
REMARK  Name = *****
REMARK                            x       y       z     vdW  Elec       q    Type
REMARK                         _______ _______ _______ _____ _____    ______ ____
ROOT
ATOM      1  C   LIG    1       24.574 -12.536   3.176  0.00  0.00    +0.074 C 
ENDROOT
BRANCH   1   2
ATOM      2  N   LIG    1       23.881 -12.908   1.943  0.00  0.00    -0.324 NA
ATOM      3  H   LIG    1       22.994 -12.407   1.903  0.00  0.00    +0.119 HD
ATOM      4  H   LIG    1       24.413 -12.597   1.133  0.00  0.00    +0.119 HD
ENDBRANCH   1   2
BRANCH   1   6
ATOM      5  C   LIG    1       23.670 -11.503   5.286  0.00  0.00    +0.005 C 
ATOM      6  C   LIG    1       23.705 -11.581   3.947  0.00  0.00    -0.016 C 
ENDBRANCH   1   6
BRANCH   1   7
ATOM      7  C   LIG    1       24.898 -13.804   3.991  0.00  0.00    +0.034 C 
BRANCH   7   8
ATOM      8  C   LIG    1       26.389 -13.988   4.289  0.00  0.00    +0.122 C 
BRANCH   8   9
ATOM      9  C   LIG    1       27.231 -13.961   3.035  0.00  0.00    +0.305 C 
ATOM     10  O   LIG    1       26.851 -14.329   1.937  0.00  0.00    -0.251 OA
BRANCH   9  11
ATOM     11  O   LIG    1       28.492 -13.528   3.258  0.00  0.00    -0.481 OA
ATOM     12  H   LIG    1       29.133 -14.240   3.442  0.00  0.00    +0.295 HD
ENDBRANCH   9  11
ENDBRANCH   8   9
ENDBRANCH   7   8
ENDBRANCH   1   7
TORSDOF 6
ENDMDL
MODEL 9
REMARK VINA RESULT:      -4.1      7.407      7.819
REMARK  Name = *****
REMARK                            x       y       z     vdW  Elec       q    Type
REMARK                         _______ _______ _______ _____ _____    ______ ____
ROOT
ATOM      1  C   LIG    1       26.152 -20.945   6.083  0.00  0.00    +0.074 C 
ENDROOT
BRANCH   1   2
ATOM      2  N   LIG    1       26.192 -20.321   4.761  0.00  0.00    -0.324 NA
ATOM      3  H   LIG    1       25.534 -19.542   4.747  0.00  0.00    +0.119 HD
ATOM      4  H   LIG    1       27.108 -19.914   4.592  0.00  0.00    +0.119 HD
ENDBRANCH   1   2
BRANCH   1   6
ATOM      5  C   LIG    1       28.456 -19.988   6.412  0.00  0.00    +0.005 C 
ATOM      6  C   LIG    1       27.278 -20.392   6.911  0.00  0.00    -0.016 C 
ENDBRANCH   1   6
BRANCH   1   7
ATOM      7  C   LIG    1       24.779 -20.689   6.736  0.00  0.00    +0.034 C 
BRANCH   7   8
ATOM      8  C   LIG    1       23.653 -21.567   6.182  0.00  0.00    +0.122 C 
BRANCH   8   9
ATOM      9  C   LIG    1       22.593 -20.759   5.471  0.00  0.00    +0.305 C 
ATOM     10  O   LIG    1       22.539 -19.541   5.462  0.00  0.00    -0.251 OA
BRANCH   9  11
ATOM     11  O   LIG    1       21.657 -21.530   4.873  0.00  0.00    -0.481 OA
ATOM     12  H   LIG    1       21.994 -22.383   4.540  0.00  0.00    +0.295 HD
ENDBRANCH   9  11
ENDBRANCH   8   9
ENDBRANCH   7   8
ENDBRANCH   1   7
TORSDOF 6
ENDMDL
