MODEL 1
REMARK VINA RESULT:      -4.3      0.000      0.000
REMARK  Name = *****
REMARK                            x       y       z     vdW  Elec       q    Type
REMARK                         _______ _______ _______ _____ _____    ______ ____
ROOT
ATOM      1  F   LIG    1       21.652 -21.530   5.240  0.00  0.00    -0.072 F 
ATOM      2  S   LIG    1       23.204 -20.834   5.636  0.00  0.00    +0.433 S 
ATOM      3  F   LIG    1       23.951 -22.405   5.474  0.00  0.00    -0.072 F 
ATOM      4  F   LIG    1       22.912 -21.148   7.330  0.00  0.00    -0.072 F 
ATOM      5  F   LIG    1       24.756 -20.137   6.033  0.00  0.00    -0.072 F 
ATOM      6  F   LIG    1       22.457 -19.263   5.800  0.00  0.00    -0.072 F 
ATOM      7  F   LIG    1       23.496 -20.520   3.943  0.00  0.00    -0.072 F 
ENDROOT
TORSDOF 0
ENDMDL
MODEL 2
REMARK VINA RESULT:      -4.3      0.107      2.642
REMARK  Name = *****
REMARK                            x       y       z     vdW  Elec       q    Type
REMARK                         _______ _______ _______ _____ _____    ______ ____
ROOT
ATOM      1  F   LIG    1       22.888 -21.150   7.244  0.00  0.00    -0.072 F 
ATOM      2  S   LIG    1       23.191 -20.773   5.566  0.00  0.00    +0.433 S 
ATOM      3  F   LIG    1       22.451 -19.205   5.785  0.00  0.00    -0.072 F 
ATOM      4  F   LIG    1       21.638 -21.445   5.135  0.00  0.00    -0.072 F 
ATOM      5  F   LIG    1       23.494 -20.396   3.888  0.00  0.00    -0.072 F 
ATOM      6  F   LIG    1       23.930 -22.340   5.348  0.00  0.00    -0.072 F 
ATOM      7  F   LIG    1       24.745 -20.100   5.998  0.00  0.00    -0.072 F 
ENDROOT
TORSDOF 0
ENDMDL
MODEL 3
REMARK VINA RESULT:      -4.3      0.093      1.854
REMARK  Name = *****
REMARK                            x       y       z     vdW  Elec       q    Type
REMARK                         _______ _______ _______ _____ _____    ______ ____
ROOT
ATOM      1  F   LIG    1       22.893 -21.137   7.255  0.00  0.00    -0.072 F 
ATOM      2  S   LIG    1       23.194 -20.778   5.573  0.00  0.00    +0.433 S 
ATOM      3  F   LIG    1       23.932 -22.349   5.369  0.00  0.00    -0.072 F 
ATOM      4  F   LIG    1       24.749 -20.104   5.995  0.00  0.00    -0.072 F 
ATOM      5  F   LIG    1       23.496 -20.419   3.890  0.00  0.00    -0.072 F 
ATOM      6  F   LIG    1       22.458 -19.207   5.776  0.00  0.00    -0.072 F 
ATOM      7  F   LIG    1       21.639 -21.453   5.150  0.00  0.00    -0.072 F 
ENDROOT
TORSDOF 0
ENDMDL
MODEL 4
REMARK VINA RESULT:      -4.3      0.088      2.642
REMARK  Name = *****
REMARK                            x       y       z     vdW  Elec       q    Type
REMARK                         _______ _______ _______ _____ _____    ______ ____
ROOT
ATOM      1  F   LIG    1       22.465 -19.209   5.752  0.00  0.00    -0.072 F 
ATOM      2  S   LIG    1       23.200 -20.782   5.569  0.00  0.00    +0.433 S 
ATOM      3  F   LIG    1       24.756 -20.103   5.981  0.00  0.00    -0.072 F 
ATOM      4  F   LIG    1       23.500 -20.445   3.882  0.00  0.00    -0.072 F 
ATOM      5  F   LIG    1       23.935 -22.356   5.386  0.00  0.00    -0.072 F 
ATOM      6  F   LIG    1       21.644 -21.460   5.157  0.00  0.00    -0.072 F 
ATOM      7  F   LIG    1       22.900 -21.118   7.258  0.00  0.00    -0.072 F 
ENDROOT
TORSDOF 0
ENDMDL
MODEL 5
REMARK VINA RESULT:      -4.3      0.103      2.267
REMARK  Name = *****
REMARK                            x       y       z     vdW  Elec       q    Type
REMARK                         _______ _______ _______ _____ _____    ______ ____
ROOT
ATOM      1  F   LIG    1       22.890 -21.145   7.247  0.00  0.00    -0.072 F 
ATOM      2  S   LIG    1       23.194 -20.774   5.568  0.00  0.00    +0.433 S 
ATOM      3  F   LIG    1       24.748 -20.100   5.998  0.00  0.00    -0.072 F 
ATOM      4  F   LIG    1       22.456 -19.206   5.781  0.00  0.00    -0.072 F 
ATOM      5  F   LIG    1       23.498 -20.403   3.888  0.00  0.00    -0.072 F 
ATOM      6  F   LIG    1       21.641 -21.448   5.138  0.00  0.00    -0.072 F 
ATOM      7  F   LIG    1       23.934 -22.343   5.356  0.00  0.00    -0.072 F 
ENDROOT
TORSDOF 0
ENDMDL
MODEL 6
REMARK VINA RESULT:      -4.3      0.066      2.291
REMARK  Name = *****
REMARK                            x       y       z     vdW  Elec       q    Type
REMARK                         _______ _______ _______ _____ _____    ______ ____
ROOT
ATOM      1  F   LIG    1       23.508 -20.438   3.917  0.00  0.00    -0.072 F 
ATOM      2  S   LIG    1       23.201 -20.799   5.597  0.00  0.00    +0.433 S 
ATOM      3  F   LIG    1       21.648 -21.473   5.169  0.00  0.00    -0.072 F 
ATOM      4  F   LIG    1       22.463 -19.229   5.800  0.00  0.00    -0.072 F 
ATOM      5  F   LIG    1       22.894 -21.160   7.279  0.00  0.00    -0.072 F 
ATOM      6  F   LIG    1       24.754 -20.124   6.026  0.00  0.00    -0.072 F 
ATOM      7  F   LIG    1       23.939 -22.369   5.395  0.00  0.00    -0.072 F 
ENDROOT
TORSDOF 0
ENDMDL
MODEL 7
REMARK VINA RESULT:      -4.3      0.067      2.641
REMARK  Name = *****
REMARK                            x       y       z     vdW  Elec       q    Type
REMARK                         _______ _______ _______ _____ _____    ______ ____
ROOT
ATOM      1  F   LIG    1       23.511 -20.429   3.928  0.00  0.00    -0.072 F 
ATOM      2  S   LIG    1       23.201 -20.800   5.606  0.00  0.00    +0.433 S 
ATOM      3  F   LIG    1       22.461 -19.231   5.816  0.00  0.00    -0.072 F 
ATOM      4  F   LIG    1       24.752 -20.127   6.042  0.00  0.00    -0.072 F 
ATOM      5  F   LIG    1       22.890 -21.172   7.284  0.00  0.00    -0.072 F 
ATOM      6  F   LIG    1       23.941 -22.368   5.396  0.00  0.00    -0.072 F 
ATOM      7  F   LIG    1       21.649 -21.474   5.169  0.00  0.00    -0.072 F 
ENDROOT
TORSDOF 0
ENDMDL
MODEL 8
REMARK VINA RESULT:      -4.3      0.081      1.876
REMARK  Name = *****
REMARK                            x       y       z     vdW  Elec       q    Type
REMARK                         _______ _______ _______ _____ _____    ______ ____
ROOT
ATOM      1  F   LIG    1       22.459 -19.219   5.776  0.00  0.00    -0.072 F 
ATOM      2  S   LIG    1       23.198 -20.788   5.579  0.00  0.00    +0.433 S 
ATOM      3  F   LIG    1       21.644 -21.468   5.160  0.00  0.00    -0.072 F 
ATOM      4  F   LIG    1       22.898 -21.142   7.263  0.00  0.00    -0.072 F 
ATOM      5  F   LIG    1       23.938 -22.359   5.381  0.00  0.00    -0.072 F 
ATOM      6  F   LIG    1       24.751 -20.109   5.998  0.00  0.00    -0.072 F 
ATOM      7  F   LIG    1       23.497 -20.435   3.894  0.00  0.00    -0.072 F 
ENDROOT
TORSDOF 0
ENDMDL
MODEL 9
REMARK VINA RESULT:      -4.3      0.070      1.890
REMARK  Name = *****
REMARK                            x       y       z     vdW  Elec       q    Type
REMARK                         _______ _______ _______ _____ _____    ______ ____
ROOT
ATOM      1  F   LIG    1       23.591 -20.523   3.924  0.00  0.00    -0.072 F 
ATOM      2  S   LIG    1       23.249 -20.824   5.610  0.00  0.00    +0.433 S 
ATOM      3  F   LIG    1       23.964 -22.412   5.471  0.00  0.00    -0.072 F 
ATOM      4  F   LIG    1       21.693 -21.488   5.175  0.00  0.00    -0.072 F 
ATOM      5  F   LIG    1       22.906 -21.126   7.296  0.00  0.00    -0.072 F 
ATOM      6  F   LIG    1       22.533 -19.237   5.747  0.00  0.00    -0.072 F 
ATOM      7  F   LIG    1       24.805 -20.161   6.044  0.00  0.00    -0.072 F 
ENDROOT
TORSDOF 0
ENDMDL
