MODEL 1
REMARK VINA RESULT:      -4.1      0.000      0.000
REMARK  Name = *****
REMARK                            x       y       z     vdW  Elec       q    Type
REMARK                         _______ _______ _______ _____ _____    ______ ____
ROOT
ATOM      1  C   LIG    1       23.377 -17.132   4.028  0.00  0.00    +0.198 A 
ATOM      2  N   LIG    1       24.692 -17.047   3.663  0.00  0.00    -0.331 N 
ATOM      3  H   LIG    1       25.235 -17.839   3.323  0.00  0.00    +0.168 HD
ATOM      4  C   LIG    1       25.062 -15.733   3.676  0.00  0.00    +0.070 A 
ATOM      5  C   LIG    1       23.944 -15.086   4.197  0.00  0.00    +0.090 A 
ATOM      6  C   LIG    1       23.975 -13.701   4.380  0.00  0.00    +0.033 A 
ATOM      7  C   LIG    1       25.104 -12.995   3.953  0.00  0.00    +0.048 A 
ATOM      8  C   LIG    1       26.214 -13.654   3.406  0.00  0.00    +0.129 A 
ATOM      9  C   LIG    1       26.213 -15.042   3.270  0.00  0.00    +0.073 A 
ATOM     10  N   LIG    1       22.913 -15.963   4.430  0.00  0.00    -0.220 NA
ENDROOT
BRANCH   1  11
ATOM     11  S   LIG    1       22.451 -18.597   3.883  0.00  0.00    +0.096 S 
ATOM     12  O   LIG    1       21.968 -18.855   5.287  0.00  0.00    -0.249 OA
BRANCH  11  13
ATOM     13  C   LIG    1       23.861 -19.675   3.466  0.00  0.00    +0.171 C 
BRANCH  13  16
ATOM     14  C   LIG    1       26.273 -20.567   6.276  0.00  0.00    +0.165 A 
ATOM     15  C   LIG    1       25.846 -20.147   5.001  0.00  0.00    +0.184 A 
ATOM     16  C   LIG    1       24.496 -20.350   4.662  0.00  0.00    +0.099 A 
ATOM     17  N   LIG    1       23.644 -21.051   5.457  0.00  0.00    -0.255 NA
ATOM     18  C   LIG    1       24.126 -21.571   6.597  0.00  0.00    +0.115 A 
ATOM     19  C   LIG    1       25.404 -21.335   7.058  0.00  0.00    +0.069 A 
BRANCH  14  21
ATOM     20  C   LIG    1       28.509 -21.175   6.862  0.00  0.00    +0.277 C 
ATOM     21  O   LIG    1       27.508 -20.161   6.725  0.00  0.00    -0.491 OA
ENDBRANCH  14  21
BRANCH  15  22
ATOM     22  O   LIG    1       26.597 -19.459   4.087  0.00  0.00    -0.490 OA
ATOM     23  C   LIG    1       27.491 -18.455   4.562  0.00  0.00    +0.277 C 
ENDBRANCH  15  22
ENDBRANCH  13  16
ENDBRANCH  11  13
ENDBRANCH   1  11
BRANCH   8  24
ATOM     24  O   LIG    1       27.331 -12.993   2.955  0.00  0.00    -0.434 OA
BRANCH  24  25
ATOM     25  C   LIG    1       28.466 -13.100   3.809  0.00  0.00    +0.541 C 
ATOM     26  F   LIG    1       28.053 -13.310   5.084  0.00  0.00    -0.166 F 
ATOM     27  F   LIG    1       29.111 -11.908   3.800  0.00  0.00    -0.166 F 
ENDBRANCH  24  25
ENDBRANCH   8  24
TORSDOF 7
ENDMDL
MODEL 2
REMARK VINA RESULT:      -2.9      2.452      4.019
REMARK  Name = *****
REMARK                            x       y       z     vdW  Elec       q    Type
REMARK                         _______ _______ _______ _____ _____    ______ ____
ROOT
ATOM      1  C   LIG    1       27.807 -17.580   4.709  0.00  0.00    +0.198 A 
ATOM      2  N   LIG    1       26.777 -17.386   3.830  0.00  0.00    -0.331 N 
ATOM      3  H   LIG    1       26.102 -18.108   3.583  0.00  0.00    +0.168 HD
ATOM      4  C   LIG    1       26.728 -16.060   3.504  0.00  0.00    +0.070 A 
ATOM      5  C   LIG    1       27.858 -15.532   4.125  0.00  0.00    +0.090 A 
ATOM      6  C   LIG    1       28.148 -14.173   3.982  0.00  0.00    +0.033 A 
ATOM      7  C   LIG    1       27.243 -13.366   3.286  0.00  0.00    +0.048 A 
ATOM      8  C   LIG    1       26.095 -13.903   2.687  0.00  0.00    +0.129 A 
ATOM      9  C   LIG    1       25.826 -15.269   2.779  0.00  0.00    +0.073 A 
ATOM     10  N   LIG    1       28.530 -16.485   4.852  0.00  0.00    -0.220 NA
ENDROOT
BRANCH   1  11
ATOM     11  S   LIG    1       28.043 -19.073   5.569  0.00  0.00    +0.096 S 
ATOM     12  O   LIG    1       29.455 -19.465   5.223  0.00  0.00    -0.249 OA
BRANCH  11  13
ATOM     13  C   LIG    1       26.838 -20.044   4.603  0.00  0.00    +0.171 C 
BRANCH  13  16
ATOM     14  C   LIG    1       23.132 -20.440   5.393  0.00  0.00    +0.165 A 
ATOM     15  C   LIG    1       24.298 -19.900   4.812  0.00  0.00    +0.184 A 
ATOM     16  C   LIG    1       25.538 -20.312   5.330  0.00  0.00    +0.099 A 
ATOM     17  N   LIG    1       25.641 -21.090   6.441  0.00  0.00    -0.255 NA
ATOM     18  C   LIG    1       24.509 -21.461   7.061  0.00  0.00    +0.115 A 
ATOM     19  C   LIG    1       23.250 -21.191   6.566  0.00  0.00    +0.069 A 
BRANCH  14  21
ATOM     20  C   LIG    1       21.604 -18.910   4.376  0.00  0.00    +0.277 C 
ATOM     21  O   LIG    1       21.929 -20.252   4.752  0.00  0.00    -0.491 OA
ENDBRANCH  14  21
BRANCH  15  22
ATOM     22  O   LIG    1       24.346 -19.084   3.715  0.00  0.00    -0.490 OA
ATOM     23  C   LIG    1       24.373 -19.686   2.423  0.00  0.00    +0.277 C 
ENDBRANCH  15  22
ENDBRANCH  13  16
ENDBRANCH  11  13
ENDBRANCH   1  11
BRANCH   8  24
ATOM     24  O   LIG    1       25.173 -13.138   2.015  0.00  0.00    -0.434 OA
BRANCH  24  25
ATOM     25  C   LIG    1       24.006 -12.821   2.769  0.00  0.00    +0.541 C 
ATOM     26  F   LIG    1       23.646 -11.536   2.522  0.00  0.00    -0.166 F 
ATOM     27  F   LIG    1       24.326 -12.889   4.084  0.00  0.00    -0.166 F 
ENDBRANCH  24  25
ENDBRANCH   8  24
TORSDOF 7
ENDMDL
