MODEL 1
REMARK VINA RESULT:      -9.3      0.000      0.000
REMARK  Name = *****
REMARK                            x       y       z     vdW  Elec       q    Type
REMARK                         _______ _______ _______ _____ _____    ______ ____
ROOT
ATOM      1  C   LIG    1       29.483 -20.617   7.506  0.00  0.00    -0.031 A 
ATOM      2  C   LIG    1       28.497 -21.441   8.061  0.00  0.00    +0.043 A 
ATOM      3  C   LIG    1       27.191 -21.442   7.557  0.00  0.00    +0.131 A 
ATOM      4  F   LIG    1       26.318 -22.279   8.140  0.00  0.00    -0.205 F 
ATOM      5  C   LIG    1       26.801 -20.631   6.477  0.00  0.00    +0.017 A 
ATOM      6  C   LIG    1       27.809 -19.814   5.928  0.00  0.00    +0.012 A 
ATOM      7  C   LIG    1       29.120 -19.798   6.431  0.00  0.00    +0.005 A 
ENDROOT
BRANCH   5   8
ATOM      8  C   LIG    1       25.411 -20.615   5.937  0.00  0.00    -0.015 A 
ATOM      9  C   LIG    1       24.283 -20.730   6.771  0.00  0.00    +0.008 A 
ATOM     10  C   LIG    1       22.979 -20.703   6.259  0.00  0.00    +0.001 A 
ATOM     11  C   LIG    1       22.767 -20.557   4.894  0.00  0.00    +0.000 A 
ATOM     12  C   LIG    1       23.858 -20.437   4.041  0.00  0.00    +0.001 A 
ATOM     13  C   LIG    1       25.160 -20.466   4.557  0.00  0.00    +0.008 A 
ENDBRANCH   5   8
BRANCH   1  15
ATOM     14  C   LIG    1       31.084 -21.781   9.075  0.00  0.00    +0.024 C 
ATOM     15  C   LIG    1       30.904 -20.653   8.051  0.00  0.00    +0.124 C 
BRANCH  15  16
ATOM     16  C   LIG    1       31.391 -19.330   8.647  0.00  0.00    +0.312 C 
ATOM     17  O   LIG    1       32.021 -18.493   8.019  0.00  0.00    -0.250 OA
BRANCH  16  18
ATOM     18  O   LIG    1       31.011 -19.097   9.926  0.00  0.00    -0.480 OA
ATOM     19  H   LIG    1       31.216 -18.203  10.258  0.00  0.00    +0.295 HD
ENDBRANCH  16  18
ENDBRANCH  15  16
ENDBRANCH   1  15
TORSDOF 4
ENDMDL
MODEL 2
REMARK VINA RESULT:      -9.2      1.127      1.760
REMARK  Name = *****
REMARK                            x       y       z     vdW  Elec       q    Type
REMARK                         _______ _______ _______ _____ _____    ______ ____
ROOT
ATOM      1  C   LIG    1       29.466 -20.678   7.557  0.00  0.00    -0.031 A 
ATOM      2  C   LIG    1       29.142 -19.862   6.467  0.00  0.00    +0.043 A 
ATOM      3  C   LIG    1       27.841 -19.834   5.951  0.00  0.00    +0.131 A 
ATOM      4  F   LIG    1       27.620 -19.007   4.916  0.00  0.00    -0.205 F 
ATOM      5  C   LIG    1       26.800 -20.608   6.491  0.00  0.00    +0.017 A 
ATOM      6  C   LIG    1       27.144 -21.417   7.592  0.00  0.00    +0.012 A 
ATOM      7  C   LIG    1       28.448 -21.461   8.113  0.00  0.00    +0.005 A 
ENDROOT
BRANCH   5   8
ATOM      8  C   LIG    1       25.413 -20.594   5.944  0.00  0.00    -0.015 A 
ATOM      9  C   LIG    1       24.281 -20.707   6.773  0.00  0.00    +0.008 A 
ATOM     10  C   LIG    1       22.980 -20.682   6.256  0.00  0.00    +0.001 A 
ATOM     11  C   LIG    1       22.773 -20.541   4.889  0.00  0.00    +0.000 A 
ATOM     12  C   LIG    1       23.868 -20.424   4.041  0.00  0.00    +0.001 A 
ATOM     13  C   LIG    1       25.167 -20.450   4.563  0.00  0.00    +0.008 A 
ENDBRANCH   5   8
BRANCH   1  15
ATOM     14  C   LIG    1       31.097 -21.828   9.106  0.00  0.00    +0.024 C 
ATOM     15  C   LIG    1       30.880 -20.672   8.122  0.00  0.00    +0.124 C 
BRANCH  15  16
ATOM     16  C   LIG    1       31.299 -19.352   8.774  0.00  0.00    +0.312 C 
ATOM     17  O   LIG    1       31.055 -19.059   9.934  0.00  0.00    -0.250 OA
BRANCH  16  18
ATOM     18  O   LIG    1       32.042 -18.532   7.993  0.00  0.00    -0.480 OA
ATOM     19  H   LIG    1       31.867 -18.608   7.035  0.00  0.00    +0.295 HD
ENDBRANCH  16  18
ENDBRANCH  15  16
ENDBRANCH   1  15
TORSDOF 4
ENDMDL
MODEL 3
REMARK VINA RESULT:      -8.8      3.620      6.789
REMARK  Name = *****
REMARK                            x       y       z     vdW  Elec       q    Type
REMARK                         _______ _______ _______ _____ _____    ______ ____
ROOT
ATOM      1  C   LIG    1       24.713 -20.894   7.013  0.00  0.00    -0.031 A 
ATOM      2  C   LIG    1       25.600 -20.579   5.977  0.00  0.00    +0.043 A 
ATOM      3  C   LIG    1       26.947 -20.300   6.243  0.00  0.00    +0.131 A 
ATOM      4  F   LIG    1       27.727 -20.026   5.185  0.00  0.00    -0.205 F 
ATOM      5  C   LIG    1       27.479 -20.325   7.543  0.00  0.00    +0.017 A 
ATOM      6  C   LIG    1       26.571 -20.652   8.571  0.00  0.00    +0.012 A 
ATOM      7  C   LIG    1       25.217 -20.924   8.318  0.00  0.00    +0.005 A 
ENDROOT
BRANCH   5   8
ATOM      8  C   LIG    1       28.908 -20.021   7.841  0.00  0.00    -0.015 A 
ATOM      9  C   LIG    1       29.417 -18.709   7.802  0.00  0.00    +0.008 A 
ATOM     10  C   LIG    1       30.758 -18.428   8.093  0.00  0.00    +0.001 A 
ATOM     11  C   LIG    1       31.630 -19.454   8.435  0.00  0.00    +0.000 A 
ATOM     12  C   LIG    1       31.160 -20.761   8.486  0.00  0.00    +0.001 A 
ATOM     13  C   LIG    1       29.819 -21.038   8.193  0.00  0.00    +0.008 A 
ENDBRANCH   5   8
BRANCH   1  15
ATOM     14  C   LIG    1       23.007 -22.734   6.730  0.00  0.00    +0.024 C 
ATOM     15  C   LIG    1       23.260 -21.222   6.700  0.00  0.00    +0.124 C 
BRANCH  15  16
ATOM     16  C   LIG    1       22.746 -20.638   5.381  0.00  0.00    +0.312 C 
ATOM     17  O   LIG    1       22.381 -19.480   5.248  0.00  0.00    -0.250 OA
BRANCH  16  18
ATOM     18  O   LIG    1       22.788 -21.479   4.321  0.00  0.00    -0.480 OA
ATOM     19  H   LIG    1       22.012 -22.063   4.229  0.00  0.00    +0.295 HD
ENDBRANCH  16  18
ENDBRANCH  15  16
ENDBRANCH   1  15
TORSDOF 4
ENDMDL
MODEL 4
REMARK VINA RESULT:      -8.8      1.998      2.701
REMARK  Name = *****
REMARK                            x       y       z     vdW  Elec       q    Type
REMARK                         _______ _______ _______ _____ _____    ______ ____
ROOT
ATOM      1  C   LIG    1       28.972 -20.041   7.593  0.00  0.00    -0.031 A 
ATOM      2  C   LIG    1       28.115 -19.801   6.512  0.00  0.00    +0.043 A 
ATOM      3  C   LIG    1       26.967 -20.579   6.318  0.00  0.00    +0.131 A 
ATOM      4  F   LIG    1       26.194 -20.264   5.266  0.00  0.00    -0.205 F 
ATOM      5  C   LIG    1       26.611 -21.626   7.186  0.00  0.00    +0.017 A 
ATOM      6  C   LIG    1       27.483 -21.846   8.271  0.00  0.00    +0.012 A 
ATOM      7  C   LIG    1       28.642 -21.079   8.471  0.00  0.00    +0.005 A 
ENDROOT
BRANCH   5   8
ATOM      8  C   LIG    1       25.396 -22.467   6.986  0.00  0.00    -0.015 A 
ATOM      9  C   LIG    1       25.479 -23.831   6.645  0.00  0.00    +0.008 A 
ATOM     10  C   LIG    1       24.335 -24.620   6.470  0.00  0.00    +0.001 A 
ATOM     11  C   LIG    1       23.071 -24.065   6.632  0.00  0.00    +0.000 A 
ATOM     12  C   LIG    1       22.953 -22.722   6.970  0.00  0.00    +0.001 A 
ATOM     13  C   LIG    1       24.100 -21.937   7.144  0.00  0.00    +0.008 A 
ENDBRANCH   5   8
BRANCH   1  15
ATOM     14  C   LIG    1       31.104 -19.162   6.563  0.00  0.00    +0.024 C 
ATOM     15  C   LIG    1       30.200 -19.165   7.802  0.00  0.00    +0.124 C 
BRANCH  15  16
ATOM     16  C   LIG    1       31.025 -19.511   9.044  0.00  0.00    +0.312 C 
ATOM     17  O   LIG    1       31.992 -20.256   9.032  0.00  0.00    -0.250 OA
BRANCH  16  18
ATOM     18  O   LIG    1       30.657 -18.870  10.179  0.00  0.00    -0.480 OA
ATOM     19  H   LIG    1       31.177 -19.105  10.970  0.00  0.00    +0.295 HD
ENDBRANCH  16  18
ENDBRANCH  15  16
ENDBRANCH   1  15
TORSDOF 4
ENDMDL
MODEL 5
REMARK VINA RESULT:      -8.3      3.534      6.815
REMARK  Name = *****
REMARK                            x       y       z     vdW  Elec       q    Type
REMARK                         _______ _______ _______ _____ _____    ______ ____
ROOT
ATOM      1  C   LIG    1       25.361 -20.819   6.326  0.00  0.00    -0.031 A 
ATOM      2  C   LIG    1       26.383 -20.359   5.487  0.00  0.00    +0.043 A 
ATOM      3  C   LIG    1       27.626 -19.981   6.008  0.00  0.00    +0.131 A 
ATOM      4  F   LIG    1       28.552 -19.570   5.126  0.00  0.00    -0.205 F 
ATOM      5  C   LIG    1       27.918 -20.045   7.382  0.00  0.00    +0.017 A 
ATOM      6  C   LIG    1       26.879 -20.518   8.208  0.00  0.00    +0.012 A 
ATOM      7  C   LIG    1       25.625 -20.890   7.698  0.00  0.00    +0.005 A 
ENDROOT
BRANCH   5   8
ATOM      8  C   LIG    1       29.235 -19.637   7.950  0.00  0.00    -0.015 A 
ATOM      9  C   LIG    1       30.262 -20.566   8.200  0.00  0.00    +0.008 A 
ATOM     10  C   LIG    1       31.501 -20.176   8.723  0.00  0.00    +0.001 A 
ATOM     11  C   LIG    1       31.749 -18.840   9.011  0.00  0.00    +0.000 A 
ATOM     12  C   LIG    1       30.758 -17.895   8.775  0.00  0.00    +0.001 A 
ATOM     13  C   LIG    1       29.520 -18.289   8.252  0.00  0.00    +0.008 A 
ENDBRANCH   5   8
BRANCH   1  15
ATOM     14  C   LIG    1       22.915 -20.246   6.062  0.00  0.00    +0.024 C 
ATOM     15  C   LIG    1       24.026 -21.252   5.736  0.00  0.00    +0.124 C 
BRANCH  15  16
ATOM     16  C   LIG    1       23.581 -22.662   6.134  0.00  0.00    +0.312 C 
ATOM     17  O   LIG    1       22.683 -22.892   6.929  0.00  0.00    -0.250 OA
BRANCH  16  18
ATOM     18  O   LIG    1       24.208 -23.671   5.483  0.00  0.00    -0.480 OA
ATOM     19  H   LIG    1       24.462 -24.427   6.046  0.00  0.00    +0.295 HD
ENDBRANCH  16  18
ENDBRANCH  15  16
ENDBRANCH   1  15
TORSDOF 4
ENDMDL
MODEL 6
REMARK VINA RESULT:      -8.2      3.628      6.685
REMARK  Name = *****
REMARK                            x       y       z     vdW  Elec       q    Type
REMARK                         _______ _______ _______ _____ _____    ______ ____
ROOT
ATOM      1  C   LIG    1       25.484 -21.660   6.677  0.00  0.00    -0.031 A 
ATOM      2  C   LIG    1       26.074 -20.748   5.794  0.00  0.00    +0.043 A 
ATOM      3  C   LIG    1       27.276 -20.106   6.119  0.00  0.00    +0.131 A 
ATOM      4  F   LIG    1       27.776 -19.262   5.202  0.00  0.00    -0.205 F 
ATOM      5  C   LIG    1       27.951 -20.340   7.329  0.00  0.00    +0.017 A 
ATOM      6  C   LIG    1       27.344 -21.267   8.200  0.00  0.00    +0.012 A 
ATOM      7  C   LIG    1       26.135 -21.910   7.889  0.00  0.00    +0.005 A 
ENDROOT
BRANCH   5   8
ATOM      8  C   LIG    1       29.225 -19.656   7.691  0.00  0.00    -0.015 A 
ATOM      9  C   LIG    1       30.408 -19.835   6.948  0.00  0.00    +0.008 A 
ATOM     10  C   LIG    1       31.599 -19.181   7.286  0.00  0.00    +0.001 A 
ATOM     11  C   LIG    1       31.641 -18.325   8.379  0.00  0.00    +0.000 A 
ATOM     12  C   LIG    1       30.492 -18.122   9.134  0.00  0.00    +0.001 A 
ATOM     13  C   LIG    1       29.302 -18.779   8.793  0.00  0.00    +0.008 A 
ENDBRANCH   5   8
BRANCH   1  15
ATOM     14  C   LIG    1       23.089 -22.126   7.326  0.00  0.00    +0.024 C 
ATOM     15  C   LIG    1       24.193 -22.369   6.291  0.00  0.00    +0.124 C 
BRANCH  15  16
ATOM     16  C   LIG    1       24.343 -23.871   6.037  0.00  0.00    +0.312 C 
ATOM     17  O   LIG    1       25.337 -24.381   5.542  0.00  0.00    -0.250 OA
BRANCH  16  18
ATOM     18  O   LIG    1       23.313 -24.637   6.469  0.00  0.00    -0.480 OA
ATOM     19  H   LIG    1       23.362 -25.576   6.208  0.00  0.00    +0.295 HD
ENDBRANCH  16  18
ENDBRANCH  15  16
ENDBRANCH   1  15
TORSDOF 4
ENDMDL
MODEL 7
REMARK VINA RESULT:      -8.1      3.428      6.673
REMARK  Name = *****
REMARK                            x       y       z     vdW  Elec       q    Type
REMARK                         _______ _______ _______ _____ _____    ______ ____
ROOT
ATOM      1  C   LIG    1       25.443 -20.494   5.316  0.00  0.00    -0.031 A 
ATOM      2  C   LIG    1       25.491 -20.895   6.656  0.00  0.00    +0.043 A 
ATOM      3  C   LIG    1       26.654 -20.725   7.417  0.00  0.00    +0.131 A 
ATOM      4  F   LIG    1       26.601 -21.121   8.698  0.00  0.00    -0.205 F 
ATOM      5  C   LIG    1       27.822 -20.147   6.889  0.00  0.00    +0.017 A 
ATOM      6  C   LIG    1       27.750 -19.744   5.540  0.00  0.00    +0.012 A 
ATOM      7  C   LIG    1       26.593 -19.917   4.765  0.00  0.00    +0.005 A 
ENDROOT
BRANCH   5   8
ATOM      8  C   LIG    1       29.070 -19.970   7.685  0.00  0.00    -0.015 A 
ATOM      9  C   LIG    1       29.878 -21.059   8.061  0.00  0.00    +0.008 A 
ATOM     10  C   LIG    1       31.056 -20.886   8.799  0.00  0.00    +0.001 A 
ATOM     11  C   LIG    1       31.460 -19.613   9.182  0.00  0.00    +0.000 A 
ATOM     12  C   LIG    1       30.687 -18.514   8.825  0.00  0.00    +0.001 A 
ATOM     13  C   LIG    1       29.510 -18.692   8.088  0.00  0.00    +0.008 A 
ENDBRANCH   5   8
BRANCH   1  15
ATOM     14  C   LIG    1       24.103 -19.685   3.334  0.00  0.00    +0.024 C 
ATOM     15  C   LIG    1       24.159 -20.661   4.514  0.00  0.00    +0.124 C 
BRANCH  15  16
ATOM     16  C   LIG    1       22.875 -20.549   5.341  0.00  0.00    +0.312 C 
ATOM     17  O   LIG    1       22.467 -19.504   5.826  0.00  0.00    -0.250 OA
BRANCH  16  18
ATOM     18  O   LIG    1       22.154 -21.690   5.446  0.00  0.00    -0.480 OA
ATOM     19  H   LIG    1       21.533 -21.853   4.711  0.00  0.00    +0.295 HD
ENDBRANCH  16  18
ENDBRANCH  15  16
ENDBRANCH   1  15
TORSDOF 4
ENDMDL
MODEL 8
REMARK VINA RESULT:      -7.9      5.198      6.173
REMARK  Name = *****
REMARK                            x       y       z     vdW  Elec       q    Type
REMARK                         _______ _______ _______ _____ _____    ______ ____
ROOT
ATOM      1  C   LIG    1       25.789 -25.370   5.943  0.00  0.00    -0.031 A 
ATOM      2  C   LIG    1       25.892 -24.326   6.869  0.00  0.00    +0.043 A 
ATOM      3  C   LIG    1       25.354 -23.063   6.593  0.00  0.00    +0.131 A 
ATOM      4  F   LIG    1       25.483 -22.128   7.548  0.00  0.00    -0.205 F 
ATOM      5  C   LIG    1       24.686 -22.776   5.390  0.00  0.00    +0.017 A 
ATOM      6  C   LIG    1       24.587 -23.843   4.474  0.00  0.00    +0.012 A 
ATOM      7  C   LIG    1       25.131 -25.111   4.737  0.00  0.00    +0.005 A 
ENDROOT
BRANCH   5   8
ATOM      8  C   LIG    1       24.117 -21.434   5.078  0.00  0.00    -0.015 A 
ATOM      9  C   LIG    1       24.651 -20.610   4.069  0.00  0.00    +0.008 A 
ATOM     10  C   LIG    1       24.106 -19.355   3.773  0.00  0.00    +0.001 A 
ATOM     11  C   LIG    1       23.005 -18.886   4.479  0.00  0.00    +0.000 A 
ATOM     12  C   LIG    1       22.450 -19.674   5.481  0.00  0.00    +0.001 A 
ATOM     13  C   LIG    1       23.000 -20.929   5.774  0.00  0.00    +0.008 A 
ENDBRANCH   5   8
BRANCH   1  15
ATOM     14  C   LIG    1       26.952 -27.421   5.036  0.00  0.00    +0.024 C 
ATOM     15  C   LIG    1       26.356 -26.744   6.276  0.00  0.00    +0.124 C 
BRANCH  15  16
ATOM     16  C   LIG    1       25.367 -27.692   6.959  0.00  0.00    +0.312 C 
ATOM     17  O   LIG    1       24.217 -27.861   6.582  0.00  0.00    -0.250 OA
BRANCH  16  18
ATOM     18  O   LIG    1       25.872 -28.410   7.990  0.00  0.00    -0.480 OA
ATOM     19  H   LIG    1       25.240 -28.592   8.711  0.00  0.00    +0.295 HD
ENDBRANCH  16  18
ENDBRANCH  15  16
ENDBRANCH   1  15
TORSDOF 4
ENDMDL
MODEL 9
REMARK VINA RESULT:      -7.8      1.831      2.554
REMARK  Name = *****
REMARK                            x       y       z     vdW  Elec       q    Type
REMARK                         _______ _______ _______ _____ _____    ______ ____
ROOT
ATOM      1  C   LIG    1       28.456 -19.890   7.649  0.00  0.00    -0.031 A 
ATOM      2  C   LIG    1       28.091 -19.910   6.297  0.00  0.00    +0.043 A 
ATOM      3  C   LIG    1       26.808 -20.310   5.904  0.00  0.00    +0.131 A 
ATOM      4  F   LIG    1       26.542 -20.278   4.588  0.00  0.00    -0.205 F 
ATOM      5  C   LIG    1       25.825 -20.703   6.829  0.00  0.00    +0.017 A 
ATOM      6  C   LIG    1       26.210 -20.669   8.184  0.00  0.00    +0.012 A 
ATOM      7  C   LIG    1       27.496 -20.279   8.590  0.00  0.00    +0.005 A 
ENDROOT
BRANCH   5   8
ATOM      8  C   LIG    1       24.459 -21.140   6.422  0.00  0.00    -0.015 A 
ATOM      9  C   LIG    1       23.656 -20.374   5.555  0.00  0.00    +0.008 A 
ATOM     10  C   LIG    1       22.377 -20.795   5.168  0.00  0.00    +0.001 A 
ATOM     11  C   LIG    1       21.864 -21.998   5.637  0.00  0.00    +0.000 A 
ATOM     12  C   LIG    1       22.631 -22.780   6.492  0.00  0.00    +0.001 A 
ATOM     13  C   LIG    1       23.909 -22.356   6.878  0.00  0.00    +0.008 A 
ENDBRANCH   5   8
BRANCH   1  15
ATOM     14  C   LIG    1       29.780 -18.229   9.014  0.00  0.00    +0.024 C 
ATOM     15  C   LIG    1       29.847 -19.425   8.057  0.00  0.00    +0.124 C 
BRANCH  15  16
ATOM     16  C   LIG    1       30.778 -19.100   6.886  0.00  0.00    +0.312 C 
ATOM     17  O   LIG    1       31.885 -19.596   6.740  0.00  0.00    -0.250 OA
BRANCH  16  18
ATOM     18  O   LIG    1       30.264 -18.264   5.953  0.00  0.00    -0.480 OA
ATOM     19  H   LIG    1       29.485 -18.610   5.477  0.00  0.00    +0.295 HD
ENDBRANCH  16  18
ENDBRANCH  15  16
ENDBRANCH   1  15
TORSDOF 4
ENDMDL
