MODEL 1
REMARK VINA RESULT:      -7.2      0.000      0.000
REMARK  Name = *****
REMARK                            x       y       z     vdW  Elec       q    Type
REMARK                         _______ _______ _______ _____ _____    ______ ____
ROOT
ATOM      1  C   LIG    1       24.100 -22.503   6.338  0.00  0.00    +0.164 A 
ATOM      2  C   LIG    1       23.687 -21.634   5.320  0.00  0.00    +0.162 A 
ATOM      3  C   LIG    1       24.558 -20.635   4.882  0.00  0.00    +0.062 A 
ATOM      4  C   LIG    1       25.862 -20.538   5.398  0.00  0.00    +0.044 A 
ATOM      5  C   LIG    1       26.273 -21.399   6.405  0.00  0.00    +0.082 A 
ATOM      6  N   LIG    1       27.494 -21.335   6.926  0.00  0.00    -0.214 NA
ATOM      7  C   LIG    1       28.339 -20.392   6.487  0.00  0.00    +0.220 A 
ATOM      8  N   LIG    1       28.031 -19.523   5.518  0.00  0.00    -0.199 NA
ATOM      9  C   LIG    1       26.819 -19.623   4.968  0.00  0.00    +0.129 A 
ATOM     10  C   LIG    1       25.387 -22.356   6.875  0.00  0.00    +0.078 A 
ENDROOT
BRANCH   7  11
ATOM     11  N   LIG    1       29.609 -20.324   7.056  0.00  0.00    -0.297 N 
ATOM     12  C   LIG    1       30.490 -19.326   6.403  0.00  0.00    +0.127 C 
ATOM     13  C   LIG    1       30.182 -17.891   6.909  0.00  0.00    +0.127 C 
ATOM     14  N   LIG    1       30.242 -17.868   8.381  0.00  0.00    -0.296 N 
ATOM     15  C   LIG    1       31.441 -17.502   8.990  0.00  0.00    +0.244 C 
ATOM     16  O   LIG    1       32.255 -16.767   8.392  0.00  0.00    -0.273 OA
ATOM     17  C   LIG    1       29.293 -18.796   8.998  0.00  0.00    +0.127 C 
ATOM     18  C   LIG    1       29.590 -20.238   8.531  0.00  0.00    +0.127 C 
BRANCH  15  19
ATOM     19  C   LIG    1       31.728 -18.017  10.419  0.00  0.00    +0.204 C 
ATOM     20  O   LIG    1       33.019 -17.584  10.884  0.00  0.00    -0.367 OA
ATOM     21  C   LIG    1       32.855 -16.531  11.843  0.00  0.00    +0.161 C 
ATOM     22  C   LIG    1       31.379 -16.224  11.922  0.00  0.00    +0.031 C 
ATOM     23  C   LIG    1       30.751 -17.518  11.465  0.00  0.00    +0.043 C 
ENDBRANCH  15  19
ENDBRANCH   7  11
BRANCH   9  24
ATOM     24  N   LIG    1       26.566 -18.737   3.910  0.00  0.00    -0.343 N 
ATOM     25  H   LIG    1       26.758 -17.782   4.196  0.00  0.00    +0.144 HD
ATOM     26  H   LIG    1       25.583 -18.851   3.672  0.00  0.00    +0.144 HD
ENDBRANCH   9  24
BRANCH   1  28
ATOM     27  C   LIG    1       23.769 -24.863   6.516  0.00  0.00    +0.277 C 
ATOM     28  O   LIG    1       23.404 -23.545   6.896  0.00  0.00    -0.491 OA
ENDBRANCH   1  28
BRANCH   2  29
ATOM     29  O   LIG    1       22.428 -21.742   4.802  0.00  0.00    -0.491 OA
ATOM     30  C   LIG    1       21.717 -20.520   4.625  0.00  0.00    +0.277 C 
ENDBRANCH   2  29
TORSDOF 5
ENDMDL
MODEL 2
REMARK VINA RESULT:      -7.0      3.597      9.269
REMARK  Name = *****
REMARK                            x       y       z     vdW  Elec       q    Type
REMARK                         _______ _______ _______ _____ _____    ______ ____
ROOT
ATOM      1  C   LIG    1       29.210 -20.399   7.416  0.00  0.00    +0.164 A 
ATOM      2  C   LIG    1       28.683 -19.509   6.470  0.00  0.00    +0.162 A 
ATOM      3  C   LIG    1       27.509 -19.846   5.796  0.00  0.00    +0.062 A 
ATOM      4  C   LIG    1       26.813 -21.028   6.106  0.00  0.00    +0.044 A 
ATOM      5  C   LIG    1       27.332 -21.910   7.044  0.00  0.00    +0.082 A 
ATOM      6  N   LIG    1       26.711 -23.041   7.359  0.00  0.00    -0.214 NA
ATOM      7  C   LIG    1       25.568 -23.353   6.730  0.00  0.00    +0.220 A 
ATOM      8  N   LIG    1       24.994 -22.562   5.817  0.00  0.00    -0.199 NA
ATOM      9  C   LIG    1       25.599 -21.406   5.539  0.00  0.00    +0.129 A 
ATOM     10  C   LIG    1       28.527 -21.596   7.672  0.00  0.00    +0.078 A 
ENDROOT
BRANCH   7  11
ATOM     11  N   LIG    1       24.939 -24.551   7.057  0.00  0.00    -0.297 N 
ATOM     12  C   LIG    1       23.909 -24.959   6.070  0.00  0.00    +0.127 C 
ATOM     13  C   LIG    1       24.557 -25.633   4.830  0.00  0.00    +0.127 C 
ATOM     14  N   LIG    1       25.430 -26.733   5.272  0.00  0.00    -0.296 N 
ATOM     15  C   LIG    1       24.900 -28.022   5.320  0.00  0.00    +0.244 C 
ATOM     16  O   LIG    1       23.940 -28.338   4.585  0.00  0.00    -0.273 OA
ATOM     17  C   LIG    1       26.494 -26.283   6.170  0.00  0.00    +0.127 C 
ATOM     18  C   LIG    1       25.879 -25.630   7.427  0.00  0.00    +0.127 C 
BRANCH  15  19
ATOM     19  C   LIG    1       25.535 -29.044   6.290  0.00  0.00    +0.204 C 
ATOM     20  O   LIG    1       24.876 -29.033   7.569  0.00  0.00    -0.367 OA
ATOM     21  C   LIG    1       24.045 -30.196   7.692  0.00  0.00    +0.161 C 
ATOM     22  C   LIG    1       24.119 -30.937   6.378  0.00  0.00    +0.031 C 
ATOM     23  C   LIG    1       25.445 -30.482   5.819  0.00  0.00    +0.043 C 
ENDBRANCH  15  19
ENDBRANCH   7  11
BRANCH   9  24
ATOM     24  N   LIG    1       24.924 -20.580   4.628  0.00  0.00    -0.343 N 
ATOM     25  H   LIG    1       25.469 -19.745   4.439  0.00  0.00    +0.144 HD
ATOM     26  H   LIG    1       24.037 -20.339   5.066  0.00  0.00    +0.144 HD
ENDBRANCH   9  24
BRANCH   1  28
ATOM     27  C   LIG    1       30.888 -21.415   8.779  0.00  0.00    +0.277 C 
ATOM     28  O   LIG    1       30.336 -20.250   8.183  0.00  0.00    -0.491 OA
ENDBRANCH   1  28
BRANCH   2  29
ATOM     29  O   LIG    1       29.347 -18.349   6.184  0.00  0.00    -0.491 OA
ATOM     30  C   LIG    1       29.011 -17.724   4.949  0.00  0.00    +0.277 C 
ENDBRANCH   2  29
TORSDOF 5
ENDMDL
MODEL 3
REMARK VINA RESULT:      -6.7      1.297      2.678
REMARK  Name = *****
REMARK                            x       y       z     vdW  Elec       q    Type
REMARK                         _______ _______ _______ _____ _____    ______ ____
ROOT
ATOM      1  C   LIG    1       24.869 -19.654   4.244  0.00  0.00    +0.164 A 
ATOM      2  C   LIG    1       24.086 -20.724   4.698  0.00  0.00    +0.162 A 
ATOM      3  C   LIG    1       24.627 -21.621   5.621  0.00  0.00    +0.062 A 
ATOM      4  C   LIG    1       25.914 -21.422   6.150  0.00  0.00    +0.044 A 
ATOM      5  C   LIG    1       26.690 -20.363   5.703  0.00  0.00    +0.082 A 
ATOM      6  N   LIG    1       27.914 -20.145   6.171  0.00  0.00    -0.214 NA
ATOM      7  C   LIG    1       28.423 -20.992   7.077  0.00  0.00    +0.220 A 
ATOM      8  N   LIG    1       27.746 -22.036   7.568  0.00  0.00    -0.199 NA
ATOM      9  C   LIG    1       26.501 -22.222   7.127  0.00  0.00    +0.129 A 
ATOM     10  C   LIG    1       26.169 -19.505   4.746  0.00  0.00    +0.078 A 
ENDROOT
BRANCH   7  11
ATOM     11  N   LIG    1       29.715 -20.762   7.544  0.00  0.00    -0.297 N 
ATOM     12  C   LIG    1       30.467 -19.782   6.724  0.00  0.00    +0.127 C 
ATOM     13  C   LIG    1       30.072 -18.325   7.089  0.00  0.00    +0.127 C 
ATOM     14  N   LIG    1       30.219 -18.127   8.541  0.00  0.00    -0.296 N 
ATOM     15  C   LIG    1       31.418 -17.602   9.020  0.00  0.00    +0.244 C 
ATOM     16  O   LIG    1       32.130 -16.881   8.288  0.00  0.00    -0.273 OA
ATOM     17  C   LIG    1       29.392 -19.048   9.322  0.00  0.00    +0.127 C 
ATOM     18  C   LIG    1       29.780 -20.506   8.999  0.00  0.00    +0.127 C 
BRANCH  15  19
ATOM     19  C   LIG    1       31.835 -17.924  10.472  0.00  0.00    +0.204 C 
ATOM     20  O   LIG    1       33.024 -17.207  10.850  0.00  0.00    -0.367 OA
ATOM     21  C   LIG    1       32.676 -16.127  11.727  0.00  0.00    +0.161 C 
ATOM     22  C   LIG    1       31.170 -16.111  11.839  0.00  0.00    +0.031 C 
ATOM     23  C   LIG    1       30.803 -17.538  11.513  0.00  0.00    +0.043 C 
ENDBRANCH  15  19
ENDBRANCH   7  11
BRANCH   9  24
ATOM     24  N   LIG    1       25.807 -23.287   7.721  0.00  0.00    -0.343 N 
ATOM     25  H   LIG    1       26.064 -24.164   7.280  0.00  0.00    +0.144 HD
ATOM     26  H   LIG    1       24.817 -23.092   7.585  0.00  0.00    +0.144 HD
ENDBRANCH   9  24
BRANCH   1  28
ATOM     27  C   LIG    1       25.464 -17.633   3.117  0.00  0.00    +0.277 C 
ATOM     28  O   LIG    1       24.522 -18.669   3.354  0.00  0.00    -0.491 OA
ENDBRANCH   1  28
BRANCH   2  29
ATOM     29  O   LIG    1       22.827 -20.905   4.200  0.00  0.00    -0.491 OA
ATOM     30  C   LIG    1       21.765 -20.341   4.965  0.00  0.00    +0.277 C 
ENDBRANCH   2  29
TORSDOF 5
ENDMDL
MODEL 4
REMARK VINA RESULT:      -6.7      5.801      9.517
REMARK  Name = *****
REMARK                            x       y       z     vdW  Elec       q    Type
REMARK                         _______ _______ _______ _____ _____    ______ ____
ROOT
ATOM      1  C   LIG    1       24.182 -30.940   9.438  0.00  0.00    +0.164 A 
ATOM      2  C   LIG    1       24.181 -32.078   8.620  0.00  0.00    +0.162 A 
ATOM      3  C   LIG    1       24.456 -31.940   7.259  0.00  0.00    +0.062 A 
ATOM      4  C   LIG    1       24.802 -30.689   6.716  0.00  0.00    +0.044 A 
ATOM      5  C   LIG    1       24.805 -29.562   7.525  0.00  0.00    +0.082 A 
ATOM      6  N   LIG    1       25.118 -28.361   7.050  0.00  0.00    -0.214 NA
ATOM      7  C   LIG    1       25.407 -28.233   5.747  0.00  0.00    +0.220 A 
ATOM      8  N   LIG    1       25.433 -29.264   4.896  0.00  0.00    -0.199 NA
ATOM      9  C   LIG    1       25.162 -30.473   5.389  0.00  0.00    +0.129 A 
ATOM     10  C   LIG    1       24.479 -29.695   8.866  0.00  0.00    +0.078 A 
ENDROOT
BRANCH   7  11
ATOM     11  N   LIG    1       25.713 -26.964   5.260  0.00  0.00    -0.297 N 
ATOM     12  C   LIG    1       24.519 -26.202   4.822  0.00  0.00    +0.127 C 
ATOM     13  C   LIG    1       23.786 -25.564   6.033  0.00  0.00    +0.127 C 
ATOM     14  N   LIG    1       24.744 -24.772   6.822  0.00  0.00    -0.296 N 
ATOM     15  C   LIG    1       24.855 -23.408   6.555  0.00  0.00    +0.244 C 
ATOM     16  O   LIG    1       23.895 -22.781   6.058  0.00  0.00    -0.273 OA
ATOM     17  C   LIG    1       25.863 -25.573   7.320  0.00  0.00    +0.127 C 
ATOM     18  C   LIG    1       26.627 -26.201   6.135  0.00  0.00    +0.127 C 
BRANCH  15  19
ATOM     19  C   LIG    1       26.183 -22.696   6.898  0.00  0.00    +0.204 C 
ATOM     20  O   LIG    1       26.367 -21.513   6.099  0.00  0.00    -0.367 OA
ATOM     21  C   LIG    1       26.124 -20.349   6.901  0.00  0.00    +0.161 C 
ATOM     22  C   LIG    1       25.676 -20.830   8.261  0.00  0.00    +0.031 C 
ATOM     23  C   LIG    1       26.274 -22.213   8.332  0.00  0.00    +0.043 C 
ENDBRANCH  15  19
ENDBRANCH   7  11
BRANCH   9  24
ATOM     24  N   LIG    1       25.270 -31.532   4.475  0.00  0.00    -0.343 N 
ATOM     25  H   LIG    1       25.295 -32.420   4.965  0.00  0.00    +0.144 HD
ATOM     26  H   LIG    1       26.137 -31.379   3.963  0.00  0.00    +0.144 HD
ENDBRANCH   9  24
BRANCH   1  28
ATOM     27  C   LIG    1       22.849 -30.082  11.225  0.00  0.00    +0.277 C 
ATOM     28  O   LIG    1       23.948 -30.867  10.787  0.00  0.00    -0.491 OA
ENDBRANCH   1  28
BRANCH   2  29
ATOM     29  O   LIG    1       23.867 -33.297   9.151  0.00  0.00    -0.491 OA
ATOM     30  C   LIG    1       22.482 -33.631   9.175  0.00  0.00    +0.277 C 
ENDBRANCH   2  29
TORSDOF 5
ENDMDL
MODEL 5
REMARK VINA RESULT:      -6.5      5.806      9.540
REMARK  Name = *****
REMARK                            x       y       z     vdW  Elec       q    Type
REMARK                         _______ _______ _______ _____ _____    ______ ____
ROOT
ATOM      1  C   LIG    1       25.996 -30.515  10.190  0.00  0.00    +0.164 A 
ATOM      2  C   LIG    1       25.269 -31.597   9.677  0.00  0.00    +0.162 A 
ATOM      3  C   LIG    1       24.675 -31.485   8.419  0.00  0.00    +0.062 A 
ATOM      4  C   LIG    1       24.858 -30.332   7.635  0.00  0.00    +0.044 A 
ATOM      5  C   LIG    1       25.579 -29.260   8.141  0.00  0.00    +0.082 A 
ATOM      6  N   LIG    1       25.768 -28.149   7.437  0.00  0.00    -0.214 NA
ATOM      7  C   LIG    1       25.219 -28.051   6.218  0.00  0.00    +0.220 A 
ATOM      8  N   LIG    1       24.513 -29.035   5.649  0.00  0.00    -0.199 NA
ATOM      9  C   LIG    1       24.366 -30.164   6.344  0.00  0.00    +0.129 A 
ATOM     10  C   LIG    1       26.122 -29.355   9.413  0.00  0.00    +0.078 A 
ENDROOT
BRANCH   7  11
ATOM     11  N   LIG    1       25.409 -26.873   5.499  0.00  0.00    -0.297 N 
ATOM     12  C   LIG    1       24.140 -26.173   5.180  0.00  0.00    +0.127 C 
ATOM     13  C   LIG    1       23.630 -25.354   6.396  0.00  0.00    +0.127 C 
ATOM     14  N   LIG    1       24.702 -24.462   6.870  0.00  0.00    -0.296 N 
ATOM     15  C   LIG    1       24.739 -23.155   6.387  0.00  0.00    +0.244 C 
ATOM     16  O   LIG    1       23.693 -22.599   5.987  0.00  0.00    -0.273 OA
ATOM     17  C   LIG    1       25.908 -25.191   7.267  0.00  0.00    +0.127 C 
ATOM     18  C   LIG    1       26.453 -25.996   6.069  0.00  0.00    +0.127 C 
BRANCH  15  19
ATOM     19  C   LIG    1       26.094 -22.413   6.371  0.00  0.00    +0.204 C 
ATOM     20  O   LIG    1       25.986 -21.133   5.721  0.00  0.00    -0.367 OA
ATOM     21  C   LIG    1       26.003 -20.091   6.707  0.00  0.00    +0.161 C 
ATOM     22  C   LIG    1       26.037 -20.758   8.061  0.00  0.00    +0.031 C 
ATOM     23  C   LIG    1       26.647 -22.103   7.748  0.00  0.00    +0.043 C 
ENDBRANCH  15  19
ENDBRANCH   7  11
BRANCH   9  24
ATOM     24  N   LIG    1       23.678 -31.191   5.680  0.00  0.00    -0.343 N 
ATOM     25  H   LIG    1       23.775 -31.088   4.675  0.00  0.00    +0.144 HD
ATOM     26  H   LIG    1       22.702 -31.106   5.959  0.00  0.00    +0.144 HD
ENDBRANCH   9  24
BRANCH   1  28
ATOM     27  C   LIG    1       27.745 -29.525  11.481  0.00  0.00    +0.277 C 
ATOM     28  O   LIG    1       26.655 -30.430  11.389  0.00  0.00    -0.491 OA
ENDBRANCH   1  28
BRANCH   2  29
ATOM     29  O   LIG    1       25.109 -32.727  10.429  0.00  0.00    -0.491 OA
ATOM     30  C   LIG    1       23.857 -32.865  11.093  0.00  0.00    +0.277 C 
ENDBRANCH   2  29
TORSDOF 5
ENDMDL
MODEL 6
REMARK VINA RESULT:      -6.0      9.668     13.375
REMARK  Name = *****
REMARK                            x       y       z     vdW  Elec       q    Type
REMARK                         _______ _______ _______ _____ _____    ______ ____
ROOT
ATOM      1  C   LIG    1       24.946 -26.569  13.894  0.00  0.00    +0.164 A 
ATOM      2  C   LIG    1       26.332 -26.462  14.068  0.00  0.00    +0.162 A 
ATOM      3  C   LIG    1       27.170 -27.398  13.459  0.00  0.00    +0.062 A 
ATOM      4  C   LIG    1       26.645 -28.397  12.619  0.00  0.00    +0.044 A 
ATOM      5  C   LIG    1       25.273 -28.502  12.444  0.00  0.00    +0.082 A 
ATOM      6  N   LIG    1       24.736 -29.436  11.666  0.00  0.00    -0.214 NA
ATOM      7  C   LIG    1       25.543 -30.320  11.061  0.00  0.00    +0.220 A 
ATOM      8  N   LIG    1       26.876 -30.291  11.169  0.00  0.00    -0.199 NA
ATOM      9  C   LIG    1       27.410 -29.322  11.915  0.00  0.00    +0.129 A 
ATOM     10  C   LIG    1       24.441 -27.603  13.094  0.00  0.00    +0.078 A 
ENDROOT
BRANCH   7  11
ATOM     11  N   LIG    1       24.965 -31.305  10.264  0.00  0.00    -0.297 N 
ATOM     12  C   LIG    1       23.736 -30.849   9.570  0.00  0.00    +0.127 C 
ATOM     13  C   LIG    1       24.083 -30.022   8.302  0.00  0.00    +0.127 C 
ATOM     14  N   LIG    1       24.999 -30.797   7.448  0.00  0.00    -0.296 N 
ATOM     15  C   LIG    1       24.455 -31.573   6.426  0.00  0.00    +0.244 C 
ATOM     16  O   LIG    1       23.351 -31.273   5.923  0.00  0.00    -0.273 OA
ATOM     17  C   LIG    1       26.243 -31.151   8.132  0.00  0.00    +0.127 C 
ATOM     18  C   LIG    1       25.932 -31.996   9.385  0.00  0.00    +0.127 C 
BRANCH  15  19
ATOM     19  C   LIG    1       25.254 -32.799   5.927  0.00  0.00    +0.204 C 
ATOM     20  O   LIG    1       24.400 -33.748   5.264  0.00  0.00    -0.367 OA
ATOM     21  C   LIG    1       24.608 -33.673   3.846  0.00  0.00    +0.161 C 
ATOM     22  C   LIG    1       25.587 -32.550   3.598  0.00  0.00    +0.031 C 
ATOM     23  C   LIG    1       26.328 -32.465   4.910  0.00  0.00    +0.043 C 
ENDBRANCH  15  19
ENDBRANCH   7  11
BRANCH   9  24
ATOM     24  N   LIG    1       28.812 -29.291  11.942  0.00  0.00    -0.343 N 
ATOM     25  H   LIG    1       29.138 -28.850  12.796  0.00  0.00    +0.144 HD
ATOM     26  H   LIG    1       29.100 -28.753  11.127  0.00  0.00    +0.144 HD
ENDBRANCH   9  24
BRANCH   1  28
ATOM     27  C   LIG    1       22.820 -26.370  14.965  0.00  0.00    +0.277 C 
ATOM     28  O   LIG    1       23.965 -25.753  14.396  0.00  0.00    -0.491 OA
ENDBRANCH   1  28
BRANCH   2  29
ATOM     29  O   LIG    1       26.844 -25.479  14.866  0.00  0.00    -0.491 OA
ATOM     30  C   LIG    1       27.911 -24.715  14.311  0.00  0.00    +0.277 C 
ENDBRANCH   2  29
TORSDOF 5
ENDMDL
MODEL 7
REMARK VINA RESULT:      -5.8      2.562      4.105
REMARK  Name = *****
REMARK                            x       y       z     vdW  Elec       q    Type
REMARK                         _______ _______ _______ _____ _____    ______ ____
ROOT
ATOM      1  C   LIG    1       25.607 -26.657   6.392  0.00  0.00    +0.164 A 
ATOM      2  C   LIG    1       24.799 -26.486   5.260  0.00  0.00    +0.162 A 
ATOM      3  C   LIG    1       24.491 -25.194   4.831  0.00  0.00    +0.062 A 
ATOM      4  C   LIG    1       25.039 -24.070   5.476  0.00  0.00    +0.044 A 
ATOM      5  C   LIG    1       25.841 -24.238   6.595  0.00  0.00    +0.082 A 
ATOM      6  N   LIG    1       26.371 -23.204   7.238  0.00  0.00    -0.214 NA
ATOM      7  C   LIG    1       26.096 -21.963   6.811  0.00  0.00    +0.220 A 
ATOM      8  N   LIG    1       25.337 -21.707   5.739  0.00  0.00    -0.199 NA
ATOM      9  C   LIG    1       24.846 -22.752   5.072  0.00  0.00    +0.129 A 
ATOM     10  C   LIG    1       26.100 -25.523   7.050  0.00  0.00    +0.078 A 
ENDROOT
BRANCH   7  11
ATOM     11  N   LIG    1       26.642 -20.887   7.506  0.00  0.00    -0.297 N 
ATOM     12  C   LIG    1       27.263 -21.280   8.795  0.00  0.00    +0.127 C 
ATOM     13  C   LIG    1       28.684 -21.867   8.577  0.00  0.00    +0.127 C 
ATOM     14  N   LIG    1       29.490 -20.917   7.791  0.00  0.00    -0.296 N 
ATOM     15  C   LIG    1       30.297 -20.009   8.473  0.00  0.00    +0.244 C 
ATOM     16  O   LIG    1       30.717 -20.273   9.620  0.00  0.00    -0.273 OA
ATOM     17  C   LIG    1       28.899 -20.623   6.485  0.00  0.00    +0.127 C 
ATOM     18  C   LIG    1       27.492 -20.014   6.670  0.00  0.00    +0.127 C 
BRANCH  15  19
ATOM     19  C   LIG    1       30.665 -18.681   7.774  0.00  0.00    +0.204 C 
ATOM     20  O   LIG    1       29.829 -17.600   8.226  0.00  0.00    -0.367 OA
ATOM     21  C   LIG    1       30.576 -16.753   9.111  0.00  0.00    +0.161 C 
ATOM     22  C   LIG    1       31.934 -17.387   9.294  0.00  0.00    +0.031 C 
ATOM     23  C   LIG    1       32.082 -18.213   8.041  0.00  0.00    +0.043 C 
ENDBRANCH  15  19
ENDBRANCH   7  11
BRANCH   9  24
ATOM     24  N   LIG    1       24.115 -22.437   3.917  0.00  0.00    -0.343 N 
ATOM     25  H   LIG    1       24.447 -22.984   3.129  0.00  0.00    +0.144 HD
ATOM     26  H   LIG    1       24.261 -21.443   3.751  0.00  0.00    +0.144 HD
ENDBRANCH   9  24
BRANCH   1  28
ATOM     27  C   LIG    1       26.249 -27.843   8.364  0.00  0.00    +0.277 C 
ATOM     28  O   LIG    1       26.027 -27.832   6.962  0.00  0.00    -0.491 OA
ENDBRANCH   1  28
BRANCH   2  29
ATOM     29  O   LIG    1       24.284 -27.578   4.620  0.00  0.00    -0.491 OA
ATOM     30  C   LIG    1       23.958 -28.691   5.446  0.00  0.00    +0.277 C 
ENDBRANCH   2  29
TORSDOF 5
ENDMDL
MODEL 8
REMARK VINA RESULT:      -5.8      5.853      9.645
REMARK  Name = *****
REMARK                            x       y       z     vdW  Elec       q    Type
REMARK                         _______ _______ _______ _____ _____    ______ ____
ROOT
ATOM      1  C   LIG    1       23.587 -32.412   6.798  0.00  0.00    +0.164 A 
ATOM      2  C   LIG    1       24.053 -32.496   8.117  0.00  0.00    +0.162 A 
ATOM      3  C   LIG    1       24.761 -31.422   8.659  0.00  0.00    +0.062 A 
ATOM      4  C   LIG    1       24.947 -30.237   7.926  0.00  0.00    +0.044 A 
ATOM      5  C   LIG    1       24.485 -30.152   6.621  0.00  0.00    +0.082 A 
ATOM      6  N   LIG    1       24.648 -29.054   5.891  0.00  0.00    -0.214 NA
ATOM      7  C   LIG    1       25.306 -28.012   6.421  0.00  0.00    +0.220 A 
ATOM      8  N   LIG    1       25.781 -28.004   7.672  0.00  0.00    -0.199 NA
ATOM      9  C   LIG    1       25.574 -29.093   8.414  0.00  0.00    +0.129 A 
ATOM     10  C   LIG    1       23.829 -31.241   6.067  0.00  0.00    +0.078 A 
ENDROOT
BRANCH   7  11
ATOM     11  N   LIG    1       25.487 -26.876   5.637  0.00  0.00    -0.297 N 
ATOM     12  C   LIG    1       24.211 -26.228   5.245  0.00  0.00    +0.127 C 
ATOM     13  C   LIG    1       23.651 -25.350   6.396  0.00  0.00    +0.127 C 
ATOM     14  N   LIG    1       24.689 -24.404   6.840  0.00  0.00    -0.296 N 
ATOM     15  C   LIG    1       24.707 -23.128   6.280  0.00  0.00    +0.244 C 
ATOM     16  O   LIG    1       23.659 -22.624   5.821  0.00  0.00    -0.273 OA
ATOM     17  C   LIG    1       25.901 -25.077   7.311  0.00  0.00    +0.127 C 
ATOM     18  C   LIG    1       26.496 -25.940   6.177  0.00  0.00    +0.127 C 
BRANCH  15  19
ATOM     19  C   LIG    1       26.045 -22.355   6.251  0.00  0.00    +0.204 C 
ATOM     20  O   LIG    1       25.882 -21.043   5.683  0.00  0.00    -0.367 OA
ATOM     21  C   LIG    1       25.920 -20.060   6.727  0.00  0.00    +0.161 C 
ATOM     22  C   LIG    1       26.026 -20.804   8.037  0.00  0.00    +0.031 C 
ATOM     23  C   LIG    1       26.650 -22.113   7.620  0.00  0.00    +0.043 C 
ENDBRANCH  15  19
ENDBRANCH   7  11
BRANCH   9  24
ATOM     24  N   LIG    1       26.029 -29.012   9.738  0.00  0.00    -0.343 N 
ATOM     25  H   LIG    1       27.010 -29.267   9.790  0.00  0.00    +0.144 HD
ATOM     26  H   LIG    1       25.459 -29.663  10.275  0.00  0.00    +0.144 HD
ENDBRANCH   9  24
BRANCH   1  28
ATOM     27  C   LIG    1       23.369 -33.735   4.821  0.00  0.00    +0.277 C 
ATOM     28  O   LIG    1       22.872 -33.345   6.092  0.00  0.00    -0.491 OA
ENDBRANCH   1  28
BRANCH   2  29
ATOM     29  O   LIG    1       23.853 -33.639   8.838  0.00  0.00    -0.491 OA
ATOM     30  C   LIG    1       22.772 -33.612   9.766  0.00  0.00    +0.277 C 
ENDBRANCH   2  29
TORSDOF 5
ENDMDL
MODEL 9
REMARK VINA RESULT:      -5.8      1.680      8.641
REMARK  Name = *****
REMARK                            x       y       z     vdW  Elec       q    Type
REMARK                         _______ _______ _______ _____ _____    ______ ____
ROOT
ATOM      1  C   LIG    1       30.952 -17.171  10.720  0.00  0.00    +0.164 A 
ATOM      2  C   LIG    1       32.063 -16.954   9.894  0.00  0.00    +0.162 A 
ATOM      3  C   LIG    1       32.200 -17.705   8.725  0.00  0.00    +0.062 A 
ATOM      4  C   LIG    1       31.205 -18.617   8.333  0.00  0.00    +0.044 A 
ATOM      5  C   LIG    1       30.103 -18.831   9.149  0.00  0.00    +0.082 A 
ATOM      6  N   LIG    1       29.145 -19.691   8.820  0.00  0.00    -0.214 NA
ATOM      7  C   LIG    1       29.264 -20.393   7.683  0.00  0.00    +0.220 A 
ATOM      8  N   LIG    1       30.288 -20.248   6.835  0.00  0.00    -0.199 NA
ATOM      9  C   LIG    1       31.223 -19.350   7.150  0.00  0.00    +0.129 A 
ATOM     10  C   LIG    1       29.998 -18.123  10.336  0.00  0.00    +0.078 A 
ENDROOT
BRANCH   7  11
ATOM     11  N   LIG    1       28.262 -21.304   7.361  0.00  0.00    -0.297 N 
ATOM     12  C   LIG    1       27.304 -21.535   8.470  0.00  0.00    +0.127 C 
ATOM     13  C   LIG    1       26.250 -20.397   8.546  0.00  0.00    +0.127 C 
ATOM     14  N   LIG    1       25.611 -20.233   7.229  0.00  0.00    -0.296 N 
ATOM     15  C   LIG    1       24.419 -20.911   6.981  0.00  0.00    +0.244 C 
ATOM     16  O   LIG    1       23.665 -21.231   7.925  0.00  0.00    -0.273 OA
ATOM     17  C   LIG    1       26.572 -19.912   6.173  0.00  0.00    +0.127 C 
ATOM     18  C   LIG    1       27.620 -21.040   6.056  0.00  0.00    +0.127 C 
BRANCH  15  19
ATOM     19  C   LIG    1       24.052 -21.244   5.517  0.00  0.00    +0.204 C 
ATOM     20  O   LIG    1       22.756 -21.861   5.428  0.00  0.00    -0.367 OA
ATOM     21  C   LIG    1       21.807 -20.915   4.917  0.00  0.00    +0.161 C 
ATOM     22  C   LIG    1       22.531 -19.599   4.757  0.00  0.00    +0.031 C 
ATOM     23  C   LIG    1       23.969 -20.033   4.609  0.00  0.00    +0.043 C 
ENDBRANCH  15  19
ENDBRANCH   7  11
BRANCH   9  24
ATOM     24  N   LIG    1       32.240 -19.185   6.198  0.00  0.00    -0.343 N 
ATOM     25  H   LIG    1       31.870 -18.750   5.359  0.00  0.00    +0.144 HD
ATOM     26  H   LIG    1       32.593 -20.118   5.994  0.00  0.00    +0.144 HD
ENDBRANCH   9  24
BRANCH   1  28
ATOM     27  C   LIG    1       31.699 -16.183  12.764  0.00  0.00    +0.277 C 
ATOM     28  O   LIG    1       30.634 -16.537  11.894  0.00  0.00    -0.491 OA
ENDBRANCH   1  28
BRANCH   2  29
ATOM     29  O   LIG    1       33.020 -16.051  10.263  0.00  0.00    -0.491 OA
ATOM     30  C   LIG    1       33.020 -14.816   9.555  0.00  0.00    +0.277 C 
ENDBRANCH   2  29
TORSDOF 5
ENDMDL
