MODEL 1
REMARK VINA RESULT:      -2.7      0.000      0.000
REMARK  Name = *****
REMARK                            x       y       z     vdW  Elec       q    Type
REMARK                         _______ _______ _______ _____ _____    ______ ____
ROOT
ATOM      1  C   LIG    1       23.958 -19.833   4.396  0.00  0.00    +0.132 A 
ATOM      2  C   LIG    1       25.283 -19.412   4.334  0.00  0.00    +0.050 A 
ATOM      3  C   LIG    1       25.591 -18.086   3.993  0.00  0.00    -0.040 A 
ATOM      4  C   LIG    1       27.040 -17.691   3.927  0.00  0.00    +0.036 C 
ATOM      5  C   LIG    1       27.255 -16.181   3.907  0.00  0.00    +0.009 C 
ATOM      6  C   LIG    1       26.327 -15.515   2.878  0.00  0.00    +0.001 C 
ATOM      7  C   LIG    1       24.849 -15.748   3.273  0.00  0.00    +0.023 C 
ATOM      8  C   LIG    1       24.424 -14.794   4.400  0.00  0.00    +0.009 C 
ATOM      9  C   LIG    1       24.562 -13.338   3.975  0.00  0.00    +0.010 C 
ATOM     10  C   LIG    1       25.937 -12.935   3.414  0.00  0.00    -0.003 C 
ATOM     11  C   LIG    1       25.707 -11.661   2.549  0.00  0.00    +0.014 C 
ATOM     12  C   LIG    1       27.017 -12.566   4.471  0.00  0.00    +0.121 C 
ATOM     13  C   LIG    1       28.352 -13.122   3.958  0.00  0.00    +0.032 C 
ATOM     14  C   LIG    1       28.087 -13.628   2.544  0.00  0.00    +0.007 C 
ATOM     15  C   LIG    1       26.604 -14.024   2.530  0.00  0.00    +0.001 C 
ATOM     16  C   LIG    1       24.559 -17.191   3.663  0.00  0.00    -0.041 A 
ATOM     17  C   LIG    1       23.226 -17.645   3.705  0.00  0.00    +0.008 A 
ATOM     18  C   LIG    1       22.926 -18.959   4.068  0.00  0.00    +0.046 A 
ENDROOT
BRANCH  12  19
ATOM     19  O   LIG    1       26.735 -13.039   5.777  0.00  0.00    -0.391 OA
ATOM     20  H   LIG    1       26.258 -12.352   6.268  0.00  0.00    +0.210 HD
ENDBRANCH  12  19
BRANCH   1  21
ATOM     21  O   LIG    1       23.601 -21.165   4.678  0.00  0.00    -0.426 OA
BRANCH  21  23
ATOM     22  C   LIG    1       23.163 -21.571   6.956  0.00  0.00    +0.136 C 
ATOM     23  C   LIG    1       22.576 -21.431   5.584  0.00  0.00    +0.309 C 
ATOM     24  O   LIG    1       21.386 -21.571   5.333  0.00  0.00    -0.251 OA
ENDBRANCH  21  23
ENDBRANCH   1  21
TORSDOF 3
ENDMDL
MODEL 2
REMARK VINA RESULT:      -1.7      1.410      2.683
REMARK  Name = *****
REMARK                            x       y       z     vdW  Elec       q    Type
REMARK                         _______ _______ _______ _____ _____    ______ ____
ROOT
ATOM      1  C   LIG    1       23.468 -19.658   3.769  0.00  0.00    +0.132 A 
ATOM      2  C   LIG    1       22.825 -18.545   4.304  0.00  0.00    +0.050 A 
ATOM      3  C   LIG    1       23.466 -17.297   4.323  0.00  0.00    -0.040 A 
ATOM      4  C   LIG    1       22.730 -16.133   4.925  0.00  0.00    +0.036 C 
ATOM      5  C   LIG    1       23.346 -14.781   4.578  0.00  0.00    +0.009 C 
ATOM      6  C   LIG    1       24.867 -14.806   4.802  0.00  0.00    +0.001 C 
ATOM      7  C   LIG    1       25.522 -15.848   3.864  0.00  0.00    +0.023 C 
ATOM      8  C   LIG    1       25.656 -15.294   2.437  0.00  0.00    +0.009 C 
ATOM      9  C   LIG    1       26.521 -14.041   2.408  0.00  0.00    +0.010 C 
ATOM     10  C   LIG    1       26.112 -12.926   3.386  0.00  0.00    -0.003 C 
ATOM     11  C   LIG    1       27.377 -12.046   3.609  0.00  0.00    +0.014 C 
ATOM     12  C   LIG    1       24.989 -11.971   2.891  0.00  0.00    +0.121 C 
ATOM     13  C   LIG    1       24.103 -11.657   4.104  0.00  0.00    +0.032 C 
ATOM     14  C   LIG    1       24.812 -12.256   5.314  0.00  0.00    +0.007 C 
ATOM     15  C   LIG    1       25.614 -13.442   4.763  0.00  0.00    +0.001 C 
ATOM     16  C   LIG    1       24.783 -17.180   3.847  0.00  0.00    -0.041 A 
ATOM     17  C   LIG    1       25.426 -18.324   3.337  0.00  0.00    +0.008 A 
ATOM     18  C   LIG    1       24.773 -19.558   3.299  0.00  0.00    +0.046 A 
ENDROOT
BRANCH  12  19
ATOM     19  O   LIG    1       24.220 -12.488   1.818  0.00  0.00    -0.391 OA
ATOM     20  H   LIG    1       24.214 -11.846   1.093  0.00  0.00    +0.210 HD
ENDBRANCH  12  19
BRANCH   1  21
ATOM     21  O   LIG    1       22.890 -20.941   3.778  0.00  0.00    -0.426 OA
BRANCH  21  23
ATOM     22  C   LIG    1       22.898 -21.437   6.081  0.00  0.00    +0.136 C 
ATOM     23  C   LIG    1       22.069 -21.324   4.838  0.00  0.00    +0.309 C 
ATOM     24  O   LIG    1       20.870 -21.572   4.791  0.00  0.00    -0.251 OA
ENDBRANCH  21  23
ENDBRANCH   1  21
TORSDOF 3
ENDMDL
MODEL 3
REMARK VINA RESULT:      -0.0      1.431      7.418
REMARK  Name = *****
REMARK                            x       y       z     vdW  Elec       q    Type
REMARK                         _______ _______ _______ _____ _____    ______ ____
ROOT
ATOM      1  C   LIG    1       26.727 -13.630   4.119  0.00  0.00    +0.132 A 
ATOM      2  C   LIG    1       25.404 -13.913   4.446  0.00  0.00    +0.050 A 
ATOM      3  C   LIG    1       24.882 -15.198   4.240  0.00  0.00    -0.040 A 
ATOM      4  C   LIG    1       23.442 -15.443   4.598  0.00  0.00    +0.036 C 
ATOM      5  C   LIG    1       23.081 -16.923   4.678  0.00  0.00    +0.009 C 
ATOM      6  C   LIG    1       23.606 -17.676   3.445  0.00  0.00    +0.001 C 
ATOM      7  C   LIG    1       25.151 -17.597   3.396  0.00  0.00    +0.023 C 
ATOM      8  C   LIG    1       25.782 -18.595   4.379  0.00  0.00    +0.009 C 
ATOM      9  C   LIG    1       25.385 -20.027   4.048  0.00  0.00    +0.010 C 
ATOM     10  C   LIG    1       23.874 -20.284   3.911  0.00  0.00    -0.003 C 
ATOM     11  C   LIG    1       23.720 -21.571   3.048  0.00  0.00    +0.014 C 
ATOM     12  C   LIG    1       23.109 -20.546   5.240  0.00  0.00    +0.121 C 
ATOM     13  C   LIG    1       21.746 -19.853   5.115  0.00  0.00    +0.032 C 
ATOM     14  C   LIG    1       21.645 -19.370   3.671  0.00  0.00    +0.007 C 
ATOM     15  C   LIG    1       23.094 -19.129   3.227  0.00  0.00    +0.001 C 
ATOM     16  C   LIG    1       25.682 -16.193   3.653  0.00  0.00    -0.041 A 
ATOM     17  C   LIG    1       27.010 -15.878   3.302  0.00  0.00    +0.008 A 
ATOM     18  C   LIG    1       27.530 -14.603   3.533  0.00  0.00    +0.046 A 
ENDROOT
BRANCH  12  19
ATOM     19  O   LIG    1       23.798 -20.110   6.400  0.00  0.00    -0.391 OA
ATOM     20  H   LIG    1       24.742 -20.306   6.301  0.00  0.00    +0.210 HD
ENDBRANCH  12  19
BRANCH   1  21
ATOM     21  O   LIG    1       27.280 -12.343   4.254  0.00  0.00    -0.426 OA
BRANCH  21  23
ATOM     22  C   LIG    1       29.471 -12.602   3.429  0.00  0.00    +0.136 C 
ATOM     23  C   LIG    1       28.624 -12.199   4.597  0.00  0.00    +0.309 C 
ATOM     24  O   LIG    1       29.076 -11.840   5.677  0.00  0.00    -0.251 OA
ENDBRANCH  21  23
ENDBRANCH   1  21
TORSDOF 3
ENDMDL
