MODEL 1
REMARK VINA RESULT:      -4.5      0.000      0.000
REMARK  Name = *****
REMARK                            x       y       z     vdW  Elec       q    Type
REMARK                         _______ _______ _______ _____ _____    ______ ____
ROOT
ATOM      1  C   LIG    1       25.310 -17.849   3.299  0.00  0.00    +0.317 C 
ATOM      2  O   LIG    1       26.240 -18.446   2.782  0.00  0.00    -0.250 OA
ENDROOT
BRANCH   1   3
ATOM      3  O   LIG    1       25.294 -16.502   3.555  0.00  0.00    -0.461 OA
BRANCH   3   8
ATOM      4  C   LIG    1       28.487 -12.965   3.343  0.00  0.00    +0.105 C 
ATOM      5  N   LIG    1       27.116 -12.967   3.825  0.00  0.00    -0.299 NA
ATOM      6  C   LIG    1       26.836 -13.864   4.950  0.00  0.00    +0.060 C 
ATOM      7  C   LIG    1       27.157 -15.329   4.619  0.00  0.00    +0.063 C 
ATOM      8  C   LIG    1       26.546 -15.824   3.294  0.00  0.00    +0.179 C 
ATOM      9  C   LIG    1       26.302 -14.722   2.246  0.00  0.00    +0.063 C 
ATOM     10  C   LIG    1       25.331 -13.631   5.121  0.00  0.00    +0.020 C 
ATOM     11  C   LIG    1       24.834 -13.272   3.720  0.00  0.00    +0.020 C 
ATOM     12  C   LIG    1       26.087 -13.322   2.842  0.00  0.00    +0.060 C 
ENDBRANCH   3   8
ENDBRANCH   1   3
BRANCH   1  13
ATOM     13  C   LIG    1       24.009 -18.507   3.733  0.00  0.00    +0.153 C 
BRANCH  13  14
ATOM     14  C   LIG    1       24.200 -19.587   4.785  0.00  0.00    -0.032 A 
ATOM     15  C   LIG    1       25.457 -20.142   5.072  0.00  0.00    +0.004 A 
ATOM     16  C   LIG    1       25.598 -21.112   6.065  0.00  0.00    +0.000 A 
ATOM     17  C   LIG    1       24.489 -21.530   6.799  0.00  0.00    +0.000 A 
ATOM     18  C   LIG    1       23.238 -20.975   6.541  0.00  0.00    +0.000 A 
ATOM     19  C   LIG    1       23.094 -20.011   5.542  0.00  0.00    +0.004 A 
ENDBRANCH  13  14
BRANCH  13  20
ATOM     20  C   LIG    1       23.070 -17.392   4.223  0.00  0.00    +0.175 C 
BRANCH  20  21
ATOM     21  O   LIG    1       21.701 -17.788   4.120  0.00  0.00    -0.394 OA
ATOM     22  H   LIG    1       21.697 -18.728   3.868  0.00  0.00    +0.209 HD
ENDBRANCH  20  21
ENDBRANCH  13  20
ENDBRANCH   1  13
TORSDOF 6
ENDMDL
MODEL 2
REMARK VINA RESULT:      -4.5      1.503      2.697
REMARK  Name = *****
REMARK                            x       y       z     vdW  Elec       q    Type
REMARK                         _______ _______ _______ _____ _____    ______ ____
ROOT
ATOM      1  C   LIG    1       26.023 -17.955   3.404  0.00  0.00    +0.317 C 
ATOM      2  O   LIG    1       25.832 -18.434   2.297  0.00  0.00    -0.250 OA
ENDROOT
BRANCH   1   3
ATOM      3  O   LIG    1       26.408 -16.659   3.636  0.00  0.00    -0.461 OA
BRANCH   3   8
ATOM      4  C   LIG    1       24.570 -12.375   2.627  0.00  0.00    +0.105 C 
ATOM      5  N   LIG    1       25.602 -12.756   3.577  0.00  0.00    -0.299 NA
ATOM      6  C   LIG    1       26.797 -13.382   3.004  0.00  0.00    +0.060 C 
ATOM      7  C   LIG    1       26.464 -14.663   2.224  0.00  0.00    +0.063 C 
ATOM      8  C   LIG    1       25.579 -15.660   2.997  0.00  0.00    +0.179 C 
ATOM      9  C   LIG    1       24.668 -15.020   4.061  0.00  0.00    +0.063 C 
ATOM     10  C   LIG    1       27.592 -13.679   4.280  0.00  0.00    +0.020 C 
ATOM     11  C   LIG    1       26.528 -13.887   5.359  0.00  0.00    +0.020 C 
ATOM     12  C   LIG    1       25.196 -13.694   4.628  0.00  0.00    +0.060 C 
ENDBRANCH   3   8
ENDBRANCH   1   3
BRANCH   1  13
ATOM     13  C   LIG    1       25.852 -18.720   4.707  0.00  0.00    +0.153 C 
BRANCH  13  14
ATOM     14  C   LIG    1       24.549 -19.499   4.782  0.00  0.00    -0.032 A 
ATOM     15  C   LIG    1       24.493 -20.825   5.238  0.00  0.00    +0.004 A 
ATOM     16  C   LIG    1       23.274 -21.500   5.321  0.00  0.00    +0.000 A 
ATOM     17  C   LIG    1       22.091 -20.855   4.966  0.00  0.00    +0.000 A 
ATOM     18  C   LIG    1       22.126 -19.533   4.531  0.00  0.00    +0.000 A 
ATOM     19  C   LIG    1       23.346 -18.860   4.439  0.00  0.00    +0.004 A 
ENDBRANCH  13  14
BRANCH  13  20
ATOM     20  C   LIG    1       27.076 -19.636   4.868  0.00  0.00    +0.175 C 
BRANCH  20  21
ATOM     21  O   LIG    1       28.285 -18.878   4.921  0.00  0.00    -0.394 OA
ATOM     22  H   LIG    1       28.777 -19.184   5.703  0.00  0.00    +0.209 HD
ENDBRANCH  20  21
ENDBRANCH  13  20
ENDBRANCH   1  13
TORSDOF 6
ENDMDL
MODEL 3
REMARK VINA RESULT:      -4.5      1.534      2.313
REMARK  Name = *****
REMARK                            x       y       z     vdW  Elec       q    Type
REMARK                         _______ _______ _______ _____ _____    ______ ____
ROOT
ATOM      1  C   LIG    1       22.462 -16.454   4.503  0.00  0.00    +0.317 C 
ATOM      2  O   LIG    1       21.973 -16.169   5.585  0.00  0.00    -0.250 OA
ENDROOT
BRANCH   1   3
ATOM      3  O   LIG    1       23.257 -15.616   3.763  0.00  0.00    -0.461 OA
BRANCH   3   8
ATOM      4  C   LIG    1       27.366 -13.338   4.584  0.00  0.00    +0.105 C 
ATOM      5  N   LIG    1       26.303 -13.049   3.635  0.00  0.00    -0.299 NA
ATOM      6  C   LIG    1       24.987 -12.772   4.216  0.00  0.00    +0.060 C 
ATOM      7  C   LIG    1       24.470 -13.940   5.067  0.00  0.00    +0.063 C 
ATOM      8  C   LIG    1       24.537 -15.310   4.365  0.00  0.00    +0.179 C 
ATOM      9  C   LIG    1       25.631 -15.428   3.287  0.00  0.00    +0.063 C 
ATOM     10  C   LIG    1       24.158 -12.581   2.942  0.00  0.00    +0.020 C 
ATOM     11  C   LIG    1       24.847 -13.458   1.896  0.00  0.00    +0.020 C 
ATOM     12  C   LIG    1       26.025 -14.091   2.641  0.00  0.00    +0.060 C 
ENDBRANCH   3   8
ENDBRANCH   1   3
BRANCH   1  13
ATOM     13  C   LIG    1       22.277 -17.793   3.808  0.00  0.00    +0.153 C 
BRANCH  13  14
ATOM     14  C   LIG    1       23.232 -18.868   4.303  0.00  0.00    -0.032 A 
ATOM     15  C   LIG    1       24.521 -19.028   3.773  0.00  0.00    +0.004 A 
ATOM     16  C   LIG    1       25.380 -20.008   4.273  0.00  0.00    +0.000 A 
ATOM     17  C   LIG    1       24.971 -20.830   5.322  0.00  0.00    +0.000 A 
ATOM     18  C   LIG    1       23.702 -20.670   5.873  0.00  0.00    +0.000 A 
ATOM     19  C   LIG    1       22.839 -19.697   5.368  0.00  0.00    +0.004 A 
ENDBRANCH  13  14
BRANCH  13  20
ATOM     20  C   LIG    1       20.808 -18.208   3.990  0.00  0.00    +0.175 C 
BRANCH  20  21
ATOM     21  O   LIG    1       20.110 -18.198   2.743  0.00  0.00    -0.394 OA
ATOM     22  H   LIG    1       20.722 -18.552   2.074  0.00  0.00    +0.209 HD
ENDBRANCH  20  21
ENDBRANCH  13  20
ENDBRANCH   1  13
TORSDOF 6
ENDMDL
MODEL 4
REMARK VINA RESULT:      -4.0      1.605      2.679
REMARK  Name = *****
REMARK                            x       y       z     vdW  Elec       q    Type
REMARK                         _______ _______ _______ _____ _____    ______ ____
ROOT
ATOM      1  C   LIG    1       24.857 -17.829   3.787  0.00  0.00    +0.317 C 
ATOM      2  O   LIG    1       23.661 -17.750   4.020  0.00  0.00    -0.250 OA
ENDROOT
BRANCH   1   3
ATOM      3  O   LIG    1       25.708 -16.757   3.704  0.00  0.00    -0.461 OA
BRANCH   3   8
ATOM      4  C   LIG    1       25.017 -12.176   2.570  0.00  0.00    +0.105 C 
ATOM      5  N   LIG    1       25.932 -12.782   3.523  0.00  0.00    -0.299 NA
ATOM      6  C   LIG    1       26.915 -13.711   2.960  0.00  0.00    +0.060 C 
ATOM      7  C   LIG    1       26.251 -14.886   2.227  0.00  0.00    +0.063 C 
ATOM      8  C   LIG    1       25.153 -15.597   3.040  0.00  0.00    +0.179 C 
ATOM      9  C   LIG    1       24.456 -14.713   4.090  0.00  0.00    +0.063 C 
ATOM     10  C   LIG    1       27.629 -14.165   4.238  0.00  0.00    +0.020 C 
ATOM     11  C   LIG    1       26.567 -14.059   5.333  0.00  0.00    +0.020 C 
ATOM     12  C   LIG    1       25.317 -13.551   4.608  0.00  0.00    +0.060 C 
ENDBRANCH   3   8
ENDBRANCH   1   3
BRANCH   1  13
ATOM     13  C   LIG    1       25.598 -19.138   3.564  0.00  0.00    +0.153 C 
BRANCH  13  14
ATOM     14  C   LIG    1       26.290 -19.662   4.812  0.00  0.00    -0.032 A 
ATOM     15  C   LIG    1       25.633 -20.474   5.749  0.00  0.00    +0.004 A 
ATOM     16  C   LIG    1       26.310 -20.960   6.869  0.00  0.00    +0.000 A 
ATOM     17  C   LIG    1       27.656 -20.656   7.061  0.00  0.00    +0.000 A 
ATOM     18  C   LIG    1       28.328 -19.867   6.131  0.00  0.00    +0.000 A 
ATOM     19  C   LIG    1       27.650 -19.374   5.014  0.00  0.00    +0.004 A 
ENDBRANCH  13  14
BRANCH  13  20
ATOM     20  C   LIG    1       24.586 -20.152   3.005  0.00  0.00    +0.175 C 
BRANCH  20  21
ATOM     21  O   LIG    1       23.563 -20.441   3.959  0.00  0.00    -0.394 OA
ATOM     22  H   LIG    1       23.737 -21.337   4.297  0.00  0.00    +0.209 HD
ENDBRANCH  20  21
ENDBRANCH  13  20
ENDBRANCH   1  13
TORSDOF 6
ENDMDL
MODEL 5
REMARK VINA RESULT:      -4.0      0.884      1.925
REMARK  Name = *****
REMARK                            x       y       z     vdW  Elec       q    Type
REMARK                         _______ _______ _______ _____ _____    ______ ____
ROOT
ATOM      1  C   LIG    1       24.970 -17.755   3.606  0.00  0.00    +0.317 C 
ATOM      2  O   LIG    1       25.913 -18.100   2.912  0.00  0.00    -0.250 OA
ENDROOT
BRANCH   1   3
ATOM      3  O   LIG    1       24.832 -16.514   4.173  0.00  0.00    -0.461 OA
BRANCH   3   8
ATOM      4  C   LIG    1       24.974 -12.216   2.112  0.00  0.00    +0.105 C 
ATOM      5  N   LIG    1       25.687 -12.728   3.270  0.00  0.00    -0.299 NA
ATOM      6  C   LIG    1       26.564 -13.876   3.023  0.00  0.00    +0.060 C 
ATOM      7  C   LIG    1       25.800 -15.077   2.447  0.00  0.00    +0.063 C 
ATOM      8  C   LIG    1       24.531 -15.453   3.236  0.00  0.00    +0.179 C 
ATOM      9  C   LIG    1       23.881 -14.286   4.003  0.00  0.00    +0.063 C 
ATOM     10  C   LIG    1       27.072 -14.147   4.442  0.00  0.00    +0.020 C 
ATOM     11  C   LIG    1       25.938 -13.677   5.355  0.00  0.00    +0.020 C 
ATOM     12  C   LIG    1       24.858 -13.168   4.396  0.00  0.00    +0.060 C 
ENDBRANCH   3   8
ENDBRANCH   1   3
BRANCH   1  13
ATOM     13  C   LIG    1       23.786 -18.649   3.942  0.00  0.00    +0.153 C 
BRANCH  13  14
ATOM     14  C   LIG    1       24.081 -19.653   5.044  0.00  0.00    -0.032 A 
ATOM     15  C   LIG    1       23.103 -20.071   5.960  0.00  0.00    +0.004 A 
ATOM     16  C   LIG    1       23.404 -21.016   6.941  0.00  0.00    +0.000 A 
ATOM     17  C   LIG    1       24.680 -21.572   7.012  0.00  0.00    +0.000 A 
ATOM     18  C   LIG    1       25.656 -21.183   6.098  0.00  0.00    +0.000 A 
ATOM     19  C   LIG    1       25.360 -20.231   5.121  0.00  0.00    +0.004 A 
ENDBRANCH  13  14
BRANCH  13  20
ATOM     20  C   LIG    1       22.606 -17.733   4.304  0.00  0.00    +0.175 C 
BRANCH  20  21
ATOM     21  O   LIG    1       21.388 -18.206   3.727  0.00  0.00    -0.394 OA
ATOM     22  H   LIG    1       20.678 -17.620   4.042  0.00  0.00    +0.209 HD
ENDBRANCH  20  21
ENDBRANCH  13  20
ENDBRANCH   1  13
TORSDOF 6
ENDMDL
MODEL 6
REMARK VINA RESULT:      -4.0      1.259      2.266
REMARK  Name = *****
REMARK                            x       y       z     vdW  Elec       q    Type
REMARK                         _______ _______ _______ _____ _____    ______ ____
ROOT
ATOM      1  C   LIG    1       25.763 -17.931   3.310  0.00  0.00    +0.317 C 
ATOM      2  O   LIG    1       25.981 -18.467   2.235  0.00  0.00    -0.250 OA
ENDROOT
BRANCH   1   3
ATOM      3  O   LIG    1       25.648 -16.577   3.496  0.00  0.00    -0.461 OA
BRANCH   3   8
ATOM      4  C   LIG    1       28.668 -12.886   3.453  0.00  0.00    +0.105 C 
ATOM      5  N   LIG    1       27.289 -12.969   3.905  0.00  0.00    -0.299 NA
ATOM      6  C   LIG    1       27.031 -13.910   4.998  0.00  0.00    +0.060 C 
ATOM      7  C   LIG    1       27.429 -15.347   4.633  0.00  0.00    +0.063 C 
ATOM      8  C   LIG    1       26.870 -15.832   3.282  0.00  0.00    +0.179 C 
ATOM      9  C   LIG    1       26.593 -14.713   2.261  0.00  0.00    +0.063 C 
ATOM     10  C   LIG    1       25.514 -13.755   5.144  0.00  0.00    +0.020 C 
ATOM     11  C   LIG    1       25.027 -13.380   3.743  0.00  0.00    +0.020 C 
ATOM     12  C   LIG    1       26.299 -13.343   2.891  0.00  0.00    +0.060 C 
ENDBRANCH   3   8
ENDBRANCH   1   3
BRANCH   1  13
ATOM     13  C   LIG    1       25.573 -18.685   4.616  0.00  0.00    +0.153 C 
BRANCH  13  14
ATOM     14  C   LIG    1       24.232 -19.395   4.714  0.00  0.00    -0.032 A 
ATOM     15  C   LIG    1       23.050 -18.841   4.200  0.00  0.00    +0.004 A 
ATOM     16  C   LIG    1       21.842 -19.535   4.283  0.00  0.00    +0.000 A 
ATOM     17  C   LIG    1       21.800 -20.801   4.864  0.00  0.00    +0.000 A 
ATOM     18  C   LIG    1       22.968 -21.374   5.361  0.00  0.00    +0.000 A 
ATOM     19  C   LIG    1       24.175 -20.677   5.287  0.00  0.00    +0.004 A 
ENDBRANCH  13  14
BRANCH  13  20
ATOM     20  C   LIG    1       26.749 -19.665   4.759  0.00  0.00    +0.175 C 
BRANCH  20  21
ATOM     21  O   LIG    1       27.998 -18.971   4.789  0.00  0.00    -0.394 OA
ATOM     22  H   LIG    1       27.960 -18.352   5.539  0.00  0.00    +0.209 HD
ENDBRANCH  20  21
ENDBRANCH  13  20
ENDBRANCH   1  13
TORSDOF 6
ENDMDL
MODEL 7
REMARK VINA RESULT:      -3.8      1.630      2.708
REMARK  Name = *****
REMARK                            x       y       z     vdW  Elec       q    Type
REMARK                         _______ _______ _______ _____ _____    ______ ____
ROOT
ATOM      1  C   LIG    1       26.394 -17.229   3.535  0.00  0.00    +0.317 C 
ATOM      2  O   LIG    1       27.568 -17.011   3.789  0.00  0.00    -0.250 OA
ENDROOT
BRANCH   1   3
ATOM      3  O   LIG    1       25.489 -16.272   3.153  0.00  0.00    -0.461 OA
BRANCH   3   8
ATOM      4  C   LIG    1       24.393 -12.136   5.259  0.00  0.00    +0.105 C 
ATOM      5  N   LIG    1       24.739 -12.426   3.878  0.00  0.00    -0.299 NA
ATOM      6  C   LIG    1       23.841 -13.345   3.175  0.00  0.00    +0.060 C 
ATOM      7  C   LIG    1       23.748 -14.712   3.869  0.00  0.00    +0.063 C 
ATOM      8  C   LIG    1       25.114 -15.345   4.199  0.00  0.00    +0.179 C 
ATOM      9  C   LIG    1       26.259 -14.336   4.399  0.00  0.00    +0.063 C 
ATOM     10  C   LIG    1       24.547 -13.439   1.819  0.00  0.00    +0.020 C 
ATOM     11  C   LIG    1       26.027 -13.215   2.137  0.00  0.00    +0.020 C 
ATOM     12  C   LIG    1       26.066 -13.007   3.653  0.00  0.00    +0.060 C 
ENDBRANCH   3   8
ENDBRANCH   1   3
BRANCH   1  13
ATOM     13  C   LIG    1       25.750 -18.605   3.592  0.00  0.00    +0.153 C 
BRANCH  13  14
ATOM     14  C   LIG    1       26.248 -19.459   4.746  0.00  0.00    -0.032 A 
ATOM     15  C   LIG    1       25.409 -20.340   5.446  0.00  0.00    +0.004 A 
ATOM     16  C   LIG    1       25.909 -21.129   6.482  0.00  0.00    +0.000 A 
ATOM     17  C   LIG    1       27.259 -21.063   6.824  0.00  0.00    +0.000 A 
ATOM     18  C   LIG    1       28.109 -20.210   6.127  0.00  0.00    +0.000 A 
ATOM     19  C   LIG    1       27.609 -19.413   5.096  0.00  0.00    +0.004 A 
ENDBRANCH  13  14
BRANCH  13  20
ATOM     20  C   LIG    1       24.227 -18.399   3.650  0.00  0.00    +0.175 C 
BRANCH  20  21
ATOM     21  O   LIG    1       23.532 -19.518   3.097  0.00  0.00    -0.394 OA
ATOM     22  H   LIG    1       22.939 -19.170   2.408  0.00  0.00    +0.209 HD
ENDBRANCH  20  21
ENDBRANCH  13  20
ENDBRANCH   1  13
TORSDOF 6
ENDMDL
MODEL 8
REMARK VINA RESULT:      -3.6      2.553      6.604
REMARK  Name = *****
REMARK                            x       y       z     vdW  Elec       q    Type
REMARK                         _______ _______ _______ _____ _____    ______ ____
ROOT
ATOM      1  C   LIG    1       25.741 -18.230   3.131  0.00  0.00    +0.317 C 
ATOM      2  O   LIG    1       25.704 -18.938   2.137  0.00  0.00    -0.250 OA
ENDROOT
BRANCH   1   3
ATOM      3  O   LIG    1       24.941 -18.391   4.234  0.00  0.00    -0.461 OA
BRANCH   3   8
ATOM      4  C   LIG    1       21.417 -21.571   4.693  0.00  0.00    +0.105 C 
ATOM      5  N   LIG    1       22.653 -21.422   5.442  0.00  0.00    -0.299 NA
ATOM      6  C   LIG    1       22.819 -20.151   6.153  0.00  0.00    +0.060 C 
ATOM      7  C   LIG    1       22.766 -18.944   5.205  0.00  0.00    +0.063 C 
ATOM      8  C   LIG    1       23.688 -19.067   3.976  0.00  0.00    +0.179 C 
ATOM      9  C   LIG    1       23.988 -20.513   3.539  0.00  0.00    +0.063 C 
ATOM     10  C   LIG    1       24.216 -20.349   6.750  0.00  0.00    +0.020 C 
ATOM     11  C   LIG    1       24.930 -21.276   5.766  0.00  0.00    +0.020 C 
ATOM     12  C   LIG    1       23.894 -21.547   4.671  0.00  0.00    +0.060 C 
ENDBRANCH   3   8
ENDBRANCH   1   3
BRANCH   1  13
ATOM     13  C   LIG    1       26.695 -17.059   3.309  0.00  0.00    +0.153 C 
BRANCH  13  14
ATOM     14  C   LIG    1       25.994 -15.758   3.666  0.00  0.00    -0.032 A 
ATOM     15  C   LIG    1       24.596 -15.645   3.703  0.00  0.00    +0.004 A 
ATOM     16  C   LIG    1       23.988 -14.441   4.063  0.00  0.00    +0.000 A 
ATOM     17  C   LIG    1       24.768 -13.338   4.408  0.00  0.00    +0.000 A 
ATOM     18  C   LIG    1       26.156 -13.440   4.395  0.00  0.00    +0.000 A 
ATOM     19  C   LIG    1       26.766 -14.641   4.027  0.00  0.00    +0.004 A 
ENDBRANCH  13  14
BRANCH  13  20
ATOM     20  C   LIG    1       27.727 -17.463   4.376  0.00  0.00    +0.175 C 
BRANCH  20  21
ATOM     21  O   LIG    1       27.599 -18.844   4.721  0.00  0.00    -0.394 OA
ATOM     22  H   LIG    1       26.724 -19.133   4.408  0.00  0.00    +0.209 HD
ENDBRANCH  20  21
ENDBRANCH  13  20
ENDBRANCH   1  13
TORSDOF 6
ENDMDL
MODEL 9
REMARK VINA RESULT:      -3.3      2.566      7.018
REMARK  Name = *****
REMARK                            x       y       z     vdW  Elec       q    Type
REMARK                         _______ _______ _______ _____ _____    ______ ____
ROOT
ATOM      1  C   LIG    1       24.269 -16.504   3.918  0.00  0.00    +0.317 C 
ATOM      2  O   LIG    1       23.282 -16.068   4.490  0.00  0.00    -0.250 OA
ENDROOT
BRANCH   1   3
ATOM      3  O   LIG    1       24.550 -17.836   3.755  0.00  0.00    -0.461 OA
BRANCH   3   8
ATOM      4  C   LIG    1       21.720 -21.571   4.644  0.00  0.00    +0.105 C 
ATOM      5  N   LIG    1       23.050 -21.259   5.141  0.00  0.00    -0.299 NA
ATOM      6  C   LIG    1       23.169 -20.016   5.907  0.00  0.00    +0.060 C 
ATOM      7  C   LIG    1       22.737 -18.788   5.092  0.00  0.00    +0.063 C 
ATOM      8  C   LIG    1       23.387 -18.695   3.698  0.00  0.00    +0.179 C 
ATOM      9  C   LIG    1       23.801 -20.049   3.091  0.00  0.00    +0.063 C 
ATOM     10  C   LIG    1       24.674 -20.011   6.194  0.00  0.00    +0.020 C 
ATOM     11  C   LIG    1       25.296 -20.757   5.012  0.00  0.00    +0.020 C 
ATOM     12  C   LIG    1       24.105 -21.139   4.129  0.00  0.00    +0.060 C 
ENDBRANCH   3   8
ENDBRANCH   1   3
BRANCH   1  13
ATOM     13  C   LIG    1       25.341 -15.633   3.282  0.00  0.00    +0.153 C 
BRANCH  13  14
ATOM     14  C   LIG    1       24.968 -14.161   3.225  0.00  0.00    -0.032 A 
ATOM     15  C   LIG    1       25.008 -13.422   2.033  0.00  0.00    +0.004 A 
ATOM     16  C   LIG    1       24.631 -12.078   2.014  0.00  0.00    +0.000 A 
ATOM     17  C   LIG    1       24.191 -11.457   3.182  0.00  0.00    +0.000 A 
ATOM     18  C   LIG    1       24.126 -12.182   4.369  0.00  0.00    +0.000 A 
ATOM     19  C   LIG    1       24.511 -13.523   4.391  0.00  0.00    +0.004 A 
ENDBRANCH  13  14
BRANCH  13  20
ATOM     20  C   LIG    1       26.645 -15.862   4.064  0.00  0.00    +0.175 C 
BRANCH  20  21
ATOM     21  O   LIG    1       27.664 -14.953   3.646  0.00  0.00    -0.394 OA
ATOM     22  H   LIG    1       28.461 -15.165   4.163  0.00  0.00    +0.209 HD
ENDBRANCH  20  21
ENDBRANCH  13  20
ENDBRANCH   1  13
TORSDOF 6
ENDMDL
