MODEL 1
REMARK VINA RESULT:      -8.9      0.000      0.000
REMARK  Name = *****
REMARK                            x       y       z     vdW  Elec       q    Type
REMARK                         _______ _______ _______ _____ _____    ______ ____
ROOT
ATOM      1  C   LIG    1       24.028 -21.050   7.401  0.00  0.00    +0.019 C 
ATOM      2  C   LIG    1       25.390 -20.419   6.800  0.00  0.00    +0.033 C 
ATOM      3  C   LIG    1       24.642 -20.822   5.332  0.00  0.00    +0.140 C 
ATOM      4  O   LIG    1       23.695 -21.635   5.129  0.00  0.00    -0.297 OA
ATOM      5  C   LIG    1       25.093 -20.103   4.114  0.00  0.00    +0.075 C 
ATOM      6  C   LIG    1       26.381 -19.538   4.572  0.00  0.00    +0.016 C 
ATOM      7  C   LIG    1       26.729 -20.382   5.799  0.00  0.00    +0.029 C 
ATOM      8  C   LIG    1       28.136 -19.917   6.295  0.00  0.00    -0.062 C 
ATOM      9  C   LIG    1       28.521 -20.227   7.719  0.00  0.00    +0.045 C 
ATOM     10  C   LIG    1       29.521 -19.223   8.298  0.00  0.00    -0.037 A 
ATOM     11  C   LIG    1       30.622 -18.884   7.492  0.00  0.00    -0.036 A 
ATOM     12  C   LIG    1       30.581 -19.307   6.043  0.00  0.00    +0.062 C 
ATOM     13  C   LIG    1       31.697 -18.175   8.045  0.00  0.00    +0.049 A 
ATOM     14  C   LIG    1       31.605 -17.691   9.348  0.00  0.00    +0.117 A 
ATOM     15  C   LIG    1       30.453 -17.878  10.098  0.00  0.00    +0.045 A 
ATOM     16  C   LIG    1       29.426 -18.664   9.583  0.00  0.00    +0.008 A 
ATOM     17  C   LIG    1       27.314 -20.389   8.594  0.00  0.00    +0.013 C 
ATOM     18  C   LIG    1       29.148 -19.440   5.521  0.00  0.00    -0.022 C 
ATOM     19  C   LIG    1       26.179 -21.176   7.967  0.00  0.00    +0.015 C 
ENDROOT
BRANCH  14  20
ATOM     20  O   LIG    1       32.670 -17.022   9.874  0.00  0.00    -0.507 OA
ATOM     21  H   LIG    1       33.470 -17.303   9.397  0.00  0.00    +0.292 HD
ENDBRANCH  14  20
TORSDOF 1
ENDMDL
MODEL 2
REMARK VINA RESULT:      -8.3      2.323      6.706
REMARK  Name = *****
REMARK                            x       y       z     vdW  Elec       q    Type
REMARK                         _______ _______ _______ _____ _____    ______ ____
ROOT
ATOM      1  C   LIG    1       30.912 -20.212   8.119  0.00  0.00    +0.019 C 
ATOM      2  C   LIG    1       29.578 -20.289   7.209  0.00  0.00    +0.033 C 
ATOM      3  C   LIG    1       30.064 -18.718   6.794  0.00  0.00    +0.140 C 
ATOM      4  O   LIG    1       30.859 -17.951   7.410  0.00  0.00    -0.297 OA
ATOM      5  C   LIG    1       29.554 -18.159   5.516  0.00  0.00    +0.075 C 
ATOM      6  C   LIG    1       28.425 -19.070   5.232  0.00  0.00    +0.016 C 
ATOM      7  C   LIG    1       28.135 -19.719   6.587  0.00  0.00    +0.029 C 
ATOM      8  C   LIG    1       26.881 -20.632   6.402  0.00  0.00    -0.062 C 
ATOM      9  C   LIG    1       26.651 -21.728   7.410  0.00  0.00    +0.045 C 
ATOM     10  C   LIG    1       25.878 -22.918   6.832  0.00  0.00    -0.037 A 
ATOM     11  C   LIG    1       24.735 -22.623   6.069  0.00  0.00    -0.036 A 
ATOM     12  C   LIG    1       24.527 -21.187   5.651  0.00  0.00    +0.062 C 
ATOM     13  C   LIG    1       23.847 -23.651   5.723  0.00  0.00    +0.049 A 
ATOM     14  C   LIG    1       24.174 -24.973   6.016  0.00  0.00    +0.117 A 
ATOM     15  C   LIG    1       25.381 -25.289   6.623  0.00  0.00    +0.045 A 
ATOM     16  C   LIG    1       26.217 -24.263   7.052  0.00  0.00    +0.008 A 
ATOM     17  C   LIG    1       27.932 -22.153   8.065  0.00  0.00    +0.013 C 
ATOM     18  C   LIG    1       25.847 -20.420   5.544  0.00  0.00    -0.022 C 
ATOM     19  C   LIG    1       28.858 -21.013   8.440  0.00  0.00    +0.015 C 
ENDROOT
BRANCH  14  20
ATOM     20  O   LIG    1       23.287 -25.955   5.689  0.00  0.00    -0.507 OA
ATOM     21  H   LIG    1       23.728 -26.568   5.075  0.00  0.00    +0.292 HD
ENDBRANCH  14  20
TORSDOF 1
ENDMDL
MODEL 3
REMARK VINA RESULT:      -7.9      1.776      2.513
REMARK  Name = *****
REMARK                            x       y       z     vdW  Elec       q    Type
REMARK                         _______ _______ _______ _____ _____    ______ ____
ROOT
ATOM      1  C   LIG    1       22.894 -23.094   7.049  0.00  0.00    +0.019 C 
ATOM      2  C   LIG    1       23.941 -21.926   6.657  0.00  0.00    +0.033 C 
ATOM      3  C   LIG    1       22.650 -21.432   5.675  0.00  0.00    +0.140 C 
ATOM      4  O   LIG    1       21.653 -22.106   5.287  0.00  0.00    -0.297 OA
ATOM      5  C   LIG    1       22.624 -20.011   5.243  0.00  0.00    +0.075 C 
ATOM      6  C   LIG    1       24.019 -19.602   5.512  0.00  0.00    +0.016 C 
ATOM      7  C   LIG    1       24.774 -20.929   5.605  0.00  0.00    +0.029 C 
ATOM      8  C   LIG    1       26.287 -20.588   5.791  0.00  0.00    -0.062 C 
ATOM      9  C   LIG    1       27.185 -21.651   6.368  0.00  0.00    +0.045 C 
ATOM     10  C   LIG    1       28.392 -21.073   7.113  0.00  0.00    -0.037 A 
ATOM     11  C   LIG    1       29.101 -20.042   6.472  0.00  0.00    -0.036 A 
ATOM     12  C   LIG    1       28.464 -19.408   5.259  0.00  0.00    +0.062 C 
ATOM     13  C   LIG    1       30.348 -19.642   6.972  0.00  0.00    +0.049 A 
ATOM     14  C   LIG    1       30.809 -20.168   8.176  0.00  0.00    +0.117 A 
ATOM     15  C   LIG    1       30.039 -21.065   8.903  0.00  0.00    +0.045 A 
ATOM     16  C   LIG    1       28.847 -21.534   8.359  0.00  0.00    +0.008 A 
ATOM     17  C   LIG    1       26.416 -22.626   7.211  0.00  0.00    +0.013 C 
ATOM     18  C   LIG    1       26.936 -19.500   5.295  0.00  0.00    -0.022 C 
ATOM     19  C   LIG    1       25.081 -23.047   6.629  0.00  0.00    +0.015 C 
ENDROOT
BRANCH  14  20
ATOM     20  O   LIG    1       32.034 -19.780   8.634  0.00  0.00    -0.507 OA
ATOM     21  H   LIG    1       32.056 -19.924   9.596  0.00  0.00    +0.292 HD
ENDBRANCH  14  20
TORSDOF 1
ENDMDL
MODEL 4
REMARK VINA RESULT:      -7.4      7.934     10.447
REMARK  Name = *****
REMARK                            x       y       z     vdW  Elec       q    Type
REMARK                         _______ _______ _______ _____ _____    ______ ____
ROOT
ATOM      1  C   LIG    1       26.414 -29.860  11.873  0.00  0.00    +0.019 C 
ATOM      2  C   LIG    1       25.593 -29.697  10.489  0.00  0.00    +0.033 C 
ATOM      3  C   LIG    1       25.066 -31.255  10.901  0.00  0.00    +0.140 C 
ATOM      4  O   LIG    1       25.589 -32.076  11.708  0.00  0.00    -0.297 OA
ATOM      5  C   LIG    1       23.794 -31.728  10.297  0.00  0.00    +0.075 C 
ATOM      6  C   LIG    1       23.630 -30.771   9.182  0.00  0.00    +0.016 C 
ATOM      7  C   LIG    1       25.033 -30.191   8.994  0.00  0.00    +0.029 C 
ATOM      8  C   LIG    1       24.977 -29.235   7.760  0.00  0.00    -0.062 C 
ATOM      9  C   LIG    1       26.054 -28.190   7.626  0.00  0.00    +0.045 C 
ATOM     10  C   LIG    1       25.589 -26.949   6.857  0.00  0.00    -0.037 A 
ATOM     11  C   LIG    1       24.885 -27.170   5.661  0.00  0.00    -0.036 A 
ATOM     12  C   LIG    1       24.405 -28.574   5.383  0.00  0.00    +0.062 C 
ATOM     13  C   LIG    1       24.651 -26.100   4.786  0.00  0.00    +0.049 A 
ATOM     14  C   LIG    1       24.993 -24.806   5.171  0.00  0.00    +0.117 A 
ATOM     15  C   LIG    1       25.539 -24.557   6.422  0.00  0.00    +0.045 A 
ATOM     16  C   LIG    1       25.860 -25.629   7.250  0.00  0.00    +0.008 A 
ATOM     17  C   LIG    1       26.650 -27.838   8.957  0.00  0.00    +0.013 C 
ATOM     18  C   LIG    1       24.174 -29.370   6.670  0.00  0.00    -0.022 C 
ATOM     19  C   LIG    1       26.904 -29.022   9.869  0.00  0.00    +0.015 C 
ENDROOT
BRANCH  14  20
ATOM     20  O   LIG    1       24.775 -23.783   4.296  0.00  0.00    -0.507 OA
ATOM     21  H   LIG    1       25.536 -23.179   4.342  0.00  0.00    +0.292 HD
ENDBRANCH  14  20
TORSDOF 1
ENDMDL
MODEL 5
REMARK VINA RESULT:      -7.3      1.881      6.932
REMARK  Name = *****
REMARK                            x       y       z     vdW  Elec       q    Type
REMARK                         _______ _______ _______ _____ _____    ______ ____
ROOT
ATOM      1  C   LIG    1       30.330 -18.327   6.753  0.00  0.00    +0.019 C 
ATOM      2  C   LIG    1       29.266 -19.503   7.071  0.00  0.00    +0.033 C 
ATOM      3  C   LIG    1       30.582 -20.125   7.941  0.00  0.00    +0.140 C 
ATOM      4  O   LIG    1       31.808 -19.836   7.830  0.00  0.00    -0.297 OA
ATOM      5  C   LIG    1       30.286 -21.098   9.023  0.00  0.00    +0.075 C 
ATOM      6  C   LIG    1       28.906 -21.502   8.681  0.00  0.00    +0.016 C 
ATOM      7  C   LIG    1       28.762 -21.090   7.215  0.00  0.00    +0.029 C 
ATOM      8  C   LIG    1       27.355 -21.572   6.735  0.00  0.00    -0.062 C 
ATOM      9  C   LIG    1       26.761 -20.914   5.517  0.00  0.00    +0.045 C 
ATOM     10  C   LIG    1       25.230 -20.930   5.518  0.00  0.00    -0.037 A 
ATOM     11  C   LIG    1       24.607 -22.146   5.846  0.00  0.00    -0.036 A 
ATOM     12  C   LIG    1       25.470 -23.236   6.434  0.00  0.00    +0.062 C 
ATOM     13  C   LIG    1       23.231 -22.304   5.625  0.00  0.00    +0.049 A 
ATOM     14  C   LIG    1       22.469 -21.212   5.216  0.00  0.00    +0.117 A 
ATOM     15  C   LIG    1       23.048 -19.962   5.048  0.00  0.00    +0.045 A 
ATOM     16  C   LIG    1       24.428 -19.829   5.174  0.00  0.00    +0.008 A 
ATOM     17  C   LIG    1       27.311 -19.534   5.311  0.00  0.00    +0.013 C 
ATOM     18  C   LIG    1       26.686 -22.671   7.174  0.00  0.00    -0.022 C 
ATOM     19  C   LIG    1       28.804 -19.407   5.542  0.00  0.00    +0.015 C 
ENDROOT
BRANCH  14  20
ATOM     20  O   LIG    1       21.137 -21.392   4.987  0.00  0.00    -0.507 OA
ATOM     21  H   LIG    1       20.714 -20.516   4.959  0.00  0.00    +0.292 HD
ENDBRANCH  14  20
TORSDOF 1
ENDMDL
MODEL 6
REMARK VINA RESULT:      -6.9      1.989      3.559
REMARK  Name = *****
REMARK                            x       y       z     vdW  Elec       q    Type
REMARK                         _______ _______ _______ _____ _____    ______ ____
ROOT
ATOM      1  C   LIG    1       22.477 -21.363   4.836  0.00  0.00    +0.019 C 
ATOM      2  C   LIG    1       23.804 -21.832   5.632  0.00  0.00    +0.033 C 
ATOM      3  C   LIG    1       22.758 -23.055   6.165  0.00  0.00    +0.140 C 
ATOM      4  O   LIG    1       21.493 -23.071   6.154  0.00  0.00    -0.297 OA
ATOM      5  C   LIG    1       23.373 -24.312   6.663  0.00  0.00    +0.075 C 
ATOM      6  C   LIG    1       24.766 -23.878   6.900  0.00  0.00    +0.016 C 
ATOM      7  C   LIG    1       24.663 -22.353   6.968  0.00  0.00    +0.029 C 
ATOM      8  C   LIG    1       26.086 -21.809   7.317  0.00  0.00    -0.062 C 
ATOM      9  C   LIG    1       26.389 -20.369   6.995  0.00  0.00    +0.045 C 
ATOM     10  C   LIG    1       27.877 -20.117   6.733  0.00  0.00    -0.037 A 
ATOM     11  C   LIG    1       28.787 -20.681   7.643  0.00  0.00    -0.036 A 
ATOM     12  C   LIG    1       28.255 -21.703   8.619  0.00  0.00    +0.062 C 
ATOM     13  C   LIG    1       30.133 -20.290   7.613  0.00  0.00    +0.049 A 
ATOM     14  C   LIG    1       30.585 -19.454   6.594  0.00  0.00    +0.117 A 
ATOM     15  C   LIG    1       29.726 -19.023   5.593  0.00  0.00    +0.045 A 
ATOM     16  C   LIG    1       28.372 -19.333   5.678  0.00  0.00    +0.008 A 
ATOM     17  C   LIG    1       25.526 -19.858   5.879  0.00  0.00    +0.013 C 
ATOM     18  C   LIG    1       27.026 -22.435   8.074  0.00  0.00    -0.022 C 
ATOM     19  C   LIG    1       24.074 -20.289   5.956  0.00  0.00    +0.015 C 
ENDROOT
BRANCH  14  20
ATOM     20  O   LIG    1       31.893 -19.069   6.595  0.00  0.00    -0.507 OA
ATOM     21  H   LIG    1       31.935 -18.142   6.304  0.00  0.00    +0.292 HD
ENDBRANCH  14  20
TORSDOF 1
ENDMDL
MODEL 7
REMARK VINA RESULT:      -6.8      5.039      7.410
REMARK  Name = *****
REMARK                            x       y       z     vdW  Elec       q    Type
REMARK                         _______ _______ _______ _____ _____    ______ ____
ROOT
ATOM      1  C   LIG    1       25.365 -18.338   3.426  0.00  0.00    +0.019 C 
ATOM      2  C   LIG    1       24.362 -19.441   4.054  0.00  0.00    +0.033 C 
ATOM      3  C   LIG    1       23.321 -18.103   4.116  0.00  0.00    +0.140 C 
ATOM      4  O   LIG    1       23.614 -16.874   4.066  0.00  0.00    -0.297 OA
ATOM      5  C   LIG    1       21.863 -18.375   4.179  0.00  0.00    +0.075 C 
ATOM      6  C   LIG    1       21.850 -19.796   4.585  0.00  0.00    +0.016 C 
ATOM      7  C   LIG    1       23.250 -20.020   5.159  0.00  0.00    +0.029 C 
ATOM      8  C   LIG    1       23.296 -21.482   5.709  0.00  0.00    -0.062 C 
ATOM      9  C   LIG    1       24.646 -22.124   5.898  0.00  0.00    +0.045 C 
ATOM     10  C   LIG    1       24.604 -23.650   5.776  0.00  0.00    -0.037 A 
ATOM     11  C   LIG    1       23.576 -24.315   6.467  0.00  0.00    -0.036 A 
ATOM     12  C   LIG    1       22.455 -23.473   7.029  0.00  0.00    +0.062 C 
ATOM     13  C   LIG    1       23.622 -25.709   6.607  0.00  0.00    +0.049 A 
ATOM     14  C   LIG    1       24.606 -26.436   5.941  0.00  0.00    +0.117 A 
ATOM     15  C   LIG    1       25.527 -25.802   5.120  0.00  0.00    +0.045 A 
ATOM     16  C   LIG    1       25.541 -24.412   5.060  0.00  0.00    +0.008 A 
ATOM     17  C   LIG    1       25.678 -21.514   4.996  0.00  0.00    +0.013 C 
ATOM     18  C   LIG    1       22.254 -22.179   6.237  0.00  0.00    -0.022 C 
ATOM     19  C   LIG    1       25.607 -20.004   4.885  0.00  0.00    +0.015 C 
ENDROOT
BRANCH  14  20
ATOM     20  O   LIG    1       24.645 -27.789   6.107  0.00  0.00    -0.507 OA
ATOM     21  H   LIG    1       23.935 -28.038   6.723  0.00  0.00    +0.292 HD
ENDBRANCH  14  20
TORSDOF 1
ENDMDL
MODEL 8
REMARK VINA RESULT:      -6.5      9.329     10.695
REMARK  Name = *****
REMARK                            x       y       z     vdW  Elec       q    Type
REMARK                         _______ _______ _______ _____ _____    ______ ____
ROOT
ATOM      1  C   LIG    1       21.207 -30.861  10.610  0.00  0.00    +0.019 C 
ATOM      2  C   LIG    1       22.647 -30.130  10.528  0.00  0.00    +0.033 C 
ATOM      3  C   LIG    1       22.898 -31.298   9.323  0.00  0.00    +0.140 C 
ATOM      4  O   LIG    1       22.268 -32.377   9.128  0.00  0.00    -0.297 OA
ATOM      5  C   LIG    1       23.952 -31.023   8.314  0.00  0.00    +0.075 C 
ATOM      6  C   LIG    1       24.720 -29.950   8.982  0.00  0.00    +0.016 C 
ATOM      7  C   LIG    1       24.316 -30.079  10.451  0.00  0.00    +0.029 C 
ATOM      8  C   LIG    1       25.162 -29.039  11.255  0.00  0.00    -0.062 C 
ATOM      9  C   LIG    1       24.659 -28.618  12.612  0.00  0.00    +0.045 C 
ATOM     10  C   LIG    1       25.110 -27.208  13.003  0.00  0.00    -0.037 A 
ATOM     11  C   LIG    1       26.464 -26.893  12.796  0.00  0.00    -0.036 A 
ATOM     12  C   LIG    1       27.282 -27.848  11.960  0.00  0.00    +0.062 C 
ATOM     13  C   LIG    1       27.000 -25.724  13.355  0.00  0.00    +0.049 A 
ATOM     14  C   LIG    1       26.157 -24.816  13.991  0.00  0.00    +0.117 A 
ATOM     15  C   LIG    1       24.789 -25.039  14.056  0.00  0.00    +0.045 A 
ATOM     16  C   LIG    1       24.273 -26.243  13.587  0.00  0.00    +0.008 A 
ATOM     17  C   LIG    1       23.173 -28.787  12.727  0.00  0.00    +0.013 C 
ATOM     18  C   LIG    1       26.421 -28.620  10.957  0.00  0.00    -0.022 C 
ATOM     19  C   LIG    1       22.634 -30.070  12.126  0.00  0.00    +0.015 C 
ENDROOT
BRANCH  14  20
ATOM     20  O   LIG    1       26.701 -23.695  14.546  0.00  0.00    -0.507 OA
ATOM     21  H   LIG    1       27.639 -23.875  14.730  0.00  0.00    +0.292 HD
ENDBRANCH  14  20
TORSDOF 1
ENDMDL
MODEL 9
REMARK VINA RESULT:      -6.2      2.225      7.094
REMARK  Name = *****
REMARK                            x       y       z     vdW  Elec       q    Type
REMARK                         _______ _______ _______ _____ _____    ______ ____
ROOT
ATOM      1  C   LIG    1       29.975 -18.792   6.281  0.00  0.00    +0.019 C 
ATOM      2  C   LIG    1       28.570 -19.543   6.554  0.00  0.00    +0.033 C 
ATOM      3  C   LIG    1       29.546 -20.473   7.583  0.00  0.00    +0.140 C 
ATOM      4  O   LIG    1       30.805 -20.594   7.578  0.00  0.00    -0.297 OA
ATOM      5  C   LIG    1       28.872 -21.211   8.682  0.00  0.00    +0.075 C 
ATOM      6  C   LIG    1       27.466 -21.187   8.227  0.00  0.00    +0.016 C 
ATOM      7  C   LIG    1       27.575 -20.874   6.734  0.00  0.00    +0.029 C 
ATOM      8  C   LIG    1       26.128 -20.927   6.144  0.00  0.00    -0.062 C 
ATOM      9  C   LIG    1       25.872 -20.220   4.839  0.00  0.00    +0.045 C 
ATOM     10  C   LIG    1       24.420 -19.753   4.689  0.00  0.00    -0.037 A 
ATOM     11  C   LIG    1       23.417 -20.680   5.019  0.00  0.00    -0.036 A 
ATOM     12  C   LIG    1       23.838 -21.934   5.749  0.00  0.00    +0.062 C 
ATOM     13  C   LIG    1       22.085 -20.416   4.673  0.00  0.00    +0.049 A 
ATOM     14  C   LIG    1       21.746 -19.177   4.132  0.00  0.00    +0.117 A 
ATOM     15  C   LIG    1       22.706 -18.191   3.955  0.00  0.00    +0.045 A 
ATOM     16  C   LIG    1       24.042 -18.489   4.209  0.00  0.00    +0.008 A 
ATOM     17  C   LIG    1       26.848 -19.104   4.614  0.00  0.00    +0.013 C 
ATOM     18  C   LIG    1       25.110 -21.721   6.574  0.00  0.00    -0.022 C 
ATOM     19  C   LIG    1       28.281 -19.434   4.985  0.00  0.00    +0.015 C 
ENDROOT
BRANCH  14  20
ATOM     20  O   LIG    1       20.448 -18.948   3.783  0.00  0.00    -0.507 OA
ATOM     21  H   LIG    1       19.891 -19.595   4.249  0.00  0.00    +0.292 HD
ENDBRANCH  14  20
TORSDOF 1
ENDMDL
