MODEL 1
REMARK VINA RESULT:      -5.2      0.000      0.000
REMARK  Name = *****
REMARK                            x       y       z     vdW  Elec       q    Type
REMARK                         _______ _______ _______ _____ _____    ______ ____
ROOT
ATOM      1  C   LIG    1       26.287 -30.342   9.884  0.00  0.00    +0.080 C 
ENDROOT
BRANCH   1   3
ATOM      2  C   LIG    1       26.566 -28.417  11.508  0.00  0.00    +0.140 A 
ATOM      3  C   LIG    1       25.746 -29.432  10.978  0.00  0.00    +0.020 A 
ATOM      4  C   LIG    1       24.446 -29.576  11.516  0.00  0.00    +0.066 A 
ATOM      5 CL   LIG    1       23.398 -30.853  10.972  0.00  0.00    -0.082 Cl
ATOM      6  C   LIG    1       23.991 -28.693  12.517  0.00  0.00    +0.061 A 
ATOM      7 CL   LIG    1       22.404 -28.799  13.204  0.00  0.00    -0.082 Cl
ATOM      8  C   LIG    1       24.818 -27.680  13.005  0.00  0.00    +0.045 A 
ATOM      9  C   LIG    1       26.105 -27.549  12.504  0.00  0.00    +0.084 A 
ATOM     10 CL   LIG    1       27.131 -26.311  13.126  0.00  0.00    -0.080 Cl
BRANCH   2  11
ATOM     11  O   LIG    1       27.847 -28.292  11.033  0.00  0.00    -0.505 OA
ATOM     12  H   LIG    1       28.319 -29.129  11.211  0.00  0.00    +0.292 HD
ENDBRANCH   2  11
ENDBRANCH   1   3
BRANCH   1  13
ATOM     13  C   LIG    1       25.593 -30.228   8.533  0.00  0.00    +0.020 A 
ATOM     14  C   LIG    1       24.886 -31.305   7.947  0.00  0.00    +0.066 A 
ATOM     15 CL   LIG    1       24.782 -32.842   8.756  0.00  0.00    -0.082 Cl
ATOM     16  C   LIG    1       24.248 -31.142   6.701  0.00  0.00    +0.061 A 
ATOM     17 CL   LIG    1       23.367 -32.418   5.928  0.00  0.00    -0.082 Cl
ATOM     18  C   LIG    1       24.296 -29.920   6.027  0.00  0.00    +0.045 A 
ATOM     19  C   LIG    1       24.981 -28.855   6.598  0.00  0.00    +0.084 A 
ATOM     20 CL   LIG    1       25.036 -27.346   5.763  0.00  0.00    -0.080 Cl
ATOM     21  C   LIG    1       25.616 -29.005   7.835  0.00  0.00    +0.140 A 
BRANCH  21  22
ATOM     22  O   LIG    1       26.275 -27.941   8.397  0.00  0.00    -0.505 OA
ATOM     23  H   LIG    1       27.020 -27.704   7.812  0.00  0.00    +0.292 HD
ENDBRANCH  21  22
ENDBRANCH   1  13
TORSDOF 4
ENDMDL
MODEL 2
REMARK VINA RESULT:      -5.1      0.049      5.495
REMARK  Name = *****
REMARK                            x       y       z     vdW  Elec       q    Type
REMARK                         _______ _______ _______ _____ _____    ______ ____
ROOT
ATOM      1  C   LIG    1       26.265 -30.325   9.846  0.00  0.00    +0.080 C 
ENDROOT
BRANCH   1   3
ATOM      2  C   LIG    1       25.590 -28.995   7.797  0.00  0.00    +0.140 A 
ATOM      3  C   LIG    1       25.564 -30.216   8.499  0.00  0.00    +0.020 A 
ATOM      4  C   LIG    1       24.853 -31.293   7.920  0.00  0.00    +0.066 A 
ATOM      5 CL   LIG    1       24.706 -32.810   8.757  0.00  0.00    -0.082 Cl
ATOM      6  C   LIG    1       24.237 -31.141   6.661  0.00  0.00    +0.061 A 
ATOM      7 CL   LIG    1       23.369 -32.423   5.884  0.00  0.00    -0.082 Cl
ATOM      8  C   LIG    1       24.301 -29.925   5.977  0.00  0.00    +0.045 A 
ATOM      9  C   LIG    1       24.971 -28.854   6.550  0.00  0.00    +0.084 A 
ATOM     10 CL   LIG    1       25.030 -27.348   5.712  0.00  0.00    -0.080 Cl
BRANCH   2  11
ATOM     11  O   LIG    1       26.233 -27.925   8.365  0.00  0.00    -0.505 OA
ATOM     12  H   LIG    1       26.517 -28.183   9.263  0.00  0.00    +0.292 HD
ENDBRANCH   2  11
ENDBRANCH   1   3
BRANCH   1  13
ATOM     13  C   LIG    1       25.727 -29.415  10.941  0.00  0.00    +0.020 A 
ATOM     14  C   LIG    1       24.427 -29.560  11.482  0.00  0.00    +0.066 A 
ATOM     15 CL   LIG    1       23.360 -30.806  10.902  0.00  0.00    -0.082 Cl
ATOM     16  C   LIG    1       23.984 -28.700  12.507  0.00  0.00    +0.061 A 
ATOM     17 CL   LIG    1       22.406 -28.823  13.212  0.00  0.00    -0.082 Cl
ATOM     18  C   LIG    1       24.815 -27.698  13.009  0.00  0.00    +0.045 A 
ATOM     19  C   LIG    1       26.095 -27.552  12.490  0.00  0.00    +0.084 A 
ATOM     20 CL   LIG    1       27.120 -26.313  13.115  0.00  0.00    -0.080 Cl
ATOM     21  C   LIG    1       26.547 -28.402  11.474  0.00  0.00    +0.140 A 
BRANCH  21  22
ATOM     22  O   LIG    1       27.819 -28.259  10.981  0.00  0.00    -0.505 OA
ATOM     23  H   LIG    1       27.778 -28.345  10.010  0.00  0.00    +0.292 HD
ENDBRANCH  21  22
ENDBRANCH   1  13
TORSDOF 4
ENDMDL
MODEL 3
REMARK VINA RESULT:      -5.1      1.993      6.288
REMARK  Name = *****
REMARK                            x       y       z     vdW  Elec       q    Type
REMARK                         _______ _______ _______ _____ _____    ______ ____
ROOT
ATOM      1  C   LIG    1       25.784 -30.543   9.844  0.00  0.00    +0.080 C 
ENDROOT
BRANCH   1   3
ATOM      2  C   LIG    1       24.597 -31.445   7.795  0.00  0.00    +0.140 A 
ATOM      3  C   LIG    1       25.252 -30.371   8.429  0.00  0.00    +0.020 A 
ATOM      4  C   LIG    1       25.410 -29.172   7.695  0.00  0.00    +0.066 A 
ATOM      5 CL   LIG    1       26.275 -27.825   8.375  0.00  0.00    -0.082 Cl
ATOM      6  C   LIG    1       24.881 -29.062   6.393  0.00  0.00    +0.061 A 
ATOM      7 CL   LIG    1       25.020 -27.616   5.447  0.00  0.00    -0.082 Cl
ATOM      8  C   LIG    1       24.214 -30.136   5.800  0.00  0.00    +0.045 A 
ATOM      9  C   LIG    1       24.080 -31.326   6.500  0.00  0.00    +0.084 A 
ATOM     10 CL   LIG    1       23.275 -32.657   5.756  0.00  0.00    -0.080 Cl
BRANCH   2  11
ATOM     11  O   LIG    1       24.477 -32.632   8.471  0.00  0.00    -0.505 OA
ATOM     12  H   LIG    1       25.017 -32.574   9.283  0.00  0.00    +0.292 HD
ENDBRANCH   2  11
ENDBRANCH   1   3
BRANCH   1  13
ATOM     13  C   LIG    1       25.065 -29.738  10.918  0.00  0.00    +0.020 A 
ATOM     14  C   LIG    1       25.714 -28.742  11.686  0.00  0.00    +0.066 A 
ATOM     15 CL   LIG    1       27.400 -28.391  11.439  0.00  0.00    -0.082 Cl
ATOM     16  C   LIG    1       24.998 -28.014  12.657  0.00  0.00    +0.061 A 
ATOM     17 CL   LIG    1       25.731 -26.783  13.632  0.00  0.00    -0.082 Cl
ATOM     18  C   LIG    1       23.640 -28.256  12.875  0.00  0.00    +0.045 A 
ATOM     19  C   LIG    1       22.992 -29.227  12.122  0.00  0.00    +0.084 A 
ATOM     20 CL   LIG    1       21.314 -29.520  12.393  0.00  0.00    -0.080 Cl
ATOM     21  C   LIG    1       23.693 -29.953  11.153  0.00  0.00    +0.140 A 
BRANCH  21  22
ATOM     22  O   LIG    1       23.038 -30.897  10.403  0.00  0.00    -0.505 OA
ATOM     23  H   LIG    1       22.110 -30.610  10.300  0.00  0.00    +0.292 HD
ENDBRANCH  21  22
ENDBRANCH   1  13
TORSDOF 4
ENDMDL
MODEL 4
REMARK VINA RESULT:      -5.0      2.021      6.101
REMARK  Name = *****
REMARK                            x       y       z     vdW  Elec       q    Type
REMARK                         _______ _______ _______ _____ _____    ______ ____
ROOT
ATOM      1  C   LIG    1       25.805 -29.910  11.875  0.00  0.00    +0.080 C 
ENDROOT
BRANCH   1   3
ATOM      2  C   LIG    1       24.307 -31.329  10.405  0.00  0.00    +0.140 A 
ATOM      3  C   LIG    1       25.182 -30.232  10.524  0.00  0.00    +0.020 A 
ATOM      4  C   LIG    1       25.466 -29.487   9.356  0.00  0.00    +0.066 A 
ATOM      5 CL   LIG    1       26.596 -28.166   9.401  0.00  0.00    -0.082 Cl
ATOM      6  C   LIG    1       24.847 -29.819   8.134  0.00  0.00    +0.061 A 
ATOM      7 CL   LIG    1       25.132 -28.936   6.671  0.00  0.00    -0.082 Cl
ATOM      8  C   LIG    1       23.963 -30.897   8.052  0.00  0.00    +0.045 A 
ATOM      9  C   LIG    1       23.702 -31.653   9.185  0.00  0.00    +0.084 A 
ATOM     10 CL   LIG    1       22.627 -32.997   9.075  0.00  0.00    -0.080 Cl
BRANCH   2  11
ATOM     11  O   LIG    1       24.057 -32.094  11.515  0.00  0.00    -0.505 OA
ATOM     12  H   LIG    1       23.897 -33.012  11.221  0.00  0.00    +0.292 HD
ENDBRANCH   2  11
ENDBRANCH   1   3
BRANCH   1  13
ATOM     13  C   LIG    1       25.440 -28.552  12.459  0.00  0.00    +0.020 A 
ATOM     14  C   LIG    1       24.106 -28.181  12.750  0.00  0.00    +0.066 A 
ATOM     15 CL   LIG    1       22.793 -29.279  12.441  0.00  0.00    -0.082 Cl
ATOM     16  C   LIG    1       23.825 -26.916  13.305  0.00  0.00    +0.061 A 
ATOM     17 CL   LIG    1       22.215 -26.399  13.684  0.00  0.00    -0.082 Cl
ATOM     18  C   LIG    1       24.852 -26.012  13.581  0.00  0.00    +0.045 A 
ATOM     19  C   LIG    1       26.166 -26.369  13.305  0.00  0.00    +0.084 A 
ATOM     20 CL   LIG    1       27.432 -25.250  13.651  0.00  0.00    -0.080 Cl
ATOM     21  C   LIG    1       26.457 -27.623  12.757  0.00  0.00    +0.140 A 
BRANCH  21  22
ATOM     22  O   LIG    1       27.760 -27.972  12.506  0.00  0.00    -0.505 OA
ATOM     23  H   LIG    1       28.282 -27.151  12.427  0.00  0.00    +0.292 HD
ENDBRANCH  21  22
ENDBRANCH   1  13
TORSDOF 4
ENDMDL
MODEL 5
REMARK VINA RESULT:      -5.0      1.967      2.219
REMARK  Name = *****
REMARK                            x       y       z     vdW  Elec       q    Type
REMARK                         _______ _______ _______ _____ _____    ______ ____
ROOT
ATOM      1  C   LIG    1       24.591 -31.728   9.264  0.00  0.00    +0.080 C 
ENDROOT
BRANCH   1   3
ATOM      2  C   LIG    1       26.441 -30.524  10.510  0.00  0.00    +0.140 A 
ATOM      3  C   LIG    1       25.061 -30.707  10.292  0.00  0.00    +0.020 A 
ATOM      4  C   LIG    1       24.164 -29.941  11.071  0.00  0.00    +0.066 A 
ATOM      5 CL   LIG    1       22.446 -30.163  10.920  0.00  0.00    -0.082 Cl
ATOM      6  C   LIG    1       24.656 -28.997  11.996  0.00  0.00    +0.061 A 
ATOM      7 CL   LIG    1       23.614 -28.010  12.967  0.00  0.00    -0.082 Cl
ATOM      8  C   LIG    1       26.030 -28.819  12.172  0.00  0.00    +0.045 A 
ATOM      9  C   LIG    1       26.918 -29.587  11.434  0.00  0.00    +0.084 A 
ATOM     10 CL   LIG    1       28.613 -29.380  11.670  0.00  0.00    -0.080 Cl
BRANCH   2  11
ATOM     11  O   LIG    1       27.326 -31.293   9.798  0.00  0.00    -0.505 OA
ATOM     12  H   LIG    1       27.185 -32.227  10.048  0.00  0.00    +0.292 HD
ENDBRANCH   2  11
ENDBRANCH   1   3
BRANCH   1  13
ATOM     13  C   LIG    1       25.015 -31.456   7.828  0.00  0.00    +0.020 A 
ATOM     14  C   LIG    1       25.833 -32.347   7.093  0.00  0.00    +0.066 A 
ATOM     15 CL   LIG    1       26.408 -33.822   7.815  0.00  0.00    -0.082 Cl
ATOM     16  C   LIG    1       26.183 -32.055   5.760  0.00  0.00    +0.061 A 
ATOM     17 CL   LIG    1       27.180 -33.103   4.805  0.00  0.00    -0.082 Cl
ATOM     18  C   LIG    1       25.729 -30.890   5.140  0.00  0.00    +0.045 A 
ATOM     19  C   LIG    1       24.920 -30.012   5.850  0.00  0.00    +0.084 A 
ATOM     20 CL   LIG    1       24.360 -28.574   5.079  0.00  0.00    -0.080 Cl
ATOM     21  C   LIG    1       24.564 -30.293   7.173  0.00  0.00    +0.140 A 
BRANCH  21  22
ATOM     22  O   LIG    1       23.750 -29.427   7.859  0.00  0.00    -0.505 OA
ATOM     23  H   LIG    1       24.152 -28.538   7.817  0.00  0.00    +0.292 HD
ENDBRANCH  21  22
ENDBRANCH   1  13
TORSDOF 4
ENDMDL
MODEL 6
REMARK VINA RESULT:      -5.0      1.998      3.631
REMARK  Name = *****
REMARK                            x       y       z     vdW  Elec       q    Type
REMARK                         _______ _______ _______ _____ _____    ______ ____
ROOT
ATOM      1  C   LIG    1       25.737 -30.534   9.900  0.00  0.00    +0.080 C 
ENDROOT
BRANCH   1   3
ATOM      2  C   LIG    1       23.648 -29.887  11.180  0.00  0.00    +0.140 A 
ATOM      3  C   LIG    1       25.025 -29.697  10.953  0.00  0.00    +0.020 A 
ATOM      4  C   LIG    1       25.685 -28.700  11.709  0.00  0.00    +0.066 A 
ATOM      5 CL   LIG    1       27.366 -28.348  11.435  0.00  0.00    -0.082 Cl
ATOM      6  C   LIG    1       24.980 -27.966  12.684  0.00  0.00    +0.061 A 
ATOM      7 CL   LIG    1       25.730 -26.747  13.660  0.00  0.00    -0.082 Cl
ATOM      8  C   LIG    1       23.620 -28.195  12.905  0.00  0.00    +0.045 A 
ATOM      9  C   LIG    1       22.957 -29.149  12.147  0.00  0.00    +0.084 A 
ATOM     10 CL   LIG    1       21.273 -29.414  12.407  0.00  0.00    -0.080 Cl
BRANCH   2  11
ATOM     11  O   LIG    1       22.980 -30.815  10.422  0.00  0.00    -0.505 OA
ATOM     12  H   LIG    1       22.447 -31.370  11.024  0.00  0.00    +0.292 HD
ENDBRANCH   2  11
ENDBRANCH   1   3
BRANCH   1  13
ATOM     13  C   LIG    1       25.201 -30.400   8.482  0.00  0.00    +0.020 A 
ATOM     14  C   LIG    1       25.368 -29.225   7.711  0.00  0.00    +0.066 A 
ATOM     15 CL   LIG    1       26.206 -27.848   8.366  0.00  0.00    -0.082 Cl
ATOM     16  C   LIG    1       24.865 -29.160   6.396  0.00  0.00    +0.061 A 
ATOM     17 CL   LIG    1       25.035 -27.752   5.400  0.00  0.00    -0.082 Cl
ATOM     18  C   LIG    1       24.199 -30.248   5.830  0.00  0.00    +0.045 A 
ATOM     19  C   LIG    1       24.036 -31.409   6.575  0.00  0.00    +0.084 A 
ATOM     20 CL   LIG    1       23.216 -32.753   5.870  0.00  0.00    -0.080 Cl
ATOM     21  C   LIG    1       24.534 -31.486   7.881  0.00  0.00    +0.140 A 
BRANCH  21  22
ATOM     22  O   LIG    1       24.382 -32.644   8.601  0.00  0.00    -0.505 OA
ATOM     23  H   LIG    1       23.790 -33.236   8.099  0.00  0.00    +0.292 HD
ENDBRANCH  21  22
ENDBRANCH   1  13
TORSDOF 4
ENDMDL
MODEL 7
REMARK VINA RESULT:      -5.0      1.967      6.121
REMARK  Name = *****
REMARK                            x       y       z     vdW  Elec       q    Type
REMARK                         _______ _______ _______ _____ _____    ______ ____
ROOT
ATOM      1  C   LIG    1       24.651 -31.702   9.349  0.00  0.00    +0.080 C 
ENDROOT
BRANCH   1   3
ATOM      2  C   LIG    1       24.583 -30.312   7.231  0.00  0.00    +0.140 A 
ATOM      3  C   LIG    1       25.057 -31.456   7.902  0.00  0.00    +0.020 A 
ATOM      4  C   LIG    1       25.880 -32.350   7.178  0.00  0.00    +0.066 A 
ATOM      5 CL   LIG    1       26.443 -33.825   7.908  0.00  0.00    -0.082 Cl
ATOM      6  C   LIG    1       26.239 -32.063   5.846  0.00  0.00    +0.061 A 
ATOM      7 CL   LIG    1       27.260 -33.103   4.909  0.00  0.00    -0.082 Cl
ATOM      8  C   LIG    1       25.774 -30.907   5.215  0.00  0.00    +0.045 A 
ATOM      9  C   LIG    1       24.942 -30.039   5.906  0.00  0.00    +0.084 A 
ATOM     10 CL   LIG    1       24.353 -28.625   5.116  0.00  0.00    -0.080 Cl
BRANCH   2  11
ATOM     11  O   LIG    1       23.744 -29.458   7.901  0.00  0.00    -0.505 OA
ATOM     12  H   LIG    1       24.291 -28.779   8.341  0.00  0.00    +0.292 HD
ENDBRANCH   2  11
ENDBRANCH   1   3
BRANCH   1  13
ATOM     13  C   LIG    1       25.121 -30.656  10.350  0.00  0.00    +0.020 A 
ATOM     14  C   LIG    1       24.222 -29.871  11.110  0.00  0.00    +0.066 A 
ATOM     15 CL   LIG    1       22.503 -30.065  10.927  0.00  0.00    -0.082 Cl
ATOM     16  C   LIG    1       24.710 -28.927  12.035  0.00  0.00    +0.061 A 
ATOM     17 CL   LIG    1       23.665 -27.934  12.997  0.00  0.00    -0.082 Cl
ATOM     18  C   LIG    1       26.083 -28.752  12.222  0.00  0.00    +0.045 A 
ATOM     19  C   LIG    1       26.974 -29.522  11.485  0.00  0.00    +0.084 A 
ATOM     20 CL   LIG    1       28.668 -29.304  11.721  0.00  0.00    -0.080 Cl
ATOM     21  C   LIG    1       26.500 -30.465  10.566  0.00  0.00    +0.140 A 
BRANCH  21  22
ATOM     22  O   LIG    1       27.389 -31.232   9.857  0.00  0.00    -0.505 OA
ATOM     23  H   LIG    1       27.166 -31.155   8.910  0.00  0.00    +0.292 HD
ENDBRANCH  21  22
ENDBRANCH   1  13
TORSDOF 4
ENDMDL
MODEL 8
REMARK VINA RESULT:      -5.0      1.978      3.067
REMARK  Name = *****
REMARK                            x       y       z     vdW  Elec       q    Type
REMARK                         _______ _______ _______ _____ _____    ______ ____
ROOT
ATOM      1  C   LIG    1       25.839 -29.924  11.714  0.00  0.00    +0.080 C 
ENDROOT
BRANCH   1   3
ATOM      2  C   LIG    1       26.485 -27.658  12.647  0.00  0.00    +0.140 A 
ATOM      3  C   LIG    1       25.472 -28.590  12.350  0.00  0.00    +0.020 A 
ATOM      4  C   LIG    1       24.142 -28.247  12.689  0.00  0.00    +0.066 A 
ATOM      5 CL   LIG    1       22.843 -29.373  12.428  0.00  0.00    -0.082 Cl
ATOM      6  C   LIG    1       23.857 -26.990  13.260  0.00  0.00    +0.061 A 
ATOM      7 CL   LIG    1       22.250 -26.497  13.679  0.00  0.00    -0.082 Cl
ATOM      8  C   LIG    1       24.880 -26.076  13.519  0.00  0.00    +0.045 A 
ATOM      9  C   LIG    1       26.191 -26.415  13.219  0.00  0.00    +0.084 A 
ATOM     10 CL   LIG    1       27.454 -25.291  13.560  0.00  0.00    -0.080 Cl
BRANCH   2  11
ATOM     11  O   LIG    1       27.786 -27.992  12.371  0.00  0.00    -0.505 OA
ATOM     12  H   LIG    1       28.362 -27.290  12.731  0.00  0.00    +0.292 HD
ENDBRANCH   2  11
ENDBRANCH   1   3
BRANCH   1  13
ATOM     13  C   LIG    1       25.194 -30.207  10.365  0.00  0.00    +0.020 A 
ATOM     14  C   LIG    1       25.468 -29.434   9.212  0.00  0.00    +0.066 A 
ATOM     15 CL   LIG    1       26.572 -28.091   9.287  0.00  0.00    -0.082 Cl
ATOM     16  C   LIG    1       24.856 -29.749   7.982  0.00  0.00    +0.061 A 
ATOM     17 CL   LIG    1       25.147 -28.844   6.534  0.00  0.00    -0.082 Cl
ATOM     18  C   LIG    1       23.975 -30.827   7.878  0.00  0.00    +0.045 A 
ATOM     19  C   LIG    1       23.705 -31.597   9.002  0.00  0.00    +0.084 A 
ATOM     20 CL   LIG    1       22.619 -32.930   8.867  0.00  0.00    -0.080 Cl
ATOM     21  C   LIG    1       24.310 -31.295  10.227  0.00  0.00    +0.140 A 
BRANCH  21  22
ATOM     22  O   LIG    1       24.049 -32.073  11.326  0.00  0.00    -0.505 OA
ATOM     23  H   LIG    1       23.702 -31.493  12.031  0.00  0.00    +0.292 HD
ENDBRANCH  21  22
ENDBRANCH   1  13
TORSDOF 4
ENDMDL
MODEL 9
REMARK VINA RESULT:      -5.0      1.282      2.546
REMARK  Name = *****
REMARK                            x       y       z     vdW  Elec       q    Type
REMARK                         _______ _______ _______ _____ _____    ______ ____
ROOT
ATOM      1  C   LIG    1       26.116 -30.479   9.592  0.00  0.00    +0.080 C 
ENDROOT
BRANCH   1   3
ATOM      2  C   LIG    1       26.475 -28.722  11.383  0.00  0.00    +0.140 A 
ATOM      3  C   LIG    1       25.600 -29.618  10.737  0.00  0.00    +0.020 A 
ATOM      4  C   LIG    1       24.269 -29.694  11.209  0.00  0.00    +0.066 A 
ATOM      5 CL   LIG    1       23.148 -30.830  10.518  0.00  0.00    -0.082 Cl
ATOM      6  C   LIG    1       23.841 -28.859  12.261  0.00  0.00    +0.061 A 
ATOM      7 CL   LIG    1       22.220 -28.885  12.873  0.00  0.00    -0.082 Cl
ATOM      8  C   LIG    1       24.724 -27.962  12.865  0.00  0.00    +0.045 A 
ATOM      9  C   LIG    1       26.039 -27.902  12.430  0.00  0.00    +0.084 A 
ATOM     10 CL   LIG    1       27.132 -26.808  13.193  0.00  0.00    -0.080 Cl
BRANCH   2  11
ATOM     11  O   LIG    1       27.782 -28.669  10.972  0.00  0.00    -0.505 OA
ATOM     12  H   LIG    1       28.224 -27.947  11.460  0.00  0.00    +0.292 HD
ENDBRANCH   2  11
ENDBRANCH   1   3
BRANCH   1  13
ATOM     13  C   LIG    1       25.382 -30.320   8.268  0.00  0.00    +0.020 A 
ATOM     14  C   LIG    1       25.338 -29.093   7.564  0.00  0.00    +0.066 A 
ATOM     15 CL   LIG    1       26.132 -27.680   8.196  0.00  0.00    -0.082 Cl
ATOM     16  C   LIG    1       24.657 -29.005   6.333  0.00  0.00    +0.061 A 
ATOM     17 CL   LIG    1       24.565 -27.535   5.420  0.00  0.00    -0.082 Cl
ATOM     18  C   LIG    1       24.021 -30.120   5.786  0.00  0.00    +0.045 A 
ATOM     19  C   LIG    1       24.064 -31.330   6.466  0.00  0.00    +0.084 A 
ATOM     20 CL   LIG    1       23.279 -32.706   5.784  0.00  0.00    -0.080 Cl
ATOM     21  C   LIG    1       24.740 -31.431   7.687  0.00  0.00    +0.140 A 
BRANCH  21  22
ATOM     22  O   LIG    1       24.790 -32.635   8.341  0.00  0.00    -0.505 OA
ATOM     23  H   LIG    1       25.539 -32.608   8.967  0.00  0.00    +0.292 HD
ENDBRANCH  21  22
ENDBRANCH   1  13
TORSDOF 4
ENDMDL
