MODEL 1
REMARK VINA RESULT:      -8.9      0.000      0.000
REMARK  Name = *****
REMARK                            x       y       z     vdW  Elec       q    Type
REMARK                         _______ _______ _______ _____ _____    ______ ____
ROOT
ATOM      1  C   LIG    1       25.707 -21.552   6.074  0.00  0.00    +0.106 C 
ENDROOT
BRANCH   1   5
ATOM      2  C   LIG    1       29.629 -19.866   6.984  0.00  0.00    +0.008 A 
ATOM      3  C   LIG    1       29.119 -20.884   7.708  0.00  0.00    +0.015 A 
ATOM      4  C   LIG    1       27.807 -21.318   7.509  0.00  0.00    +0.006 A 
ATOM      5  C   LIG    1       27.036 -20.884   6.407  0.00  0.00    -0.030 A 
ATOM      6  C   LIG    1       27.564 -19.846   5.672  0.00  0.00    +0.006 A 
ATOM      7  C   LIG    1       28.835 -19.316   5.955  0.00  0.00    +0.015 A 
BRANCH   2   8
ATOM      8  S   LIG    1       31.212 -19.192   7.424  0.00  0.00    -0.125 S 
BRANCH   8   9
ATOM      9  C   LIG    1       30.945 -18.957   9.222  0.00  0.00    +0.074 C 
BRANCH   9  10
ATOM     10  C   LIG    1       30.090 -17.744   9.592  0.00  0.00    +0.011 C 
BRANCH  10  12
ATOM     11  C   LIG    1       32.283 -17.052  10.620  0.00  0.00    +0.004 C 
ATOM     12  C   LIG    1       30.804 -16.730  10.492  0.00  0.00    -0.003 C 
ENDBRANCH  10  12
ENDBRANCH   9  10
ENDBRANCH   8   9
ENDBRANCH   2   8
ENDBRANCH   1   5
BRANCH   1  13
ATOM     13  C   LIG    1       24.668 -20.671   5.393  0.00  0.00    -0.030 A 
ATOM     14  C   LIG    1       24.898 -20.073   4.143  0.00  0.00    +0.005 A 
ATOM     15  C   LIG    1       23.978 -19.215   3.553  0.00  0.00    +0.000 A 
ATOM     16  C   LIG    1       22.799 -18.917   4.215  0.00  0.00    +0.000 A 
ATOM     17  C   LIG    1       22.519 -19.524   5.437  0.00  0.00    +0.000 A 
ATOM     18  C   LIG    1       23.437 -20.410   6.014  0.00  0.00    +0.005 A 
ENDBRANCH   1  13
BRANCH   1  19
ATOM     19  S   LIG    1       24.966 -22.654   7.405  0.00  0.00    -0.147 S 
BRANCH  19  20
ATOM     20  C   LIG    1       24.259 -24.134   6.540  0.00  0.00    +0.085 C 
BRANCH  20  21
ATOM     21  C   LIG    1       25.124 -24.601   5.356  0.00  0.00    +0.094 C 
BRANCH  21  22
ATOM     22  N   LIG    1       26.007 -25.778   5.505  0.00  0.00    -0.308 NA
ATOM     23  C   LIG    1       25.831 -26.866   4.546  0.00  0.00    +0.104 C 
ATOM     24  C   LIG    1       25.930 -26.298   6.881  0.00  0.00    +0.104 C 
ENDBRANCH  21  22
ENDBRANCH  20  21
ENDBRANCH  19  20
ENDBRANCH   1  19
TORSDOF 10
ENDMDL
MODEL 2
REMARK VINA RESULT:      -8.8      2.594      7.037
REMARK  Name = *****
REMARK                            x       y       z     vdW  Elec       q    Type
REMARK                         _______ _______ _______ _____ _____    ______ ____
ROOT
ATOM      1  C   LIG    1       24.545 -21.965   7.230  0.00  0.00    +0.106 C 
ENDROOT
BRANCH   1   5
ATOM      2  C   LIG    1       25.126 -26.115   6.010  0.00  0.00    +0.008 A 
ATOM      3  C   LIG    1       23.898 -25.558   6.037  0.00  0.00    +0.015 A 
ATOM      4  C   LIG    1       23.700 -24.283   6.570  0.00  0.00    +0.006 A 
ATOM      5  C   LIG    1       24.782 -23.431   6.886  0.00  0.00    -0.030 A 
ATOM      6  C   LIG    1       26.033 -24.005   6.855  0.00  0.00    +0.006 A 
ATOM      7  C   LIG    1       26.221 -25.336   6.444  0.00  0.00    +0.015 A 
BRANCH   2   8
ATOM      8  S   LIG    1       25.299 -27.820   5.545  0.00  0.00    -0.125 S 
BRANCH   8   9
ATOM      9  C   LIG    1       24.424 -28.602   6.951  0.00  0.00    +0.074 C 
BRANCH   9  10
ATOM     10  C   LIG    1       25.335 -29.259   7.990  0.00  0.00    +0.011 C 
BRANCH  10  12
ATOM     11  C   LIG    1       26.847 -28.888   9.970  0.00  0.00    +0.004 C 
ATOM     12  C   LIG    1       26.276 -28.281   8.700  0.00  0.00    -0.003 C 
ENDBRANCH  10  12
ENDBRANCH   9  10
ENDBRANCH   8   9
ENDBRANCH   2   8
ENDBRANCH   1   5
BRANCH   1  13
ATOM     13  C   LIG    1       24.120 -21.066   6.076  0.00  0.00    -0.030 A 
ATOM     14  C   LIG    1       24.872 -20.963   4.894  0.00  0.00    +0.005 A 
ATOM     15  C   LIG    1       24.521 -20.092   3.869  0.00  0.00    +0.000 A 
ATOM     16  C   LIG    1       23.409 -19.282   4.011  0.00  0.00    +0.000 A 
ATOM     17  C   LIG    1       22.617 -19.387   5.152  0.00  0.00    +0.000 A 
ATOM     18  C   LIG    1       22.958 -20.286   6.170  0.00  0.00    +0.005 A 
ENDBRANCH   1  13
BRANCH   1  19
ATOM     19  S   LIG    1       25.814 -21.152   8.355  0.00  0.00    -0.147 S 
BRANCH  19  20
ATOM     20  C   LIG    1       27.153 -20.489   7.257  0.00  0.00    +0.085 C 
BRANCH  20  21
ATOM     21  C   LIG    1       28.490 -21.229   7.436  0.00  0.00    +0.094 C 
BRANCH  21  22
ATOM     22  N   LIG    1       29.630 -20.547   8.087  0.00  0.00    -0.308 NA
ATOM     23  C   LIG    1       30.432 -19.652   7.256  0.00  0.00    +0.104 C 
ATOM     24  C   LIG    1       30.497 -21.533   8.754  0.00  0.00    +0.104 C 
ENDBRANCH  21  22
ENDBRANCH  20  21
ENDBRANCH  19  20
ENDBRANCH   1  19
TORSDOF 10
ENDMDL
MODEL 3
REMARK VINA RESULT:      -8.7      2.637      7.178
REMARK  Name = *****
REMARK                            x       y       z     vdW  Elec       q    Type
REMARK                         _______ _______ _______ _____ _____    ______ ____
ROOT
ATOM      1  C   LIG    1       24.560 -21.510   7.265  0.00  0.00    +0.106 C 
ENDROOT
BRANCH   1   5
ATOM      2  C   LIG    1       24.775 -25.745   6.232  0.00  0.00    +0.008 A 
ATOM      3  C   LIG    1       23.598 -25.087   6.247  0.00  0.00    +0.015 A 
ATOM      4  C   LIG    1       23.515 -23.777   6.721  0.00  0.00    +0.006 A 
ATOM      5  C   LIG    1       24.669 -23.005   6.986  0.00  0.00    -0.030 A 
ATOM      6  C   LIG    1       25.867 -23.683   6.968  0.00  0.00    +0.006 A 
ATOM      7  C   LIG    1       25.937 -25.042   6.617  0.00  0.00    +0.015 A 
BRANCH   2   8
ATOM      8  S   LIG    1       24.799 -27.478   5.844  0.00  0.00    -0.125 S 
BRANCH   8   9
ATOM      9  C   LIG    1       25.603 -28.111   7.364  0.00  0.00    +0.074 C 
BRANCH   9  10
ATOM     10  C   LIG    1       24.931 -29.337   7.984  0.00  0.00    +0.011 C 
BRANCH  10  12
ATOM     11  C   LIG    1       26.742 -29.002   9.702  0.00  0.00    +0.004 C 
ATOM     12  C   LIG    1       25.729 -29.976   9.125  0.00  0.00    -0.003 C 
ENDBRANCH  10  12
ENDBRANCH   9  10
ENDBRANCH   8   9
ENDBRANCH   2   8
ENDBRANCH   1   5
BRANCH   1  13
ATOM     13  C   LIG    1       24.196 -20.632   6.074  0.00  0.00    -0.030 A 
ATOM     14  C   LIG    1       22.938 -20.017   5.956  0.00  0.00    +0.005 A 
ATOM     15  C   LIG    1       22.582 -19.272   4.838  0.00  0.00    +0.000 A 
ATOM     16  C   LIG    1       23.478 -19.138   3.792  0.00  0.00    +0.000 A 
ATOM     17  C   LIG    1       24.749 -19.700   3.893  0.00  0.00    +0.000 A 
ATOM     18  C   LIG    1       25.113 -20.426   5.033  0.00  0.00    +0.005 A 
ENDBRANCH   1  13
BRANCH   1  19
ATOM     19  S   LIG    1       25.908 -20.757   8.338  0.00  0.00    -0.147 S 
BRANCH  19  20
ATOM     20  C   LIG    1       27.380 -20.497   7.241  0.00  0.00    +0.085 C 
BRANCH  20  21
ATOM     21  C   LIG    1       28.614 -21.293   7.702  0.00  0.00    +0.094 C 
BRANCH  21  22
ATOM     22  N   LIG    1       29.811 -20.578   8.197  0.00  0.00    -0.308 NA
ATOM     23  C   LIG    1       30.532 -19.746   7.237  0.00  0.00    +0.104 C 
ATOM     24  C   LIG    1       30.735 -21.525   8.843  0.00  0.00    +0.104 C 
ENDBRANCH  21  22
ENDBRANCH  20  21
ENDBRANCH  19  20
ENDBRANCH   1  19
TORSDOF 10
ENDMDL
MODEL 4
REMARK VINA RESULT:      -7.9      1.865      4.644
REMARK  Name = *****
REMARK                            x       y       z     vdW  Elec       q    Type
REMARK                         _______ _______ _______ _____ _____    ______ ____
ROOT
ATOM      1  C   LIG    1       25.159 -22.564   7.271  0.00  0.00    +0.106 C 
ENDROOT
BRANCH   1   5
ATOM      2  C   LIG    1       28.698 -20.079   6.681  0.00  0.00    +0.008 A 
ATOM      3  C   LIG    1       28.624 -20.961   7.698  0.00  0.00    +0.015 A 
ATOM      4  C   LIG    1       27.436 -21.642   7.971  0.00  0.00    +0.006 A 
ATOM      5  C   LIG    1       26.342 -21.623   7.076  0.00  0.00    -0.030 A 
ATOM      6  C   LIG    1       26.426 -20.721   6.039  0.00  0.00    +0.006 A 
ATOM      7  C   LIG    1       27.574 -19.935   5.839  0.00  0.00    +0.015 A 
BRANCH   2   8
ATOM      8  S   LIG    1       30.146 -19.064   6.513  0.00  0.00    -0.125 S 
BRANCH   8   9
ATOM      9  C   LIG    1       30.787 -19.175   8.225  0.00  0.00    +0.074 C 
BRANCH   9  10
ATOM     10  C   LIG    1       31.939 -18.219   8.544  0.00  0.00    +0.011 C 
BRANCH  10  12
ATOM     11  C   LIG    1       30.342 -17.390  10.307  0.00  0.00    +0.004 C 
ATOM     12  C   LIG    1       31.799 -17.503   9.890  0.00  0.00    -0.003 C 
ENDBRANCH  10  12
ENDBRANCH   9  10
ENDBRANCH   8   9
ENDBRANCH   2   8
ENDBRANCH   1   5
BRANCH   1  13
ATOM     13  C   LIG    1       25.274 -23.930   6.609  0.00  0.00    -0.030 A 
ATOM     14  C   LIG    1       25.755 -25.057   7.297  0.00  0.00    +0.005 A 
ATOM     15  C   LIG    1       25.924 -26.287   6.674  0.00  0.00    +0.000 A 
ATOM     16  C   LIG    1       25.630 -26.418   5.329  0.00  0.00    +0.000 A 
ATOM     17  C   LIG    1       25.113 -25.333   4.624  0.00  0.00    +0.000 A 
ATOM     18  C   LIG    1       24.917 -24.103   5.263  0.00  0.00    +0.005 A 
ENDBRANCH   1  13
BRANCH   1  19
ATOM     19  S   LIG    1       23.447 -21.807   7.083  0.00  0.00    -0.147 S 
BRANCH  19  20
ATOM     20  C   LIG    1       23.289 -21.277   5.314  0.00  0.00    +0.085 C 
BRANCH  20  21
ATOM     21  C   LIG    1       22.372 -20.054   5.138  0.00  0.00    +0.094 C 
BRANCH  21  22
ATOM     22  N   LIG    1       22.697 -19.027   4.124  0.00  0.00    -0.308 NA
ATOM     23  C   LIG    1       24.077 -18.976   3.649  0.00  0.00    +0.104 C 
ATOM     24  C   LIG    1       22.273 -17.697   4.595  0.00  0.00    +0.104 C 
ENDBRANCH  21  22
ENDBRANCH  20  21
ENDBRANCH  19  20
ENDBRANCH   1  19
TORSDOF 10
ENDMDL
MODEL 5
REMARK VINA RESULT:      -7.3      2.973      7.947
REMARK  Name = *****
REMARK                            x       y       z     vdW  Elec       q    Type
REMARK                         _______ _______ _______ _____ _____    ______ ____
ROOT
ATOM      1  C   LIG    1       25.317 -21.952   6.271  0.00  0.00    +0.106 C 
ENDROOT
BRANCH   1   5
ATOM      2  C   LIG    1       25.509 -26.267   5.643  0.00  0.00    +0.008 A 
ATOM      3  C   LIG    1       25.093 -25.435   4.666  0.00  0.00    +0.015 A 
ATOM      4  C   LIG    1       24.891 -24.077   4.919  0.00  0.00    +0.006 A 
ATOM      5  C   LIG    1       25.324 -23.469   6.119  0.00  0.00    -0.030 A 
ATOM      6  C   LIG    1       25.749 -24.324   7.111  0.00  0.00    +0.006 A 
ATOM      7  C   LIG    1       25.828 -25.712   6.901  0.00  0.00    +0.015 A 
BRANCH   2   8
ATOM      8  S   LIG    1       25.528 -28.018   5.346  0.00  0.00    -0.125 S 
BRANCH   8   9
ATOM      9  C   LIG    1       24.366 -28.554   6.656  0.00  0.00    +0.074 C 
BRANCH   9  10
ATOM     10  C   LIG    1       25.008 -29.337   7.804  0.00  0.00    +0.011 C 
BRANCH  10  12
ATOM     11  C   LIG    1       24.077 -30.123  10.008  0.00  0.00    +0.004 C 
ATOM     12  C   LIG    1       24.056 -30.313   8.501  0.00  0.00    -0.003 C 
ENDBRANCH  10  12
ENDBRANCH   9  10
ENDBRANCH   8   9
ENDBRANCH   2   8
ENDBRANCH   1   5
BRANCH   1  13
ATOM     13  C   LIG    1       26.668 -21.299   6.528  0.00  0.00    -0.030 A 
ATOM     14  C   LIG    1       27.161 -20.259   5.721  0.00  0.00    +0.005 A 
ATOM     15  C   LIG    1       28.423 -19.709   5.913  0.00  0.00    +0.000 A 
ATOM     16  C   LIG    1       29.239 -20.203   6.915  0.00  0.00    +0.000 A 
ATOM     17  C   LIG    1       28.768 -21.206   7.760  0.00  0.00    +0.000 A 
ATOM     18  C   LIG    1       27.485 -21.737   7.581  0.00  0.00    +0.005 A 
ENDBRANCH   1  13
BRANCH   1  19
ATOM     19  S   LIG    1       23.944 -21.222   7.330  0.00  0.00    -0.147 S 
BRANCH  19  20
ATOM     20  C   LIG    1       22.828 -20.285   6.185  0.00  0.00    +0.085 C 
BRANCH  20  21
ATOM     21  C   LIG    1       23.250 -20.407   4.710  0.00  0.00    +0.094 C 
BRANCH  21  22
ATOM     22  N   LIG    1       23.258 -19.208   3.843  0.00  0.00    -0.308 NA
ATOM     23  C   LIG    1       24.558 -18.607   3.553  0.00  0.00    +0.104 C 
ATOM     24  C   LIG    1       22.337 -18.190   4.377  0.00  0.00    +0.104 C 
ENDBRANCH  21  22
ENDBRANCH  20  21
ENDBRANCH  19  20
ENDBRANCH   1  19
TORSDOF 10
ENDMDL
MODEL 6
REMARK VINA RESULT:      -7.2      1.124      1.718
REMARK  Name = *****
REMARK                            x       y       z     vdW  Elec       q    Type
REMARK                         _______ _______ _______ _____ _____    ______ ____
ROOT
ATOM      1  C   LIG    1       25.268 -21.399   5.914  0.00  0.00    +0.106 C 
ENDROOT
BRANCH   1   5
ATOM      2  C   LIG    1       29.326 -19.898   6.487  0.00  0.00    +0.008 A 
ATOM      3  C   LIG    1       28.843 -20.913   7.232  0.00  0.00    +0.015 A 
ATOM      4  C   LIG    1       27.501 -21.288   7.149  0.00  0.00    +0.006 A 
ATOM      5  C   LIG    1       26.649 -20.794   6.135  0.00  0.00    -0.030 A 
ATOM      6  C   LIG    1       27.149 -19.759   5.378  0.00  0.00    +0.006 A 
ATOM      7  C   LIG    1       28.463 -19.289   5.551  0.00  0.00    +0.015 A 
BRANCH   2   8
ATOM      8  S   LIG    1       30.970 -19.300   6.792  0.00  0.00    -0.125 S 
BRANCH   8   9
ATOM      9  C   LIG    1       30.781 -18.787   8.540  0.00  0.00    +0.074 C 
BRANCH   9  10
ATOM     10  C   LIG    1       31.434 -19.723   9.559  0.00  0.00    +0.011 C 
BRANCH  10  12
ATOM     11  C   LIG    1       30.927 -22.190   9.592  0.00  0.00    +0.004 C 
ATOM     12  C   LIG    1       31.799 -21.099   8.995  0.00  0.00    -0.003 C 
ENDBRANCH  10  12
ENDBRANCH   9  10
ENDBRANCH   8   9
ENDBRANCH   2   8
ENDBRANCH   1   5
BRANCH   1  13
ATOM     13  C   LIG    1       24.246 -20.501   5.229  0.00  0.00    -0.030 A 
ATOM     14  C   LIG    1       24.464 -19.962   3.950  0.00  0.00    +0.005 A 
ATOM     15  C   LIG    1       23.563 -19.088   3.353  0.00  0.00    +0.000 A 
ATOM     16  C   LIG    1       22.418 -18.715   4.036  0.00  0.00    +0.000 A 
ATOM     17  C   LIG    1       22.150 -19.262   5.289  0.00  0.00    +0.000 A 
ATOM     18  C   LIG    1       23.047 -20.163   5.874  0.00  0.00    +0.005 A 
ENDBRANCH   1  13
BRANCH   1  19
ATOM     19  S   LIG    1       24.537 -22.367   7.351  0.00  0.00    -0.147 S 
BRANCH  19  20
ATOM     20  C   LIG    1       23.773 -23.895   6.631  0.00  0.00    +0.085 C 
BRANCH  20  21
ATOM     21  C   LIG    1       24.768 -24.723   5.799  0.00  0.00    +0.094 C 
BRANCH  21  22
ATOM     22  N   LIG    1       25.245 -26.029   6.305  0.00  0.00    -0.308 NA
ATOM     23  C   LIG    1       26.616 -26.409   5.971  0.00  0.00    +0.104 C 
ATOM     24  C   LIG    1       24.312 -27.098   5.909  0.00  0.00    +0.104 C 
ENDBRANCH  21  22
ENDBRANCH  20  21
ENDBRANCH  19  20
ENDBRANCH   1  19
TORSDOF 10
ENDMDL
MODEL 7
REMARK VINA RESULT:      -6.9      4.999      9.284
REMARK  Name = *****
REMARK                            x       y       z     vdW  Elec       q    Type
REMARK                         _______ _______ _______ _____ _____    ______ ____
ROOT
ATOM      1  C   LIG    1       25.146 -29.849   7.449  0.00  0.00    +0.106 C 
ENDROOT
BRANCH   1   5
ATOM      2  C   LIG    1       24.980 -25.714   6.063  0.00  0.00    +0.008 A 
ATOM      3  C   LIG    1       24.136 -26.648   5.580  0.00  0.00    +0.015 A 
ATOM      4  C   LIG    1       24.291 -27.995   5.915  0.00  0.00    +0.006 A 
ATOM      5  C   LIG    1       25.173 -28.414   6.935  0.00  0.00    -0.030 A 
ATOM      6  C   LIG    1       26.031 -27.455   7.424  0.00  0.00    +0.006 A 
ATOM      7  C   LIG    1       25.965 -26.119   6.990  0.00  0.00    +0.015 A 
BRANCH   2   8
ATOM      8  S   LIG    1       24.896 -24.055   5.433  0.00  0.00    -0.125 S 
BRANCH   8   9
ATOM      9  C   LIG    1       24.592 -23.157   7.000  0.00  0.00    +0.074 C 
BRANCH   9  10
ATOM     10  C   LIG    1       23.271 -22.386   7.053  0.00  0.00    +0.011 C 
BRANCH  10  12
ATOM     11  C   LIG    1       22.908 -20.264   5.746  0.00  0.00    +0.004 C 
ATOM     12  C   LIG    1       23.439 -20.863   7.037  0.00  0.00    -0.003 C 
ENDBRANCH  10  12
ENDBRANCH   9  10
ENDBRANCH   8   9
ENDBRANCH   2   8
ENDBRANCH   1   5
BRANCH   1  13
ATOM     13  C   LIG    1       24.974 -30.934   6.395  0.00  0.00    -0.030 A 
ATOM     14  C   LIG    1       23.872 -31.806   6.392  0.00  0.00    +0.005 A 
ATOM     15  C   LIG    1       23.749 -32.840   5.472  0.00  0.00    +0.000 A 
ATOM     16  C   LIG    1       24.745 -33.040   4.532  0.00  0.00    +0.000 A 
ATOM     17  C   LIG    1       25.832 -32.170   4.479  0.00  0.00    +0.000 A 
ATOM     18  C   LIG    1       25.937 -31.113   5.391  0.00  0.00    +0.005 A 
ENDBRANCH   1  13
BRANCH   1  19
ATOM     19  S   LIG    1       24.121 -30.167   8.994  0.00  0.00    -0.147 S 
BRANCH  19  20
ATOM     20  C   LIG    1       25.312 -30.285  10.409  0.00  0.00    +0.085 C 
BRANCH  20  21
ATOM     21  C   LIG    1       26.780 -30.166   9.964  0.00  0.00    +0.094 C 
BRANCH  21  22
ATOM     22  N   LIG    1       27.651 -29.129  10.560  0.00  0.00    -0.308 NA
ATOM     23  C   LIG    1       28.542 -29.550  11.638  0.00  0.00    +0.104 C 
ATOM     24  C   LIG    1       26.843 -27.976  10.991  0.00  0.00    +0.104 C 
ENDBRANCH  21  22
ENDBRANCH  20  21
ENDBRANCH  19  20
ENDBRANCH   1  19
TORSDOF 10
ENDMDL
MODEL 8
REMARK VINA RESULT:      -6.9      3.460      7.849
REMARK  Name = *****
REMARK                            x       y       z     vdW  Elec       q    Type
REMARK                         _______ _______ _______ _____ _____    ______ ____
ROOT
ATOM      1  C   LIG    1       24.500 -23.071   6.094  0.00  0.00    +0.106 C 
ENDROOT
BRANCH   1   5
ATOM      2  C   LIG    1       25.391 -27.343   6.019  0.00  0.00    +0.008 A 
ATOM      3  C   LIG    1       24.122 -26.891   5.950  0.00  0.00    +0.015 A 
ATOM      4  C   LIG    1       23.833 -25.536   6.124  0.00  0.00    +0.006 A 
ATOM      5  C   LIG    1       24.848 -24.554   6.150  0.00  0.00    -0.030 A 
ATOM      6  C   LIG    1       26.141 -25.023   6.220  0.00  0.00    +0.006 A 
ATOM      7  C   LIG    1       26.428 -26.398   6.177  0.00  0.00    +0.015 A 
BRANCH   2   8
ATOM      8  S   LIG    1       25.692 -29.093   6.026  0.00  0.00    -0.125 S 
BRANCH   8   9
ATOM      9  C   LIG    1       24.466 -29.601   7.289  0.00  0.00    +0.074 C 
BRANCH   9  10
ATOM     10  C   LIG    1       25.032 -29.779   8.699  0.00  0.00    +0.011 C 
BRANCH  10  12
ATOM     11  C   LIG    1       27.027 -29.356  10.177  0.00  0.00    +0.004 C 
ATOM     12  C   LIG    1       26.181 -28.823   9.034  0.00  0.00    -0.003 C 
ENDBRANCH  10  12
ENDBRANCH   9  10
ENDBRANCH   8   9
ENDBRANCH   2   8
ENDBRANCH   1   5
BRANCH   1  13
ATOM     13  C   LIG    1       25.511 -22.122   6.725  0.00  0.00    -0.030 A 
ATOM     14  C   LIG    1       25.679 -22.026   8.116  0.00  0.00    +0.005 A 
ATOM     15  C   LIG    1       26.551 -21.111   8.694  0.00  0.00    +0.000 A 
ATOM     16  C   LIG    1       27.272 -20.250   7.886  0.00  0.00    +0.000 A 
ATOM     17  C   LIG    1       27.161 -20.345   6.500  0.00  0.00    +0.000 A 
ATOM     18  C   LIG    1       26.302 -21.286   5.922  0.00  0.00    +0.005 A 
ENDBRANCH   1  13
BRANCH   1  19
ATOM     19  S   LIG    1       22.721 -22.612   6.498  0.00  0.00    -0.147 S 
BRANCH  19  20
ATOM     20  C   LIG    1       22.232 -21.277   5.308  0.00  0.00    +0.085 C 
BRANCH  20  21
ATOM     21  C   LIG    1       22.798 -19.899   5.691  0.00  0.00    +0.094 C 
BRANCH  21  22
ATOM     22  N   LIG    1       22.962 -18.854   4.657  0.00  0.00    -0.308 NA
ATOM     23  C   LIG    1       21.745 -18.344   4.030  0.00  0.00    +0.104 C 
ATOM     24  C   LIG    1       23.912 -19.306   3.626  0.00  0.00    +0.104 C 
ENDBRANCH  21  22
ENDBRANCH  20  21
ENDBRANCH  19  20
ENDBRANCH   1  19
TORSDOF 10
ENDMDL
MODEL 9
REMARK VINA RESULT:      -6.8      5.176      9.450
REMARK  Name = *****
REMARK                            x       y       z     vdW  Elec       q    Type
REMARK                         _______ _______ _______ _____ _____    ______ ____
ROOT
ATOM      1  C   LIG    1       25.175 -30.150   7.548  0.00  0.00    +0.106 C 
ENDROOT
BRANCH   1   5
ATOM      2  C   LIG    1       25.137 -26.077   5.981  0.00  0.00    +0.008 A 
ATOM      3  C   LIG    1       26.001 -26.447   6.948  0.00  0.00    +0.015 A 
ATOM      4  C   LIG    1       25.909 -27.704   7.549  0.00  0.00    +0.006 A 
ATOM      5  C   LIG    1       25.076 -28.721   7.030  0.00  0.00    -0.030 A 
ATOM      6  C   LIG    1       24.198 -28.336   6.042  0.00  0.00    +0.006 A 
ATOM      7  C   LIG    1       24.199 -27.029   5.524  0.00  0.00    +0.015 A 
BRANCH   2   8
ATOM      8  S   LIG    1       25.137 -24.396   5.409  0.00  0.00    -0.125 S 
BRANCH   8   9
ATOM      9  C   LIG    1       24.534 -23.566   6.927  0.00  0.00    +0.074 C 
BRANCH   9  10
ATOM     10  C   LIG    1       23.214 -22.808   6.765  0.00  0.00    +0.011 C 
BRANCH  10  12
ATOM     11  C   LIG    1       22.901 -20.457   5.918  0.00  0.00    +0.004 C 
ATOM     12  C   LIG    1       23.307 -21.317   7.102  0.00  0.00    -0.003 C 
ENDBRANCH  10  12
ENDBRANCH   9  10
ENDBRANCH   8   9
ENDBRANCH   2   8
ENDBRANCH   1   5
BRANCH   1  13
ATOM     13  C   LIG    1       24.983 -31.252   6.515  0.00  0.00    -0.030 A 
ATOM     14  C   LIG    1       25.957 -31.548   5.547  0.00  0.00    +0.005 A 
ATOM     15  C   LIG    1       25.754 -32.507   4.562  0.00  0.00    +0.000 A 
ATOM     16  C   LIG    1       24.550 -33.187   4.509  0.00  0.00    +0.000 A 
ATOM     17  C   LIG    1       23.577 -32.949   5.477  0.00  0.00    +0.000 A 
ATOM     18  C   LIG    1       23.798 -32.003   6.484  0.00  0.00    +0.005 A 
ENDBRANCH   1  13
BRANCH   1  19
ATOM     19  S   LIG    1       24.299 -30.516   9.172  0.00  0.00    -0.147 S 
BRANCH  19  20
ATOM     20  C   LIG    1       25.621 -30.758  10.449  0.00  0.00    +0.085 C 
BRANCH  20  21
ATOM     21  C   LIG    1       27.014 -30.335   9.952  0.00  0.00    +0.094 C 
BRANCH  21  22
ATOM     22  N   LIG    1       27.719 -29.207  10.600  0.00  0.00    -0.308 NA
ATOM     23  C   LIG    1       28.618 -29.533  11.704  0.00  0.00    +0.104 C 
ATOM     24  C   LIG    1       26.751 -28.180  11.020  0.00  0.00    +0.104 C 
ENDBRANCH  21  22
ENDBRANCH  20  21
ENDBRANCH  19  20
ENDBRANCH   1  19
TORSDOF 10
ENDMDL
