MODEL 1
REMARK VINA RESULT:      -3.9      0.000      0.000
REMARK  Name = *****
REMARK                            x       y       z     vdW  Elec       q    Type
REMARK                         _______ _______ _______ _____ _____    ______ ____
ROOT
ATOM      1  S   LIG    1       25.430 -15.166   3.238  0.00  0.00    +0.076 S 
ATOM      2  O   LIG    1       24.252 -15.130   4.086  0.00  0.00    -0.150 OA
ATOM      3  O   LIG    1       25.352 -14.815   1.838  0.00  0.00    -0.150 OA
ENDROOT
BRANCH   1   4
ATOM      4  C   LIG    1       26.649 -14.118   3.984  0.00  0.00    +0.109 A 
ATOM      5  C   LIG    1       26.491 -13.716   5.311  0.00  0.00    +0.030 A 
ATOM      6  C   LIG    1       27.451 -12.885   5.892  0.00  0.00    +0.024 A 
ATOM      7  C   LIG    1       28.594 -12.504   5.181  0.00  0.00    +0.025 A 
ATOM      8  C   LIG    1       28.717 -12.888   3.841  0.00  0.00    +0.024 A 
ATOM      9  C   LIG    1       27.762 -13.714   3.244  0.00  0.00    +0.030 A 
BRANCH   7  10
ATOM     10  N   LIG    1       29.475 -11.563   5.726  0.00  0.00    -0.358 N 
ATOM     11  H   LIG    1       30.420 -11.912   5.851  0.00  0.00    +0.142 HD
ATOM     12  H   LIG    1       29.459 -10.665   5.253  0.00  0.00    +0.142 HD
ENDBRANCH   7  10
ENDBRANCH   1   4
BRANCH   1  13
ATOM     13  N   LIG    1       26.218 -16.661   3.297  0.00  0.00    -0.169 N 
ATOM     14  H   LIG    1       26.583 -16.820   2.359  0.00  0.00    +0.178 HD
BRANCH  13  20
ATOM     15  C   LIG    1       24.341 -21.055   3.820  0.00  0.00    +0.069 C 
ATOM     16  C   LIG    1       24.428 -19.580   3.842  0.00  0.00    +0.081 A 
ATOM     17  C   LIG    1       23.421 -18.652   4.000  0.00  0.00    +0.127 A 
ATOM     18  C   LIG    1       21.972 -18.713   4.244  0.00  0.00    +0.088 C 
ATOM     19  O   LIG    1       23.966 -17.412   3.834  0.00  0.00    -0.429 OA
ATOM     20  C   LIG    1       25.282 -17.662   3.591  0.00  0.00    +0.308 A 
ATOM     21  N   LIG    1       25.628 -18.926   3.663  0.00  0.00    -0.199 NA
ENDBRANCH  13  20
ENDBRANCH   1  13
TORSDOF 4
ENDMDL
MODEL 2
REMARK VINA RESULT:      -3.7      0.761      1.429
REMARK  Name = *****
REMARK                            x       y       z     vdW  Elec       q    Type
REMARK                         _______ _______ _______ _____ _____    ______ ____
ROOT
ATOM      1  S   LIG    1       25.463 -15.200   3.235  0.00  0.00    +0.076 S 
ATOM      2  O   LIG    1       24.292 -15.178   4.093  0.00  0.00    -0.150 OA
ATOM      3  O   LIG    1       25.368 -14.858   1.834  0.00  0.00    -0.150 OA
ENDROOT
BRANCH   1   4
ATOM      4  C   LIG    1       26.672 -14.130   3.965  0.00  0.00    +0.109 A 
ATOM      5  C   LIG    1       26.515 -13.718   5.289  0.00  0.00    +0.030 A 
ATOM      6  C   LIG    1       27.467 -12.870   5.858  0.00  0.00    +0.024 A 
ATOM      7  C   LIG    1       28.601 -12.481   5.138  0.00  0.00    +0.025 A 
ATOM      8  C   LIG    1       28.723 -12.875   3.801  0.00  0.00    +0.024 A 
ATOM      9  C   LIG    1       27.775 -13.718   3.217  0.00  0.00    +0.030 A 
BRANCH   7  10
ATOM     10  N   LIG    1       29.473 -11.524   5.671  0.00  0.00    -0.358 N 
ATOM     11  H   LIG    1       29.773 -11.726   6.619  0.00  0.00    +0.142 HD
ATOM     12  H   LIG    1       30.254 -11.298   5.062  0.00  0.00    +0.142 HD
ENDBRANCH   7  10
ENDBRANCH   1   4
BRANCH   1  13
ATOM     13  N   LIG    1       26.273 -16.683   3.295  0.00  0.00    -0.169 N 
ATOM     14  H   LIG    1       26.689 -16.810   2.374  0.00  0.00    +0.178 HD
BRANCH  13  20
ATOM     15  C   LIG    1       22.098 -18.824   4.337  0.00  0.00    +0.069 C 
ATOM     16  C   LIG    1       23.519 -18.682   3.956  0.00  0.00    +0.081 A 
ATOM     17  C   LIG    1       24.500 -19.648   3.881  0.00  0.00    +0.127 A 
ATOM     18  C   LIG    1       24.549 -21.105   4.076  0.00  0.00    +0.088 C 
ATOM     19  O   LIG    1       25.680 -19.023   3.601  0.00  0.00    -0.429 OA
ATOM     20  C   LIG    1       25.343 -17.707   3.513  0.00  0.00    +0.308 A 
ATOM     21  N   LIG    1       24.060 -17.456   3.636  0.00  0.00    -0.199 NA
ENDBRANCH  13  20
ENDBRANCH   1  13
TORSDOF 4
ENDMDL
MODEL 3
REMARK VINA RESULT:      -3.1      2.215      6.538
REMARK  Name = *****
REMARK                            x       y       z     vdW  Elec       q    Type
REMARK                         _______ _______ _______ _____ _____    ______ ____
ROOT
ATOM      1  S   LIG    1       25.986 -18.181   3.326  0.00  0.00    +0.076 S 
ATOM      2  O   LIG    1       27.166 -17.749   4.053  0.00  0.00    -0.150 OA
ATOM      3  O   LIG    1       26.100 -18.874   2.062  0.00  0.00    -0.150 OA
ENDROOT
BRANCH   1   4
ATOM      4  C   LIG    1       25.043 -19.211   4.417  0.00  0.00    +0.109 A 
ATOM      5  C   LIG    1       23.650 -19.127   4.409  0.00  0.00    +0.030 A 
ATOM      6  C   LIG    1       22.911 -19.935   5.274  0.00  0.00    +0.024 A 
ATOM      7  C   LIG    1       23.547 -20.868   6.101  0.00  0.00    +0.025 A 
ATOM      8  C   LIG    1       24.946 -20.913   6.120  0.00  0.00    +0.024 A 
ATOM      9  C   LIG    1       25.697 -20.105   5.264  0.00  0.00    +0.030 A 
BRANCH   7  10
ATOM     10  N   LIG    1       22.808 -21.572   7.058  0.00  0.00    -0.358 N 
ATOM     11  H   LIG    1       21.853 -21.243   7.161  0.00  0.00    +0.142 HD
ATOM     12  H   LIG    1       22.856 -22.580   6.952  0.00  0.00    +0.142 HD
ENDBRANCH   7  10
ENDBRANCH   1   4
BRANCH   1  13
ATOM     13  N   LIG    1       24.897 -16.915   3.063  0.00  0.00    -0.169 N 
ATOM     14  H   LIG    1       24.721 -16.903   2.059  0.00  0.00    +0.178 HD
BRANCH  13  20
ATOM     15  C   LIG    1       28.320 -13.596   3.669  0.00  0.00    +0.069 C 
ATOM     16  C   LIG    1       26.980 -14.218   3.700  0.00  0.00    +0.081 A 
ATOM     17  C   LIG    1       25.841 -13.796   4.353  0.00  0.00    +0.127 A 
ATOM     18  C   LIG    1       25.479 -12.634   5.178  0.00  0.00    +0.088 C 
ATOM     19  O   LIG    1       24.885 -14.755   4.185  0.00  0.00    -0.429 OA
ATOM     20  C   LIG    1       25.501 -15.705   3.428  0.00  0.00    +0.308 A 
ATOM     21  N   LIG    1       26.719 -15.402   3.044  0.00  0.00    -0.199 NA
ENDBRANCH  13  20
ENDBRANCH   1  13
TORSDOF 4
ENDMDL
MODEL 4
REMARK VINA RESULT:      -2.5      3.355      6.379
REMARK  Name = *****
REMARK                            x       y       z     vdW  Elec       q    Type
REMARK                         _______ _______ _______ _____ _____    ______ ____
ROOT
ATOM      1  S   LIG    1       22.421 -18.844   3.925  0.00  0.00    +0.076 S 
ATOM      2  O   LIG    1       22.968 -18.542   2.614  0.00  0.00    -0.150 OA
ATOM      3  O   LIG    1       21.203 -19.609   4.067  0.00  0.00    -0.150 OA
ENDROOT
BRANCH   1   4
ATOM      4  C   LIG    1       23.686 -19.680   4.843  0.00  0.00    +0.109 A 
ATOM      5  C   LIG    1       23.393 -20.193   6.108  0.00  0.00    +0.030 A 
ATOM      6  C   LIG    1       24.393 -20.845   6.829  0.00  0.00    +0.024 A 
ATOM      7  C   LIG    1       25.664 -21.041   6.277  0.00  0.00    +0.025 A 
ATOM      8  C   LIG    1       25.949 -20.489   5.023  0.00  0.00    +0.024 A 
ATOM      9  C   LIG    1       24.959 -19.829   4.292  0.00  0.00    +0.030 A 
BRANCH   7  10
ATOM     10  N   LIG    1       26.694 -21.572   7.062  0.00  0.00    -0.358 N 
ATOM     11  H   LIG    1       26.885 -21.036   7.903  0.00  0.00    +0.142 HD
ATOM     12  H   LIG    1       26.592 -22.563   7.255  0.00  0.00    +0.142 HD
ENDBRANCH   7  10
ENDBRANCH   1   4
BRANCH   1  13
ATOM     13  N   LIG    1       22.209 -17.456   4.867  0.00  0.00    -0.169 N 
ATOM     14  H   LIG    1       21.278 -17.108   4.643  0.00  0.00    +0.178 HD
BRANCH  13  20
ATOM     15  C   LIG    1       24.049 -13.174   3.694  0.00  0.00    +0.069 C 
ATOM     16  C   LIG    1       23.998 -14.623   3.975  0.00  0.00    +0.081 A 
ATOM     17  C   LIG    1       24.949 -15.591   3.728  0.00  0.00    +0.127 A 
ATOM     18  C   LIG    1       26.313 -15.600   3.179  0.00  0.00    +0.088 C 
ATOM     19  O   LIG    1       24.406 -16.801   4.050  0.00  0.00    -0.429 OA
ATOM     20  C   LIG    1       23.153 -16.494   4.486  0.00  0.00    +0.308 A 
ATOM     21  N   LIG    1       22.885 -15.210   4.538  0.00  0.00    -0.199 NA
ENDBRANCH  13  20
ENDBRANCH   1  13
TORSDOF 4
ENDMDL
MODEL 5
REMARK VINA RESULT:      -2.4      2.128      6.887
REMARK  Name = *****
REMARK                            x       y       z     vdW  Elec       q    Type
REMARK                         _______ _______ _______ _____ _____    ______ ____
ROOT
ATOM      1  S   LIG    1       25.999 -18.012   3.318  0.00  0.00    +0.076 S 
ATOM      2  O   LIG    1       26.917 -17.812   4.424  0.00  0.00    -0.150 OA
ATOM      3  O   LIG    1       26.457 -18.546   2.055  0.00  0.00    -0.150 OA
ENDROOT
BRANCH   1   4
ATOM      4  C   LIG    1       24.693 -19.060   3.899  0.00  0.00    +0.109 A 
ATOM      5  C   LIG    1       24.969 -20.392   4.214  0.00  0.00    +0.030 A 
ATOM      6  C   LIG    1       23.936 -21.215   4.665  0.00  0.00    +0.024 A 
ATOM      7  C   LIG    1       22.648 -20.706   4.862  0.00  0.00    +0.025 A 
ATOM      8  C   LIG    1       22.383 -19.379   4.507  0.00  0.00    +0.024 A 
ATOM      9  C   LIG    1       23.405 -18.545   4.048  0.00  0.00    +0.030 A 
BRANCH   7  10
ATOM     10  N   LIG    1       21.596 -21.572   5.181  0.00  0.00    -0.358 N 
ATOM     11  H   LIG    1       21.012 -21.243   5.944  0.00  0.00    +0.142 HD
ATOM     12  H   LIG    1       21.047 -21.863   4.378  0.00  0.00    +0.142 HD
ENDBRANCH   7  10
ENDBRANCH   1   4
BRANCH   1  13
ATOM     13  N   LIG    1       25.134 -16.608   2.940  0.00  0.00    -0.169 N 
ATOM     14  H   LIG    1       25.154 -16.535   1.924  0.00  0.00    +0.178 HD
BRANCH  13  20
ATOM     15  C   LIG    1       25.803 -12.477   5.303  0.00  0.00    +0.069 C 
ATOM     16  C   LIG    1       26.129 -13.690   4.525  0.00  0.00    +0.081 A 
ATOM     17  C   LIG    1       27.299 -14.016   3.872  0.00  0.00    +0.127 A 
ATOM     18  C   LIG    1       28.622 -13.389   3.723  0.00  0.00    +0.088 C 
ATOM     19  O   LIG    1       27.089 -15.181   3.195  0.00  0.00    -0.429 OA
ATOM     20  C   LIG    1       25.797 -15.500   3.484  0.00  0.00    +0.308 A 
ATOM     21  N   LIG    1       25.204 -14.693   4.333  0.00  0.00    -0.199 NA
ENDBRANCH  13  20
ENDBRANCH   1  13
TORSDOF 4
ENDMDL
MODEL 6
REMARK VINA RESULT:      -2.1      1.336      1.787
REMARK  Name = *****
REMARK                            x       y       z     vdW  Elec       q    Type
REMARK                         _______ _______ _______ _____ _____    ______ ____
ROOT
ATOM      1  S   LIG    1       25.510 -14.913   2.893  0.00  0.00    +0.076 S 
ATOM      2  O   LIG    1       24.966 -14.058   1.853  0.00  0.00    -0.150 OA
ATOM      3  O   LIG    1       26.138 -16.174   2.570  0.00  0.00    -0.150 OA
ENDROOT
BRANCH   1   4
ATOM      4  C   LIG    1       26.684 -13.949   3.806  0.00  0.00    +0.109 A 
ATOM      5  C   LIG    1       26.413 -13.610   5.132  0.00  0.00    +0.030 A 
ATOM      6  C   LIG    1       27.338 -12.846   5.845  0.00  0.00    +0.024 A 
ATOM      7  C   LIG    1       28.555 -12.469   5.266  0.00  0.00    +0.025 A 
ATOM      8  C   LIG    1       28.794 -12.789   3.924  0.00  0.00    +0.024 A 
ATOM      9  C   LIG    1       27.874 -13.547   3.197  0.00  0.00    +0.030 A 
BRANCH   7  10
ATOM     10  N   LIG    1       29.409 -11.591   5.942  0.00  0.00    -0.358 N 
ATOM     11  H   LIG    1       29.045 -11.270   6.834  0.00  0.00    +0.142 HD
ATOM     12  H   LIG    1       30.364 -11.925   6.017  0.00  0.00    +0.142 HD
ENDBRANCH   7  10
ENDBRANCH   1   4
BRANCH   1  13
ATOM     13  N   LIG    1       24.375 -15.256   4.099  0.00  0.00    -0.169 N 
ATOM     14  H   LIG    1       24.854 -15.098   4.984  0.00  0.00    +0.178 HD
BRANCH  13  20
ATOM     15  C   LIG    1       21.758 -19.254   4.616  0.00  0.00    +0.069 C 
ATOM     16  C   LIG    1       22.884 -18.384   4.220  0.00  0.00    +0.081 A 
ATOM     17  C   LIG    1       24.139 -18.737   3.769  0.00  0.00    +0.127 A 
ATOM     18  C   LIG    1       24.822 -20.003   3.464  0.00  0.00    +0.088 C 
ATOM     19  O   LIG    1       24.873 -17.594   3.643  0.00  0.00    -0.429 OA
ATOM     20  C   LIG    1       24.014 -16.607   4.019  0.00  0.00    +0.308 A 
ATOM     21  N   LIG    1       22.796 -17.010   4.295  0.00  0.00    -0.199 NA
ENDBRANCH  13  20
ENDBRANCH   1  13
TORSDOF 4
ENDMDL
MODEL 7
REMARK VINA RESULT:      -2.0      2.049      6.802
REMARK  Name = *****
REMARK                            x       y       z     vdW  Elec       q    Type
REMARK                         _______ _______ _______ _____ _____    ______ ____
ROOT
ATOM      1  S   LIG    1       25.998 -17.618   3.616  0.00  0.00    +0.076 S 
ATOM      2  O   LIG    1       27.236 -18.082   4.214  0.00  0.00    -0.150 OA
ATOM      3  O   LIG    1       25.908 -17.351   2.198  0.00  0.00    -0.150 OA
ENDROOT
BRANCH   1   4
ATOM      4  C   LIG    1       24.742 -18.803   4.016  0.00  0.00    +0.109 A 
ATOM      5  C   LIG    1       23.403 -18.409   4.024  0.00  0.00    +0.030 A 
ATOM      6  C   LIG    1       22.418 -19.344   4.346  0.00  0.00    +0.024 A 
ATOM      7  C   LIG    1       22.752 -20.679   4.600  0.00  0.00    +0.025 A 
ATOM      8  C   LIG    1       24.103 -21.046   4.622  0.00  0.00    +0.024 A 
ATOM      9  C   LIG    1       25.099 -20.120   4.308  0.00  0.00    +0.030 A 
BRANCH   7  10
ATOM     10  N   LIG    1       21.774 -21.570   5.055  0.00  0.00    -0.358 N 
ATOM     11  H   LIG    1       20.988 -21.118   5.512  0.00  0.00    +0.142 HD
ATOM     12  H   LIG    1       21.474 -22.241   4.354  0.00  0.00    +0.142 HD
ENDBRANCH   7  10
ENDBRANCH   1   4
BRANCH   1  13
ATOM     13  N   LIG    1       25.391 -16.240   4.386  0.00  0.00    -0.169 N 
ATOM     14  H   LIG    1       24.392 -16.227   4.186  0.00  0.00    +0.178 HD
BRANCH  13  20
ATOM     15  C   LIG    1       28.650 -12.818   3.507  0.00  0.00    +0.069 C 
ATOM     16  C   LIG    1       27.392 -13.586   3.399  0.00  0.00    +0.081 A 
ATOM     17  C   LIG    1       26.217 -13.246   2.763  0.00  0.00    +0.127 A 
ATOM     18  C   LIG    1       25.760 -12.109   1.949  0.00  0.00    +0.088 C 
ATOM     19  O   LIG    1       25.299 -14.218   3.035  0.00  0.00    -0.429 OA
ATOM     20  C   LIG    1       25.977 -15.101   3.818  0.00  0.00    +0.308 A 
ATOM     21  N   LIG    1       27.246 -14.817   4.001  0.00  0.00    -0.199 NA
ENDBRANCH  13  20
ENDBRANCH   1  13
TORSDOF 4
ENDMDL
MODEL 8
REMARK VINA RESULT:      -1.8      3.217      4.082
REMARK  Name = *****
REMARK                            x       y       z     vdW  Elec       q    Type
REMARK                         _______ _______ _______ _____ _____    ______ ____
ROOT
ATOM      1  S   LIG    1       25.646 -18.006   3.482  0.00  0.00    +0.076 S 
ATOM      2  O   LIG    1       24.749 -18.739   4.356  0.00  0.00    -0.150 OA
ATOM      3  O   LIG    1       25.716 -18.300   2.068  0.00  0.00    -0.150 OA
ENDROOT
BRANCH   1   4
ATOM      4  C   LIG    1       25.258 -16.285   3.651  0.00  0.00    +0.109 A 
ATOM      5  C   LIG    1       26.257 -15.332   3.452  0.00  0.00    +0.030 A 
ATOM      6  C   LIG    1       25.948 -13.978   3.592  0.00  0.00    +0.024 A 
ATOM      7  C   LIG    1       24.640 -13.567   3.869  0.00  0.00    +0.025 A 
ATOM      8  C   LIG    1       23.659 -14.538   4.099  0.00  0.00    +0.024 A 
ATOM      9  C   LIG    1       23.956 -15.896   3.968  0.00  0.00    +0.030 A 
BRANCH   7  10
ATOM     10  N   LIG    1       24.373 -12.221   4.142  0.00  0.00    -0.358 N 
ATOM     11  H   LIG    1       24.112 -12.042   5.107  0.00  0.00    +0.142 HD
ATOM     12  H   LIG    1       25.097 -11.586   3.819  0.00  0.00    +0.142 HD
ENDBRANCH   7  10
ENDBRANCH   1   4
BRANCH   1  13
ATOM     13  N   LIG    1       27.242 -18.027   4.038  0.00  0.00    -0.169 N 
ATOM     14  H   LIG    1       27.813 -18.291   3.236  0.00  0.00    +0.178 HD
BRANCH  13  20
ATOM     15  C   LIG    1       29.336 -21.122   7.062  0.00  0.00    +0.069 C 
ATOM     16  C   LIG    1       28.260 -20.379   6.375  0.00  0.00    +0.081 A 
ATOM     17  C   LIG    1       26.901 -20.612   6.381  0.00  0.00    +0.127 A 
ATOM     18  C   LIG    1       26.008 -21.572   7.047  0.00  0.00    +0.088 C 
ATOM     19  O   LIG    1       26.324 -19.737   5.507  0.00  0.00    -0.429 OA
ATOM     20  C   LIG    1       27.372 -19.014   5.025  0.00  0.00    +0.308 A 
ATOM     21  N   LIG    1       28.534 -19.298   5.564  0.00  0.00    -0.199 NA
ENDBRANCH  13  20
ENDBRANCH   1  13
TORSDOF 4
ENDMDL
MODEL 9
REMARK VINA RESULT:      -1.8      2.823      6.132
REMARK  Name = *****
REMARK                            x       y       z     vdW  Elec       q    Type
REMARK                         _______ _______ _______ _____ _____    ______ ____
ROOT
ATOM      1  S   LIG    1       24.669 -18.466   3.390  0.00  0.00    +0.076 S 
ATOM      2  O   LIG    1       25.529 -17.889   2.372  0.00  0.00    -0.150 OA
ATOM      3  O   LIG    1       23.561 -19.322   3.033  0.00  0.00    -0.150 OA
ENDROOT
BRANCH   1   4
ATOM      4  C   LIG    1       25.707 -19.373   4.504  0.00  0.00    +0.109 A 
ATOM      5  C   LIG    1       27.047 -19.011   4.645  0.00  0.00    +0.030 A 
ATOM      6  C   LIG    1       27.862 -19.732   5.519  0.00  0.00    +0.024 A 
ATOM      7  C   LIG    1       27.337 -20.771   6.296  0.00  0.00    +0.025 A 
ATOM      8  C   LIG    1       26.000 -21.142   6.115  0.00  0.00    +0.024 A 
ATOM      9  C   LIG    1       25.175 -20.433   5.240  0.00  0.00    +0.030 A 
BRANCH   7  10
ATOM     10  N   LIG    1       28.191 -21.572   7.062  0.00  0.00    -0.358 N 
ATOM     11  H   LIG    1       27.820 -22.496   7.258  0.00  0.00    +0.142 HD
ATOM     12  H   LIG    1       29.143 -21.610   6.709  0.00  0.00    +0.142 HD
ENDBRANCH   7  10
ENDBRANCH   1   4
BRANCH   1  13
ATOM     13  N   LIG    1       24.034 -17.295   4.432  0.00  0.00    -0.169 N 
ATOM     14  H   LIG    1       23.025 -17.315   4.289  0.00  0.00    +0.178 HD
BRANCH  13  20
ATOM     15  C   LIG    1       24.006 -12.651   3.191  0.00  0.00    +0.069 C 
ATOM     16  C   LIG    1       24.541 -13.990   3.516  0.00  0.00    +0.081 A 
ATOM     17  C   LIG    1       25.816 -14.484   3.335  0.00  0.00    +0.127 A 
ATOM     18  C   LIG    1       27.088 -13.938   2.837  0.00  0.00    +0.088 C 
ATOM     19  O   LIG    1       25.803 -15.805   3.676  0.00  0.00    -0.429 OA
ATOM     20  C   LIG    1       24.516 -16.035   4.055  0.00  0.00    +0.308 A 
ATOM     21  N   LIG    1       23.742 -14.974   4.056  0.00  0.00    -0.199 NA
ENDBRANCH  13  20
ENDBRANCH   1  13
TORSDOF 4
ENDMDL
