MODEL 1
REMARK VINA RESULT:      -7.5      0.000      0.000
REMARK  Name = *****
REMARK                            x       y       z     vdW  Elec       q    Type
REMARK                         _______ _______ _______ _____ _____    ______ ____
ROOT
ATOM      1  C   LIG    1       28.622 -20.496   6.601  0.00  0.00    +0.041 C 
ENDROOT
BRANCH   1   2
ATOM      2  C   LIG    1       27.095 -20.459   6.531  0.00  0.00    +0.003 C 
BRANCH   2   3
ATOM      3  C   LIG    1       26.434 -20.555   7.909  0.00  0.00    +0.000 C 
BRANCH   3   4
ATOM      4  C   LIG    1       26.177 -21.987   8.382  0.00  0.00    -0.000 C 
BRANCH   4   5
ATOM      5  C   LIG    1       26.169 -23.075   7.303  0.00  0.00    -0.000 C 
BRANCH   5   6
ATOM      6  C   LIG    1       24.783 -23.606   6.917  0.00  0.00    -0.000 C 
BRANCH   6   7
ATOM      7  C   LIG    1       24.035 -22.666   5.956  0.00  0.00    -0.000 C 
BRANCH   7   8
ATOM      8  C   LIG    1       22.976 -21.805   6.665  0.00  0.00    -0.000 C 
BRANCH   8   9
ATOM      9  C   LIG    1       23.158 -20.316   6.352  0.00  0.00    -0.000 C 
BRANCH   9  11
ATOM     10  C   LIG    1       23.660 -19.478   4.017  0.00  0.00    +0.004 C 
ATOM     11  C   LIG    1       22.571 -19.910   4.995  0.00  0.00    -0.003 C 
ENDBRANCH   9  11
ENDBRANCH   8   9
ENDBRANCH   7   8
ENDBRANCH   6   7
ENDBRANCH   5   6
ENDBRANCH   4   5
ENDBRANCH   3   4
ENDBRANCH   2   3
ENDBRANCH   1   2
BRANCH   1  12
ATOM     12  C   LIG    1       29.210 -19.597   7.686  0.00  0.00    +0.232 C 
BRANCH  12  13
ATOM     13  O   LIG    1       29.986 -20.387   8.601  0.00  0.00    -0.463 OA
BRANCH  13  14
ATOM     14  C   LIG    1       31.261 -19.970   8.821  0.00  0.00    +0.331 C 
ATOM     15  O   LIG    1       32.148 -20.652   9.318  0.00  0.00    -0.249 OA
BRANCH  14  16
ATOM     16  C   LIG    1       31.420 -18.530   8.496  0.00  0.00    +0.318 C 
BRANCH  16  17
ATOM     17  S   LIG    1       31.337 -17.610  10.000  0.00  0.00    +0.090 S 
ATOM     18  O   LIG    1       30.335 -16.582   9.932  0.00  0.00    -0.147 OA
ATOM     19  O   LIG    1       32.672 -17.358  10.515  0.00  0.00    -0.147 OA
BRANCH  17  20
ATOM     20  O   LIG    1       30.738 -18.779  10.943  0.00  0.00    -0.254 OA
ATOM     21  H   LIG    1       31.352 -18.908  11.696  0.00  0.00    +0.244 HD
ENDBRANCH  17  20
ENDBRANCH  16  17
ENDBRANCH  14  16
ENDBRANCH  13  14
ENDBRANCH  12  13
ENDBRANCH   1  12
TORSDOF 15
ENDMDL
MODEL 2
REMARK VINA RESULT:      -7.4      1.555      3.388
REMARK  Name = *****
REMARK                            x       y       z     vdW  Elec       q    Type
REMARK                         _______ _______ _______ _____ _____    ______ ____
ROOT
ATOM      1  C   LIG    1       26.580 -20.304   5.687  0.00  0.00    +0.041 C 
ENDROOT
BRANCH   1   2
ATOM      2  C   LIG    1       26.107 -19.629   4.399  0.00  0.00    +0.003 C 
BRANCH   2   3
ATOM      3  C   LIG    1       24.788 -20.204   3.876  0.00  0.00    +0.000 C 
BRANCH   3   4
ATOM      4  C   LIG    1       23.629 -19.203   3.869  0.00  0.00    -0.000 C 
BRANCH   4   5
ATOM      5  C   LIG    1       22.453 -19.509   4.802  0.00  0.00    -0.000 C 
BRANCH   5   6
ATOM      6  C   LIG    1       22.527 -20.858   5.530  0.00  0.00    -0.000 C 
BRANCH   6   7
ATOM      7  C   LIG    1       23.201 -20.750   6.909  0.00  0.00    -0.000 C 
BRANCH   7   8
ATOM      8  C   LIG    1       23.744 -22.096   7.415  0.00  0.00    -0.000 C 
BRANCH   8   9
ATOM      9  C   LIG    1       22.993 -23.278   6.793  0.00  0.00    -0.000 C 
BRANCH   9  11
ATOM     10  C   LIG    1       25.369 -24.147   6.711  0.00  0.00    +0.004 C 
ATOM     11  C   LIG    1       23.894 -24.491   6.530  0.00  0.00    -0.003 C 
ENDBRANCH   9  11
ENDBRANCH   8   9
ENDBRANCH   7   8
ENDBRANCH   6   7
ENDBRANCH   5   6
ENDBRANCH   4   5
ENDBRANCH   3   4
ENDBRANCH   2   3
ENDBRANCH   1   2
BRANCH   1  12
ATOM     12  C   LIG    1       28.077 -20.153   5.947  0.00  0.00    +0.232 C 
BRANCH  12  13
ATOM     13  O   LIG    1       28.318 -20.087   7.361  0.00  0.00    -0.463 OA
BRANCH  13  14
ATOM     14  C   LIG    1       29.510 -20.579   7.790  0.00  0.00    +0.331 C 
ATOM     15  O   LIG    1       29.646 -21.487   8.599  0.00  0.00    -0.249 OA
BRANCH  14  16
ATOM     16  C   LIG    1       30.644 -19.792   7.245  0.00  0.00    +0.318 C 
BRANCH  16  17
ATOM     17  S   LIG    1       31.347 -18.848   8.561  0.00  0.00    +0.090 S 
ATOM     18  O   LIG    1       31.791 -17.560   8.104  0.00  0.00    -0.147 OA
ATOM     19  O   LIG    1       32.167 -19.694   9.410  0.00  0.00    -0.147 OA
BRANCH  17  20
ATOM     20  O   LIG    1       29.990 -18.598   9.404  0.00  0.00    -0.254 OA
ATOM     21  H   LIG    1       29.863 -17.630   9.497  0.00  0.00    +0.244 HD
ENDBRANCH  17  20
ENDBRANCH  16  17
ENDBRANCH  14  16
ENDBRANCH  13  14
ENDBRANCH  12  13
ENDBRANCH   1  12
TORSDOF 15
ENDMDL
MODEL 3
REMARK VINA RESULT:      -7.3      0.948      2.522
REMARK  Name = *****
REMARK                            x       y       z     vdW  Elec       q    Type
REMARK                         _______ _______ _______ _____ _____    ______ ____
ROOT
ATOM      1  C   LIG    1       28.805 -20.472   6.497  0.00  0.00    +0.041 C 
ENDROOT
BRANCH   1   2
ATOM      2  C   LIG    1       27.280 -20.520   6.595  0.00  0.00    +0.003 C 
BRANCH   2   3
ATOM      3  C   LIG    1       26.586 -19.958   5.351  0.00  0.00    +0.000 C 
BRANCH   3   4
ATOM      4  C   LIG    1       25.472 -20.850   4.799  0.00  0.00    -0.000 C 
BRANCH   4   5
ATOM      5  C   LIG    1       24.115 -20.181   4.554  0.00  0.00    -0.000 C 
BRANCH   5   6
ATOM      6  C   LIG    1       22.966 -20.686   5.436  0.00  0.00    -0.000 C 
BRANCH   6   7
ATOM      7  C   LIG    1       23.278 -20.571   6.938  0.00  0.00    -0.000 C 
BRANCH   7   8
ATOM      8  C   LIG    1       23.566 -21.930   7.596  0.00  0.00    -0.000 C 
BRANCH   8   9
ATOM      9  C   LIG    1       23.002 -23.089   6.767  0.00  0.00    -0.000 C 
BRANCH   9  11
ATOM     10  C   LIG    1       25.418 -23.805   7.006  0.00  0.00    +0.004 C 
ATOM     11  C   LIG    1       24.035 -24.189   6.490  0.00  0.00    -0.003 C 
ENDBRANCH   9  11
ENDBRANCH   8   9
ENDBRANCH   7   8
ENDBRANCH   6   7
ENDBRANCH   5   6
ENDBRANCH   4   5
ENDBRANCH   3   4
ENDBRANCH   2   3
ENDBRANCH   1   2
BRANCH   1  12
ATOM     12  C   LIG    1       29.517 -21.209   7.629  0.00  0.00    +0.232 C 
BRANCH  12  13
ATOM     13  O   LIG    1       29.829 -20.288   8.686  0.00  0.00    -0.463 OA
BRANCH  13  14
ATOM     14  C   LIG    1       31.133 -19.923   8.798  0.00  0.00    +0.331 C 
ATOM     15  O   LIG    1       32.038 -20.655   9.179  0.00  0.00    -0.249 OA
BRANCH  14  16
ATOM     16  C   LIG    1       31.313 -18.477   8.516  0.00  0.00    +0.318 C 
BRANCH  16  17
ATOM     17  S   LIG    1       31.309 -17.609  10.054  0.00  0.00    +0.090 S 
ATOM     18  O   LIG    1       30.429 -16.474  10.014  0.00  0.00    -0.147 OA
ATOM     19  O   LIG    1       32.655 -17.526  10.593  0.00  0.00    -0.147 OA
BRANCH  17  20
ATOM     20  O   LIG    1       30.569 -18.738  10.944  0.00  0.00    -0.254 OA
ATOM     21  H   LIG    1       30.123 -19.363  10.335  0.00  0.00    +0.244 HD
ENDBRANCH  17  20
ENDBRANCH  16  17
ENDBRANCH  14  16
ENDBRANCH  13  14
ENDBRANCH  12  13
ENDBRANCH   1  12
TORSDOF 15
ENDMDL
MODEL 4
REMARK VINA RESULT:      -7.2      1.210      2.741
REMARK  Name = *****
REMARK                            x       y       z     vdW  Elec       q    Type
REMARK                         _______ _______ _______ _____ _____    ______ ____
ROOT
ATOM      1  C   LIG    1       28.106 -21.151   7.024  0.00  0.00    +0.041 C 
ENDROOT
BRANCH   1   2
ATOM      2  C   LIG    1       27.397 -21.326   8.367  0.00  0.00    +0.003 C 
BRANCH   2   3
ATOM      3  C   LIG    1       26.002 -20.695   8.391  0.00  0.00    +0.000 C 
BRANCH   3   4
ATOM      4  C   LIG    1       25.308 -20.659   7.028  0.00  0.00    -0.000 C 
BRANCH   4   5
ATOM      5  C   LIG    1       23.778 -20.737   7.035  0.00  0.00    -0.000 C 
BRANCH   5   6
ATOM      6  C   LIG    1       23.174 -21.847   6.164  0.00  0.00    -0.000 C 
BRANCH   6   7
ATOM      7  C   LIG    1       22.738 -23.073   6.984  0.00  0.00    -0.000 C 
BRANCH   7   8
ATOM      8  C   LIG    1       23.447 -24.366   6.551  0.00  0.00    -0.000 C 
BRANCH   8   9
ATOM      9  C   LIG    1       24.822 -24.077   5.938  0.00  0.00    -0.000 C 
BRANCH   9  11
ATOM     10  C   LIG    1       26.129 -26.206   6.345  0.00  0.00    +0.004 C 
ATOM     11  C   LIG    1       25.974 -24.733   6.710  0.00  0.00    -0.003 C 
ENDBRANCH   9  11
ENDBRANCH   8   9
ENDBRANCH   7   8
ENDBRANCH   6   7
ENDBRANCH   5   6
ENDBRANCH   4   5
ENDBRANCH   3   4
ENDBRANCH   2   3
ENDBRANCH   1   2
BRANCH   1  12
ATOM     12  C   LIG    1       29.506 -20.552   7.140  0.00  0.00    +0.232 C 
BRANCH  12  13
ATOM     13  O   LIG    1       29.866 -20.431   8.525  0.00  0.00    -0.463 OA
BRANCH  13  14
ATOM     14  C   LIG    1       31.148 -20.058   8.780  0.00  0.00    +0.331 C 
ATOM     15  O   LIG    1       31.990 -20.760   9.326  0.00  0.00    -0.249 OA
BRANCH  14  16
ATOM     16  C   LIG    1       31.375 -18.635   8.424  0.00  0.00    +0.318 C 
BRANCH  16  17
ATOM     17  S   LIG    1       31.278 -17.672   9.900  0.00  0.00    +0.090 S 
ATOM     18  O   LIG    1       30.317 -16.611   9.772  0.00  0.00    -0.147 OA
ATOM     19  O   LIG    1       32.603 -17.455  10.453  0.00  0.00    -0.147 OA
BRANCH  17  20
ATOM     20  O   LIG    1       30.605 -18.793  10.852  0.00  0.00    -0.254 OA
ATOM     21  H   LIG    1       29.687 -18.512  11.052  0.00  0.00    +0.244 HD
ENDBRANCH  17  20
ENDBRANCH  16  17
ENDBRANCH  14  16
ENDBRANCH  13  14
ENDBRANCH  12  13
ENDBRANCH   1  12
TORSDOF 15
ENDMDL
MODEL 5
REMARK VINA RESULT:      -7.1      1.181      1.951
REMARK  Name = *****
REMARK                            x       y       z     vdW  Elec       q    Type
REMARK                         _______ _______ _______ _____ _____    ______ ____
ROOT
ATOM      1  C   LIG    1       26.697 -20.414   6.485  0.00  0.00    +0.041 C 
ENDROOT
BRANCH   1   2
ATOM      2  C   LIG    1       26.537 -20.502   8.003  0.00  0.00    +0.003 C 
BRANCH   2   3
ATOM      3  C   LIG    1       25.703 -21.708   8.445  0.00  0.00    +0.000 C 
BRANCH   3   4
ATOM      4  C   LIG    1       25.814 -22.920   7.518  0.00  0.00    -0.000 C 
BRANCH   4   5
ATOM      5  C   LIG    1       24.535 -23.349   6.791  0.00  0.00    -0.000 C 
BRANCH   5   6
ATOM      6  C   LIG    1       23.283 -22.530   7.131  0.00  0.00    -0.000 C 
BRANCH   6   7
ATOM      7  C   LIG    1       22.755 -21.729   5.929  0.00  0.00    -0.000 C 
BRANCH   7   8
ATOM      8  C   LIG    1       22.958 -20.213   6.084  0.00  0.00    -0.000 C 
BRANCH   8   9
ATOM      9  C   LIG    1       23.001 -19.507   4.724  0.00  0.00    -0.000 C 
BRANCH   9  11
ATOM     10  C   LIG    1       25.133 -18.896   3.505  0.00  0.00    +0.004 C 
ATOM     11  C   LIG    1       24.137 -20.007   3.823  0.00  0.00    -0.003 C 
ENDBRANCH   9  11
ENDBRANCH   8   9
ENDBRANCH   7   8
ENDBRANCH   6   7
ENDBRANCH   5   6
ENDBRANCH   4   5
ENDBRANCH   3   4
ENDBRANCH   2   3
ENDBRANCH   1   2
BRANCH   1  12
ATOM     12  C   LIG    1       28.124 -20.118   6.032  0.00  0.00    +0.232 C 
BRANCH  12  13
ATOM     13  O   LIG    1       29.005 -20.139   7.165  0.00  0.00    -0.463 OA
BRANCH  13  14
ATOM     14  C   LIG    1       29.903 -19.122   7.246  0.00  0.00    +0.331 C 
ATOM     15  O   LIG    1       30.695 -18.811   6.366  0.00  0.00    -0.249 OA
BRANCH  14  16
ATOM     16  C   LIG    1       29.893 -18.502   8.594  0.00  0.00    +0.318 C 
BRANCH  16  17
ATOM     17  S   LIG    1       31.559 -18.398   9.170  0.00  0.00    +0.090 S 
ATOM     18  O   LIG    1       32.222 -17.234   8.650  0.00  0.00    -0.147 OA
ATOM     19  O   LIG    1       32.180 -19.711   9.164  0.00  0.00    -0.147 OA
BRANCH  17  20
ATOM     20  O   LIG    1       31.238 -18.092  10.725  0.00  0.00    -0.254 OA
ATOM     21  H   LIG    1       30.364 -17.650  10.775  0.00  0.00    +0.244 HD
ENDBRANCH  17  20
ENDBRANCH  16  17
ENDBRANCH  14  16
ENDBRANCH  13  14
ENDBRANCH  12  13
ENDBRANCH   1  12
TORSDOF 15
ENDMDL
MODEL 6
REMARK VINA RESULT:      -6.9      1.932      3.837
REMARK  Name = *****
REMARK                            x       y       z     vdW  Elec       q    Type
REMARK                         _______ _______ _______ _____ _____    ______ ____
ROOT
ATOM      1  C   LIG    1       26.791 -20.781   6.397  0.00  0.00    +0.041 C 
ENDROOT
BRANCH   1   2
ATOM      2  C   LIG    1       26.129 -20.421   7.727  0.00  0.00    +0.003 C 
BRANCH   2   3
ATOM      3  C   LIG    1       24.823 -21.184   7.967  0.00  0.00    +0.000 C 
BRANCH   3   4
ATOM      4  C   LIG    1       23.722 -20.874   6.951  0.00  0.00    -0.000 C 
BRANCH   4   5
ATOM      5  C   LIG    1       22.952 -22.073   6.386  0.00  0.00    -0.000 C 
BRANCH   5   6
ATOM      6  C   LIG    1       23.492 -23.449   6.794  0.00  0.00    -0.000 C 
BRANCH   6   7
ATOM      7  C   LIG    1       24.668 -23.909   5.915  0.00  0.00    -0.000 C 
BRANCH   7   8
ATOM      8  C   LIG    1       25.794 -24.575   6.723  0.00  0.00    -0.000 C 
BRANCH   8   9
ATOM      9  C   LIG    1       26.244 -25.893   6.082  0.00  0.00    -0.000 C 
BRANCH   9  11
ATOM     10  C   LIG    1       24.424 -27.644   6.243  0.00  0.00    +0.004 C 
ATOM     11  C   LIG    1       25.735 -27.130   6.830  0.00  0.00    -0.003 C 
ENDBRANCH   9  11
ENDBRANCH   8   9
ENDBRANCH   7   8
ENDBRANCH   6   7
ENDBRANCH   5   6
ENDBRANCH   4   5
ENDBRANCH   3   4
ENDBRANCH   2   3
ENDBRANCH   1   2
BRANCH   1  12
ATOM     12  C   LIG    1       28.064 -19.988   6.108  0.00  0.00    +0.232 C 
BRANCH  12  13
ATOM     13  O   LIG    1       29.209 -20.738   6.540  0.00  0.00    -0.463 OA
BRANCH  13  14
ATOM     14  C   LIG    1       29.542 -20.621   7.853  0.00  0.00    +0.331 C 
ATOM     15  O   LIG    1       29.579 -21.546   8.654  0.00  0.00    -0.249 OA
BRANCH  14  16
ATOM     16  C   LIG    1       29.741 -19.200   8.233  0.00  0.00    +0.318 C 
BRANCH  16  17
ATOM     17  S   LIG    1       31.476 -18.889   8.328  0.00  0.00    +0.090 S 
ATOM     18  O   LIG    1       32.097 -19.689   9.347  0.00  0.00    -0.147 OA
ATOM     19  O   LIG    1       31.746 -17.469   8.186  0.00  0.00    -0.147 OA
BRANCH  17  20
ATOM     20  O   LIG    1       31.896 -19.540   6.909  0.00  0.00    -0.254 OA
ATOM     21  H   LIG    1       31.195 -19.329   6.257  0.00  0.00    +0.244 HD
ENDBRANCH  17  20
ENDBRANCH  16  17
ENDBRANCH  14  16
ENDBRANCH  13  14
ENDBRANCH  12  13
ENDBRANCH   1  12
TORSDOF 15
ENDMDL
MODEL 7
REMARK VINA RESULT:      -6.8      1.882      3.781
REMARK  Name = *****
REMARK                            x       y       z     vdW  Elec       q    Type
REMARK                         _______ _______ _______ _____ _____    ______ ____
ROOT
ATOM      1  C   LIG    1       26.518 -20.674   6.728  0.00  0.00    +0.041 C 
ENDROOT
BRANCH   1   2
ATOM      2  C   LIG    1       26.539 -20.104   5.309  0.00  0.00    +0.003 C 
BRANCH   2   3
ATOM      3  C   LIG    1       25.154 -20.083   4.656  0.00  0.00    +0.000 C 
BRANCH   3   4
ATOM      4  C   LIG    1       24.309 -21.327   4.942  0.00  0.00    -0.000 C 
BRANCH   4   5
ATOM      5  C   LIG    1       23.185 -21.170   5.972  0.00  0.00    -0.000 C 
BRANCH   5   6
ATOM      6  C   LIG    1       23.222 -22.164   7.140  0.00  0.00    -0.000 C 
BRANCH   6   7
ATOM      7  C   LIG    1       23.261 -23.629   6.671  0.00  0.00    -0.000 C 
BRANCH   7   8
ATOM      8  C   LIG    1       24.663 -24.251   6.765  0.00  0.00    -0.000 C 
BRANCH   8   9
ATOM      9  C   LIG    1       25.162 -24.730   5.397  0.00  0.00    -0.000 C 
BRANCH   9  11
ATOM     10  C   LIG    1       25.938 -26.631   6.877  0.00  0.00    +0.004 C 
ATOM     11  C   LIG    1       25.809 -26.119   5.446  0.00  0.00    -0.003 C 
ENDBRANCH   9  11
ENDBRANCH   8   9
ENDBRANCH   7   8
ENDBRANCH   6   7
ENDBRANCH   5   6
ENDBRANCH   4   5
ENDBRANCH   3   4
ENDBRANCH   2   3
ENDBRANCH   1   2
BRANCH   1  12
ATOM     12  C   LIG    1       27.749 -20.310   7.555  0.00  0.00    +0.232 C 
BRANCH  12  13
ATOM     13  O   LIG    1       28.875 -20.115   6.687  0.00  0.00    -0.463 OA
BRANCH  13  14
ATOM     14  C   LIG    1       29.606 -18.988   6.896  0.00  0.00    +0.331 C 
ATOM     15  O   LIG    1       30.099 -18.296   6.014  0.00  0.00    -0.249 OA
BRANCH  14  16
ATOM     16  C   LIG    1       29.841 -18.760   8.343  0.00  0.00    +0.318 C 
BRANCH  16  17
ATOM     17  S   LIG    1       31.211 -19.754   8.845  0.00  0.00    +0.090 S 
ATOM     18  O   LIG    1       30.774 -20.975   9.465  0.00  0.00    -0.147 OA
ATOM     19  O   LIG    1       32.257 -18.925   9.418  0.00  0.00    -0.147 OA
BRANCH  17  20
ATOM     20  O   LIG    1       31.749 -20.151   7.373  0.00  0.00    -0.254 OA
ATOM     21  H   LIG    1       30.994 -20.505   6.857  0.00  0.00    +0.244 HD
ENDBRANCH  17  20
ENDBRANCH  16  17
ENDBRANCH  14  16
ENDBRANCH  13  14
ENDBRANCH  12  13
ENDBRANCH   1  12
TORSDOF 15
ENDMDL
MODEL 8
REMARK VINA RESULT:      -6.8      1.410      2.352
REMARK  Name = *****
REMARK                            x       y       z     vdW  Elec       q    Type
REMARK                         _______ _______ _______ _____ _____    ______ ____
ROOT
ATOM      1  C   LIG    1       28.409 -20.287   6.164  0.00  0.00    +0.041 C 
ENDROOT
BRANCH   1   2
ATOM      2  C   LIG    1       26.927 -20.390   6.526  0.00  0.00    +0.003 C 
BRANCH   2   3
ATOM      3  C   LIG    1       26.697 -20.756   7.995  0.00  0.00    +0.000 C 
BRANCH   3   4
ATOM      4  C   LIG    1       25.889 -22.039   8.200  0.00  0.00    -0.000 C 
BRANCH   4   5
ATOM      5  C   LIG    1       25.516 -22.824   6.938  0.00  0.00    -0.000 C 
BRANCH   5   6
ATOM      6  C   LIG    1       24.011 -22.957   6.670  0.00  0.00    -0.000 C 
BRANCH   6   7
ATOM      7  C   LIG    1       23.194 -21.818   7.303  0.00  0.00    -0.000 C 
BRANCH   7   8
ATOM      8  C   LIG    1       23.211 -20.531   6.463  0.00  0.00    -0.000 C 
BRANCH   8   9
ATOM      9  C   LIG    1       23.391 -20.833   4.971  0.00  0.00    -0.000 C 
BRANCH   9  11
ATOM     10  C   LIG    1       22.327 -18.597   4.447  0.00  0.00    +0.004 C 
ATOM     11  C   LIG    1       23.452 -19.569   4.105  0.00  0.00    -0.003 C 
ENDBRANCH   9  11
ENDBRANCH   8   9
ENDBRANCH   7   8
ENDBRANCH   6   7
ENDBRANCH   5   6
ENDBRANCH   4   5
ENDBRANCH   3   4
ENDBRANCH   2   3
ENDBRANCH   1   2
BRANCH   1  12
ATOM     12  C   LIG    1       28.813 -18.927   5.602  0.00  0.00    +0.232 C 
BRANCH  12  13
ATOM     13  O   LIG    1       30.171 -18.636   5.967  0.00  0.00    -0.463 OA
BRANCH  13  14
ATOM     14  C   LIG    1       30.435 -18.576   7.299  0.00  0.00    +0.331 C 
ATOM     15  O   LIG    1       29.851 -17.856   8.099  0.00  0.00    -0.249 OA
BRANCH  14  16
ATOM     16  C   LIG    1       31.612 -19.408   7.653  0.00  0.00    +0.318 C 
BRANCH  16  17
ATOM     17  S   LIG    1       31.158 -20.469   8.989  0.00  0.00    +0.090 S 
ATOM     18  O   LIG    1       32.287 -21.214   9.474  0.00  0.00    -0.147 OA
ATOM     19  O   LIG    1       29.873 -21.093   8.728  0.00  0.00    -0.147 OA
BRANCH  17  20
ATOM     20  O   LIG    1       30.853 -19.323  10.088  0.00  0.00    -0.254 OA
ATOM     21  H   LIG    1       31.710 -18.985  10.422  0.00  0.00    +0.244 HD
ENDBRANCH  17  20
ENDBRANCH  16  17
ENDBRANCH  14  16
ENDBRANCH  13  14
ENDBRANCH  12  13
ENDBRANCH   1  12
TORSDOF 15
ENDMDL
MODEL 9
REMARK VINA RESULT:      -6.5      2.325      4.034
REMARK  Name = *****
REMARK                            x       y       z     vdW  Elec       q    Type
REMARK                         _______ _______ _______ _____ _____    ______ ____
ROOT
ATOM      1  C   LIG    1       26.276 -20.634   7.839  0.00  0.00    +0.041 C 
ENDROOT
BRANCH   1   2
ATOM      2  C   LIG    1       25.592 -20.608   6.472  0.00  0.00    +0.003 C 
BRANCH   2   3
ATOM      3  C   LIG    1       24.068 -20.727   6.566  0.00  0.00    +0.000 C 
BRANCH   3   4
ATOM      4  C   LIG    1       23.584 -21.879   7.449  0.00  0.00    -0.000 C 
BRANCH   4   5
ATOM      5  C   LIG    1       22.853 -23.025   6.742  0.00  0.00    -0.000 C 
BRANCH   5   6
ATOM      6  C   LIG    1       23.627 -24.348   6.666  0.00  0.00    -0.000 C 
BRANCH   6   7
ATOM      7  C   LIG    1       25.022 -24.184   6.040  0.00  0.00    -0.000 C 
BRANCH   7   8
ATOM      8  C   LIG    1       26.002 -25.290   6.464  0.00  0.00    -0.000 C 
BRANCH   8   9
ATOM      9  C   LIG    1       25.311 -26.656   6.541  0.00  0.00    -0.000 C 
BRANCH   9  11
ATOM     10  C   LIG    1       24.548 -28.726   5.301  0.00  0.00    +0.004 C 
ATOM     11  C   LIG    1       25.215 -27.359   5.182  0.00  0.00    -0.003 C 
ENDBRANCH   9  11
ENDBRANCH   8   9
ENDBRANCH   7   8
ENDBRANCH   6   7
ENDBRANCH   5   6
ENDBRANCH   4   5
ENDBRANCH   3   4
ENDBRANCH   2   3
ENDBRANCH   1   2
BRANCH   1  12
ATOM     12  C   LIG    1       27.792 -20.473   7.772  0.00  0.00    +0.232 C 
BRANCH  12  13
ATOM     13  O   LIG    1       28.150 -19.746   6.587  0.00  0.00    -0.463 OA
BRANCH  13  14
ATOM     14  C   LIG    1       29.386 -19.181   6.580  0.00  0.00    +0.331 C 
ATOM     15  O   LIG    1       29.713 -18.213   5.906  0.00  0.00    -0.249 OA
BRANCH  14  16
ATOM     16  C   LIG    1       30.339 -19.963   7.406  0.00  0.00    +0.318 C 
BRANCH  16  17
ATOM     17  S   LIG    1       31.063 -18.876   8.594  0.00  0.00    +0.090 S 
ATOM     18  O   LIG    1       30.093 -18.424   9.552  0.00  0.00    -0.147 OA
ATOM     19  O   LIG    1       31.997 -17.969   7.949  0.00  0.00    -0.147 OA
BRANCH  17  20
ATOM     20  O   LIG    1       31.991 -19.962   9.352  0.00  0.00    -0.254 OA
ATOM     21  H   LIG    1       32.929 -19.721   9.200  0.00  0.00    +0.244 HD
ENDBRANCH  17  20
ENDBRANCH  16  17
ENDBRANCH  14  16
ENDBRANCH  13  14
ENDBRANCH  12  13
ENDBRANCH   1  12
TORSDOF 15
ENDMDL
