MODEL 1
REMARK VINA RESULT:      -6.0      0.000      0.000
REMARK  Name = *****
REMARK                            x       y       z     vdW  Elec       q    Type
REMARK                         _______ _______ _______ _____ _____    ______ ____
ROOT
ATOM      1  CA  LIG    1       25.985 -31.590   9.742  0.00  0.00    +0.191 C 
ATOM      2  C   LIG    1       26.790 -30.768  10.797  0.00  0.00    +0.169 C 
ATOM      3  N   LIG    1       25.630 -30.934  11.660  0.00  0.00    -0.249 N 
ATOM      4  CA  LIG    1       25.413 -30.280  12.836  0.00  0.00    +0.128 C 
ATOM      5  C   LIG    1       26.280 -29.320  13.267  0.00  0.00    +0.033 C 
ATOM      6  C   LIG    1       27.387 -28.784  12.364  0.00  0.00    +0.110 C 
ATOM      7  S   LIG    1       27.045 -28.998  10.599  0.00  0.00    -0.131 S 
ATOM      8  C   LIG    1       25.182 -32.042  11.026  0.00  0.00    +0.244 C 
ATOM      9  O   LIG    1       24.474 -32.957  11.372  0.00  0.00    -0.273 OA
ENDROOT
BRANCH   1  11
ATOM     10  C   LIG    1       25.501 -30.865   7.395  0.00  0.00    +0.268 C 
ATOM     11  N   LIG    1       25.168 -30.878   8.730  0.00  0.00    -0.296 N 
ATOM     12  H   LIG    1       24.413 -30.246   9.001  0.00  0.00    +0.150 HD
ATOM     13  O   LIG    1       26.486 -31.436   6.950  0.00  0.00    -0.268 OA
BRANCH  10  15
ATOM     14  N   LIG    1       23.410 -30.674   6.021  0.00  0.00    -0.078 NA
ATOM     15  C   LIG    1       24.509 -30.132   6.475  0.00  0.00    +0.190 C 
BRANCH  15  16
ATOM     16  C   LIG    1       24.798 -28.769   6.019  0.00  0.00    +0.107 A 
ATOM     17  N   LIG    1       24.009 -27.689   6.427  0.00  0.00    -0.223 NA
ATOM     18  C   LIG    1       24.417 -26.577   5.870  0.00  0.00    +0.156 A 
ATOM     19  S   LIG    1       25.811 -26.721   4.883  0.00  0.00    -0.060 S 
ATOM     20  C   LIG    1       25.832 -28.409   5.172  0.00  0.00    +0.078 A 
BRANCH  18  21
ATOM     21  N   LIG    1       23.806 -25.397   6.043  0.00  0.00    -0.338 N 
ATOM     22  H   LIG    1       22.796 -25.389   5.952  0.00  0.00    +0.144 HD
ATOM     23  H   LIG    1       24.181 -24.744   6.719  0.00  0.00    +0.144 HD
ENDBRANCH  18  21
ENDBRANCH  15  16
BRANCH  14  25
ATOM     24  C   LIG    1       23.340 -32.891   5.430  0.00  0.00    +0.313 C 
ATOM     25  O   LIG    1       23.164 -31.965   6.502  0.00  0.00    -0.396 OA
ENDBRANCH  14  25
ENDBRANCH  10  15
ENDBRANCH   1  11
BRANCH   4  26
ATOM     26  C   LIG    1       24.143 -30.590  13.580  0.00  0.00    +0.352 C 
ATOM     27  O   LIG    1       23.105 -29.962  13.506  0.00  0.00    -0.244 OA
BRANCH  26  28
ATOM     28  OXT LIG    1       24.213 -31.734  14.272  0.00  0.00    -0.476 OA
ATOM     29  HXT LIG    1       23.345 -32.184  14.195  0.00  0.00    +0.295 HD
ENDBRANCH  26  28
ENDBRANCH   4  26
BRANCH   5  30
ATOM     30  C   LIG    1       26.230 -28.616  14.620  0.00  0.00    +0.392 C 
BRANCH  30  31
ATOM     31  N   LIG    1       25.964 -27.152  14.453  0.00  0.00    -0.197 N 
ATOM     32  C   LIG    1       26.824 -26.199  14.884  0.00  0.00    +0.187 A 
ATOM     33  C   LIG    1       28.187 -26.365  15.499  0.00  0.00    +0.107 C 
ATOM     34  C   LIG    1       28.771 -24.955  15.307  0.00  0.00    +0.015 C 
ATOM     35  C   LIG    1       27.586 -23.982  15.356  0.00  0.00    +0.042 C 
ATOM     36  C   LIG    1       26.500 -24.841  14.788  0.00  0.00    +0.019 A 
ATOM     37  C   LIG    1       25.307 -24.426  14.239  0.00  0.00    +0.015 A 
ATOM     38  C   LIG    1       24.470 -25.404  13.729  0.00  0.00    +0.070 A 
ATOM     39  C   LIG    1       24.825 -26.749  13.825  0.00  0.00    +0.309 A 
ENDBRANCH  30  31
ENDBRANCH   5  30
TORSDOF 9
ENDMDL
MODEL 2
REMARK VINA RESULT:      -6.0      4.291      5.989
REMARK  Name = *****
REMARK                            x       y       z     vdW  Elec       q    Type
REMARK                         _______ _______ _______ _____ _____    ______ ____
ROOT
ATOM      1  CA  LIG    1       24.060 -32.206  11.490  0.00  0.00    +0.191 C 
ATOM      2  C   LIG    1       23.248 -31.967  12.801  0.00  0.00    +0.169 C 
ATOM      3  N   LIG    1       22.107 -31.731  11.930  0.00  0.00    -0.249 N 
ATOM      4  CA  LIG    1       20.906 -31.215  12.314  0.00  0.00    +0.128 C 
ATOM      5  C   LIG    1       20.708 -30.795  13.596  0.00  0.00    +0.033 C 
ATOM      6  C   LIG    1       21.867 -30.673  14.581  0.00  0.00    +0.110 C 
ATOM      7  S   LIG    1       23.477 -30.474  13.778  0.00  0.00    -0.131 S 
ATOM      8  C   LIG    1       22.615 -32.437  10.893  0.00  0.00    +0.244 C 
ATOM      9  O   LIG    1       22.106 -32.992   9.949  0.00  0.00    -0.273 OA
ENDROOT
BRANCH   1  11
ATOM     10  C   LIG    1       25.638 -31.252   9.795  0.00  0.00    +0.268 C 
ATOM     11  N   LIG    1       24.802 -31.079  10.875  0.00  0.00    -0.296 N 
ATOM     12  H   LIG    1       24.841 -30.160  11.317  0.00  0.00    +0.150 HD
ATOM     13  O   LIG    1       25.826 -32.340   9.268  0.00  0.00    -0.268 OA
BRANCH  10  15
ATOM     14  N   LIG    1       27.363 -29.432   9.738  0.00  0.00    -0.078 NA
ATOM     15  C   LIG    1       26.278 -29.967   9.244  0.00  0.00    +0.190 C 
BRANCH  15  16
ATOM     16  C   LIG    1       25.643 -29.244   8.138  0.00  0.00    +0.107 A 
ATOM     17  N   LIG    1       24.725 -29.878   7.295  0.00  0.00    -0.223 NA
ATOM     18  C   LIG    1       24.317 -29.064   6.354  0.00  0.00    +0.156 A 
ATOM     19  S   LIG    1       24.934 -27.468   6.448  0.00  0.00    -0.060 S 
ATOM     20  C   LIG    1       25.868 -27.918   7.812  0.00  0.00    +0.078 A 
BRANCH  18  21
ATOM     21  N   LIG    1       23.476 -29.429   5.376  0.00  0.00    -0.338 N 
ATOM     22  H   LIG    1       23.717 -29.137   4.436  0.00  0.00    +0.144 HD
ATOM     23  H   LIG    1       23.007 -30.324   5.440  0.00  0.00    +0.144 HD
ENDBRANCH  18  21
ENDBRANCH  15  16
BRANCH  14  25
ATOM     24  C   LIG    1       28.235 -29.284  11.857  0.00  0.00    +0.313 C 
ATOM     25  O   LIG    1       27.946 -30.169  10.776  0.00  0.00    -0.396 OA
ENDBRANCH  14  25
ENDBRANCH  10  15
ENDBRANCH   1  11
BRANCH   4  26
ATOM     26  C   LIG    1       19.852 -31.043  11.255  0.00  0.00    +0.352 C 
ATOM     27  O   LIG    1       18.876 -31.753  11.101  0.00  0.00    -0.244 OA
BRANCH  26  28
ATOM     28  OXT LIG    1       20.016 -29.928  10.533  0.00  0.00    -0.476 OA
ATOM     29  HXT LIG    1       20.843 -29.495  10.835  0.00  0.00    +0.295 HD
ENDBRANCH  26  28
ENDBRANCH   4  26
BRANCH   5  30
ATOM     30  C   LIG    1       19.380 -30.332  14.187  0.00  0.00    +0.392 C 
BRANCH  30  31
ATOM     31  N   LIG    1       19.227 -28.848  14.065  0.00  0.00    -0.197 N 
ATOM     32  C   LIG    1       18.080 -28.202  14.383  0.00  0.00    +0.187 A 
ATOM     33  C   LIG    1       16.816 -28.760  14.978  0.00  0.00    +0.107 C 
ATOM     34  C   LIG    1       16.145 -27.478  15.500  0.00  0.00    +0.015 C 
ATOM     35  C   LIG    1       16.586 -26.343  14.567  0.00  0.00    +0.042 C 
ATOM     36  C   LIG    1       17.948 -26.825  14.172  0.00  0.00    +0.019 A 
ATOM     37  C   LIG    1       18.980 -26.076  13.652  0.00  0.00    +0.015 A 
ATOM     38  C   LIG    1       20.175 -26.731  13.405  0.00  0.00    +0.070 A 
ATOM     39  C   LIG    1       20.283 -28.102  13.638  0.00  0.00    +0.309 A 
ENDBRANCH  30  31
ENDBRANCH   5  30
TORSDOF 9
ENDMDL
MODEL 3
REMARK VINA RESULT:      -5.7      4.038      8.267
REMARK  Name = *****
REMARK                            x       y       z     vdW  Elec       q    Type
REMARK                         _______ _______ _______ _____ _____    ______ ____
ROOT
ATOM      1  CA  LIG    1       23.144 -30.914  13.460  0.00  0.00    +0.191 C 
ATOM      2  C   LIG    1       23.717 -31.697  12.237  0.00  0.00    +0.169 C 
ATOM      3  N   LIG    1       24.848 -30.785  12.313  0.00  0.00    -0.249 N 
ATOM      4  CA  LIG    1       25.826 -30.650  11.374  0.00  0.00    +0.128 C 
ATOM      5  C   LIG    1       25.765 -31.345  10.203  0.00  0.00    +0.033 C 
ATOM      6  C   LIG    1       24.512 -32.116   9.799  0.00  0.00    +0.110 C 
ATOM      7  S   LIG    1       23.004 -31.508  10.595  0.00  0.00    -0.131 S 
ATOM      8  C   LIG    1       24.657 -30.486  13.619  0.00  0.00    +0.244 C 
ATOM      9  O   LIG    1       25.393 -30.077  14.485  0.00  0.00    -0.273 OA
ENDROOT
BRANCH   1  11
ATOM     10  C   LIG    1       21.614 -29.105  14.269  0.00  0.00    +0.268 C 
ATOM     11  N   LIG    1       22.211 -29.785  13.232  0.00  0.00    -0.296 N 
ATOM     12  H   LIG    1       21.857 -29.564  12.301  0.00  0.00    +0.150 HD
ATOM     13  O   LIG    1       21.810 -29.380  15.445  0.00  0.00    -0.268 OA
BRANCH  10  15
ATOM     14  N   LIG    1       21.170 -26.870  13.220  0.00  0.00    -0.078 NA
ATOM     15  C   LIG    1       20.723 -27.920  13.856  0.00  0.00    +0.190 C 
BRANCH  15  16
ATOM     16  C   LIG    1       19.303 -27.907  14.218  0.00  0.00    +0.107 A 
ATOM     17  N   LIG    1       18.627 -26.703  14.443  0.00  0.00    -0.223 NA
ATOM     18  C   LIG    1       17.386 -26.925  14.795  0.00  0.00    +0.156 A 
ATOM     19  S   LIG    1       16.912 -28.572  14.809  0.00  0.00    -0.060 S 
ATOM     20  C   LIG    1       18.505 -29.026  14.375  0.00  0.00    +0.078 A 
BRANCH  18  21
ATOM     21  N   LIG    1       16.527 -25.950  15.125  0.00  0.00    -0.338 N 
ATOM     22  H   LIG    1       16.915 -25.021  15.241  0.00  0.00    +0.144 HD
ATOM     23  H   LIG    1       15.585 -25.979  14.754  0.00  0.00    +0.144 HD
ENDBRANCH  18  21
ENDBRANCH  15  16
BRANCH  14  25
ATOM     24  C   LIG    1       23.236 -25.955  13.625  0.00  0.00    +0.313 C 
ATOM     25  O   LIG    1       22.525 -26.939  12.875  0.00  0.00    -0.396 OA
ENDBRANCH  14  25
ENDBRANCH  10  15
ENDBRANCH   1  11
BRANCH   4  26
ATOM     26  C   LIG    1       26.911 -29.643  11.640  0.00  0.00    +0.352 C 
ATOM     27  O   LIG    1       26.949 -28.508  11.206  0.00  0.00    -0.244 OA
BRANCH  26  28
ATOM     28  OXT LIG    1       27.815 -30.075  12.528  0.00  0.00    -0.476 OA
ATOM     29  HXT LIG    1       28.447 -30.656  12.054  0.00  0.00    +0.295 HD
ENDBRANCH  26  28
ENDBRANCH   4  26
BRANCH   5  30
ATOM     30  C   LIG    1       26.855 -31.391   9.136  0.00  0.00    +0.392 C 
BRANCH  30  31
ATOM     31  N   LIG    1       26.263 -31.345   7.762  0.00  0.00    -0.197 N 
ATOM     32  C   LIG    1       25.573 -30.276   7.298  0.00  0.00    +0.187 A 
ATOM     33  C   LIG    1       25.335 -28.946   7.961  0.00  0.00    +0.107 C 
ATOM     34  C   LIG    1       24.924 -28.085   6.754  0.00  0.00    +0.015 C 
ATOM     35  C   LIG    1       24.233 -29.027   5.761  0.00  0.00    +0.042 C 
ATOM     36  C   LIG    1       24.961 -30.305   6.040  0.00  0.00    +0.019 A 
ATOM     37  C   LIG    1       25.050 -31.411   5.225  0.00  0.00    +0.015 A 
ATOM     38  C   LIG    1       25.824 -32.468   5.674  0.00  0.00    +0.070 A 
ATOM     39  C   LIG    1       26.435 -32.406   6.926  0.00  0.00    +0.309 A 
ENDBRANCH  30  31
ENDBRANCH   5  30
TORSDOF 9
ENDMDL
MODEL 4
REMARK VINA RESULT:      -5.6      1.305      2.346
REMARK  Name = *****
REMARK                            x       y       z     vdW  Elec       q    Type
REMARK                         _______ _______ _______ _____ _____    ______ ____
ROOT
ATOM      1  CA  LIG    1       26.978 -30.801   9.210  0.00  0.00    +0.191 C 
ATOM      2  C   LIG    1       27.335 -30.026  10.516  0.00  0.00    +0.169 C 
ATOM      3  N   LIG    1       26.285 -30.811  11.147  0.00  0.00    -0.249 N 
ATOM      4  CA  LIG    1       25.762 -30.592  12.386  0.00  0.00    +0.128 C 
ATOM      5  C   LIG    1       26.156 -29.517  13.127  0.00  0.00    +0.033 C 
ATOM      6  C   LIG    1       27.015 -28.409  12.525  0.00  0.00    +0.110 C 
ATOM      7  S   LIG    1       26.887 -28.295  10.723  0.00  0.00    -0.131 S 
ATOM      8  C   LIG    1       26.344 -31.816  10.242  0.00  0.00    +0.244 C 
ATOM      9  O   LIG    1       26.033 -32.982  10.287  0.00  0.00    -0.273 OA
ENDROOT
BRANCH   1  11
ATOM     10  C   LIG    1       25.640 -30.858   7.094  0.00  0.00    +0.268 C 
ATOM     11  N   LIG    1       26.007 -30.215   8.255  0.00  0.00    -0.296 N 
ATOM     12  H   LIG    1       25.688 -29.250   8.342  0.00  0.00    +0.150 HD
ATOM     13  O   LIG    1       26.083 -31.951   6.770  0.00  0.00    -0.268 OA
BRANCH  10  15
ATOM     14  N   LIG    1       23.461 -30.700   5.861  0.00  0.00    -0.078 NA
ATOM     15  C   LIG    1       24.574 -30.137   6.250  0.00  0.00    +0.190 C 
BRANCH  15  16
ATOM     16  C   LIG    1       24.803 -28.763   5.795  0.00  0.00    +0.107 A 
ATOM     17  N   LIG    1       24.048 -27.700   6.302  0.00  0.00    -0.223 NA
ATOM     18  C   LIG    1       24.387 -26.573   5.729  0.00  0.00    +0.156 A 
ATOM     19  S   LIG    1       25.677 -26.681   4.606  0.00  0.00    -0.060 S 
ATOM     20  C   LIG    1       25.743 -28.374   4.857  0.00  0.00    +0.078 A 
BRANCH  18  21
ATOM     21  N   LIG    1       23.783 -25.404   5.986  0.00  0.00    -0.338 N 
ATOM     22  H   LIG    1       24.367 -24.576   5.969  0.00  0.00    +0.144 HD
ATOM     23  H   LIG    1       22.831 -25.263   5.670  0.00  0.00    +0.144 HD
ENDBRANCH  18  21
ENDBRANCH  15  16
BRANCH  14  25
ATOM     24  C   LIG    1       23.237 -32.894   5.225  0.00  0.00    +0.313 C 
ATOM     25  O   LIG    1       23.276 -32.002   6.339  0.00  0.00    -0.396 OA
ENDBRANCH  14  25
ENDBRANCH  10  15
ENDBRANCH   1  11
BRANCH   4  26
ATOM     26  C   LIG    1       24.675 -31.519  12.856  0.00  0.00    +0.352 C 
ATOM     27  O   LIG    1       23.536 -31.552  12.431  0.00  0.00    -0.244 OA
BRANCH  26  28
ATOM     28  OXT LIG    1       25.110 -32.426  13.739  0.00  0.00    -0.476 OA
ATOM     29  HXT LIG    1       25.745 -33.014  13.276  0.00  0.00    +0.295 HD
ENDBRANCH  26  28
ENDBRANCH   4  26
BRANCH   5  30
ATOM     30  C   LIG    1       25.757 -29.235  14.572  0.00  0.00    +0.392 C 
BRANCH  30  31
ATOM     31  N   LIG    1       25.098 -27.896  14.694  0.00  0.00    -0.197 N 
ATOM     32  C   LIG    1       23.907 -27.612  14.118  0.00  0.00    +0.187 A 
ATOM     33  C   LIG    1       22.984 -28.525  13.356  0.00  0.00    +0.107 C 
ATOM     34  C   LIG    1       21.671 -27.725  13.406  0.00  0.00    +0.015 C 
ATOM     35  C   LIG    1       22.064 -26.243  13.448  0.00  0.00    +0.042 C 
ATOM     36  C   LIG    1       23.366 -26.323  14.182  0.00  0.00    +0.019 A 
ATOM     37  C   LIG    1       24.015 -25.305  14.846  0.00  0.00    +0.015 A 
ATOM     38  C   LIG    1       25.192 -25.625  15.500  0.00  0.00    +0.070 A 
ATOM     39  C   LIG    1       25.701 -26.923  15.430  0.00  0.00    +0.309 A 
ENDBRANCH  30  31
ENDBRANCH   5  30
TORSDOF 9
ENDMDL
MODEL 5
REMARK VINA RESULT:      -5.3      4.542      6.534
REMARK  Name = *****
REMARK                            x       y       z     vdW  Elec       q    Type
REMARK                         _______ _______ _______ _____ _____    ______ ____
ROOT
ATOM      1  CA  LIG    1       22.841 -33.327  11.031  0.00  0.00    +0.191 C 
ATOM      2  C   LIG    1       22.226 -32.990  12.425  0.00  0.00    +0.169 C 
ATOM      3  N   LIG    1       21.081 -32.483  11.684  0.00  0.00    -0.249 N 
ATOM      4  CA  LIG    1       20.056 -31.752  12.204  0.00  0.00    +0.128 C 
ATOM      5  C   LIG    1       20.074 -31.361  13.510  0.00  0.00    +0.033 C 
ATOM      6  C   LIG    1       21.322 -31.526  14.373  0.00  0.00    +0.110 C 
ATOM      7  S   LIG    1       22.854 -31.624  13.413  0.00  0.00    -0.131 S 
ATOM      8  C   LIG    1       21.329 -33.229  10.582  0.00  0.00    +0.244 C 
ATOM      9  O   LIG    1       20.627 -33.623   9.681  0.00  0.00    -0.273 OA
ENDROOT
BRANCH   1  11
ATOM     10  C   LIG    1       25.110 -32.431  10.467  0.00  0.00    +0.268 C 
ATOM     11  N   LIG    1       23.739 -32.349  10.373  0.00  0.00    -0.296 N 
ATOM     12  H   LIG    1       23.378 -31.492   9.951  0.00  0.00    +0.150 HD
ATOM     13  O   LIG    1       25.681 -33.311  11.095  0.00  0.00    -0.268 OA
BRANCH  10  15
ATOM     14  N   LIG    1       26.055 -31.419   8.376  0.00  0.00    -0.078 NA
ATOM     15  C   LIG    1       25.890 -31.371   9.671  0.00  0.00    +0.190 C 
BRANCH  15  16
ATOM     16  C   LIG    1       26.541 -30.258  10.369  0.00  0.00    +0.107 A 
ATOM     17  N   LIG    1       27.838 -30.385  10.877  0.00  0.00    -0.223 NA
ATOM     18  C   LIG    1       28.204 -29.292  11.497  0.00  0.00    +0.156 A 
ATOM     19  S   LIG    1       27.067 -28.010  11.454  0.00  0.00    -0.060 S 
ATOM     20  C   LIG    1       25.976 -29.016  10.598  0.00  0.00    +0.078 A 
BRANCH  18  21
ATOM     21  N   LIG    1       29.379 -29.159  12.128  0.00  0.00    -0.338 N 
ATOM     22  H   LIG    1       29.696 -28.214  12.308  0.00  0.00    +0.144 HD
ATOM     23  H   LIG    1       29.639 -29.840  12.831  0.00  0.00    +0.144 HD
ENDBRANCH  18  21
ENDBRANCH  15  16
BRANCH  14  25
ATOM     24  C   LIG    1       24.622 -31.968   6.668  0.00  0.00    +0.313 C 
ATOM     25  O   LIG    1       25.396 -32.484   7.750  0.00  0.00    -0.396 OA
ENDBRANCH  14  25
ENDBRANCH  10  15
ENDBRANCH   1  11
BRANCH   4  26
ATOM     26  C   LIG    1       18.965 -31.318  11.265  0.00  0.00    +0.352 C 
ATOM     27  O   LIG    1       17.826 -31.745  11.253  0.00  0.00    -0.244 OA
BRANCH  26  28
ATOM     28  OXT LIG    1       19.328 -30.293  10.483  0.00  0.00    -0.476 OA
ATOM     29  HXT LIG    1       20.275 -30.409  10.258  0.00  0.00    +0.295 HD
ENDBRANCH  26  28
ENDBRANCH   4  26
BRANCH   5  30
ATOM     30  C   LIG    1       18.935 -30.665  14.248  0.00  0.00    +0.392 C 
BRANCH  30  31
ATOM     31  N   LIG    1       19.044 -29.177  14.120  0.00  0.00    -0.197 N 
ATOM     32  C   LIG    1       18.022 -28.340  14.417  0.00  0.00    +0.187 A 
ATOM     33  C   LIG    1       16.670 -28.668  14.992  0.00  0.00    +0.107 C 
ATOM     34  C   LIG    1       16.223 -27.286  15.500  0.00  0.00    +0.015 C 
ATOM     35  C   LIG    1       16.869 -26.250  14.572  0.00  0.00    +0.042 C 
ATOM     36  C   LIG    1       18.133 -26.962  14.202  0.00  0.00    +0.019 A 
ATOM     37  C   LIG    1       19.288 -26.407  13.697  0.00  0.00    +0.015 A 
ATOM     38  C   LIG    1       20.355 -27.260  13.472  0.00  0.00    +0.070 A 
ATOM     39  C   LIG    1       20.220 -28.628  13.709  0.00  0.00    +0.309 A 
ENDBRANCH  30  31
ENDBRANCH   5  30
TORSDOF 9
ENDMDL
MODEL 6
REMARK VINA RESULT:      -5.3      3.443      4.800
REMARK  Name = *****
REMARK                            x       y       z     vdW  Elec       q    Type
REMARK                         _______ _______ _______ _____ _____    ______ ____
ROOT
ATOM      1  CA  LIG    1       24.595 -31.454  10.660  0.00  0.00    +0.191 C 
ATOM      2  C   LIG    1       24.515 -30.743  12.047  0.00  0.00    +0.169 C 
ATOM      3  N   LIG    1       23.189 -31.331  12.158  0.00  0.00    -0.249 N 
ATOM      4  CA  LIG    1       22.254 -31.015  13.098  0.00  0.00    +0.128 C 
ATOM      5  C   LIG    1       22.485 -30.021  14.001  0.00  0.00    +0.033 C 
ATOM      6  C   LIG    1       23.679 -29.082  13.862  0.00  0.00    +0.110 C 
ATOM      7  S   LIG    1       24.307 -28.960  12.168  0.00  0.00    -0.131 S 
ATOM      8  C   LIG    1       23.444 -32.337  11.289  0.00  0.00    +0.244 C 
ATOM      9  O   LIG    1       22.957 -33.430  11.131  0.00  0.00    -0.273 OA
ENDROOT
BRANCH   1  11
ATOM     10  C   LIG    1       25.055 -30.546   8.372  0.00  0.00    +0.268 C 
ATOM     11  N   LIG    1       24.199 -30.715   9.437  0.00  0.00    -0.296 N 
ATOM     12  H   LIG    1       23.334 -30.175   9.395  0.00  0.00    +0.150 HD
ATOM     13  O   LIG    1       26.194 -30.991   8.358  0.00  0.00    -0.268 OA
BRANCH  10  15
ATOM     14  N   LIG    1       23.668 -30.376   6.289  0.00  0.00    -0.078 NA
ATOM     15  C   LIG    1       24.460 -29.809   7.159  0.00  0.00    +0.190 C 
BRANCH  15  16
ATOM     16  C   LIG    1       24.816 -28.411   6.902  0.00  0.00    +0.107 A 
ATOM     17  N   LIG    1       24.050 -27.618   6.042  0.00  0.00    -0.223 NA
ATOM     18  C   LIG    1       24.569 -26.422   5.924  0.00  0.00    +0.156 A 
ATOM     19  S   LIG    1       25.959 -26.130   6.883  0.00  0.00    -0.060 S 
ATOM     20  C   LIG    1       25.899 -27.745   7.450  0.00  0.00    +0.078 A 
BRANCH  18  21
ATOM     21  N   LIG    1       24.069 -25.476   5.117  0.00  0.00    -0.338 N 
ATOM     22  H   LIG    1       24.336 -25.522   4.141  0.00  0.00    +0.144 HD
ATOM     23  H   LIG    1       23.134 -25.128   5.290  0.00  0.00    +0.144 HD
ENDBRANCH  18  21
ENDBRANCH  15  16
BRANCH  14  25
ATOM     24  C   LIG    1       23.882 -32.548   5.576  0.00  0.00    +0.313 C 
ATOM     25  O   LIG    1       23.338 -31.703   6.589  0.00  0.00    -0.396 OA
ENDBRANCH  14  25
ENDBRANCH  10  15
ENDBRANCH   1  11
BRANCH   4  26
ATOM     26  C   LIG    1       20.936 -31.737  13.037  0.00  0.00    +0.352 C 
ATOM     27  O   LIG    1       20.615 -32.690  13.721  0.00  0.00    -0.244 OA
BRANCH  26  28
ATOM     28  OXT LIG    1       20.058 -31.149  12.215  0.00  0.00    -0.476 OA
ATOM     29  HXT LIG    1       20.225 -30.183  12.240  0.00  0.00    +0.295 HD
ENDBRANCH  26  28
ENDBRANCH   4  26
BRANCH   5  30
ATOM     30  C   LIG    1       21.589 -29.664  15.183  0.00  0.00    +0.392 C 
BRANCH  30  31
ATOM     31  N   LIG    1       20.610 -28.594  14.810  0.00  0.00    -0.197 N 
ATOM     32  C   LIG    1       19.271 -28.786  14.835  0.00  0.00    +0.187 A 
ATOM     33  C   LIG    1       18.498 -29.992  15.297  0.00  0.00    +0.107 C 
ATOM     34  C   LIG    1       17.099 -29.386  15.500  0.00  0.00    +0.015 C 
ATOM     35  C   LIG    1       16.968 -28.242  14.487  0.00  0.00    +0.042 C 
ATOM     36  C   LIG    1       18.392 -27.789  14.396  0.00  0.00    +0.019 A 
ATOM     37  C   LIG    1       18.855 -26.575  13.940  0.00  0.00    +0.015 A 
ATOM     38  C   LIG    1       20.222 -26.358  13.993  0.00  0.00    +0.070 A 
ATOM     39  C   LIG    1       21.073 -27.365  14.449  0.00  0.00    +0.309 A 
ENDBRANCH  30  31
ENDBRANCH   5  30
TORSDOF 9
ENDMDL
MODEL 7
REMARK VINA RESULT:      -5.2      4.150      7.971
REMARK  Name = *****
REMARK                            x       y       z     vdW  Elec       q    Type
REMARK                         _______ _______ _______ _____ _____    ______ ____
ROOT
ATOM      1  CA  LIG    1       22.863 -32.398  13.153  0.00  0.00    +0.191 C 
ATOM      2  C   LIG    1       23.711 -32.888  11.938  0.00  0.00    +0.169 C 
ATOM      3  N   LIG    1       24.534 -31.710  12.169  0.00  0.00    -0.249 N 
ATOM      4  CA  LIG    1       25.495 -31.233  11.328  0.00  0.00    +0.128 C 
ATOM      5  C   LIG    1       25.709 -31.816  10.115  0.00  0.00    +0.033 C 
ATOM      6  C   LIG    1       24.751 -32.865   9.557  0.00  0.00    +0.110 C 
ATOM      7  S   LIG    1       23.085 -32.765  10.256  0.00  0.00    -0.131 S 
ATOM      8  C   LIG    1       24.181 -31.586  13.470  0.00  0.00    +0.244 C 
ATOM      9  O   LIG    1       24.714 -31.065  14.420  0.00  0.00    -0.273 OA
ENDROOT
BRANCH   1  11
ATOM     10  C   LIG    1       20.761 -31.268  13.912  0.00  0.00    +0.268 C 
ATOM     11  N   LIG    1       21.667 -31.554  12.916  0.00  0.00    -0.296 N 
ATOM     12  H   LIG    1       21.387 -31.276  11.975  0.00  0.00    +0.150 HD
ATOM     13  O   LIG    1       20.877 -31.686  15.056  0.00  0.00    -0.268 OA
BRANCH  10  15
ATOM     14  N   LIG    1       18.716 -30.627  12.608  0.00  0.00    -0.078 NA
ATOM     15  C   LIG    1       19.613 -30.326  13.509  0.00  0.00    +0.190 C 
BRANCH  15  16
ATOM     16  C   LIG    1       19.513 -28.991  14.107  0.00  0.00    +0.107 A 
ATOM     17  N   LIG    1       18.269 -28.400  14.349  0.00  0.00    -0.223 NA
ATOM     18  C   LIG    1       18.413 -27.197  14.844  0.00  0.00    +0.156 A 
ATOM     19  S   LIG    1       20.032 -26.712  15.129  0.00  0.00    -0.060 S 
ATOM     20  C   LIG    1       20.584 -28.198  14.481  0.00  0.00    +0.078 A 
BRANCH  18  21
ATOM     21  N   LIG    1       17.384 -26.383  15.117  0.00  0.00    -0.338 N 
ATOM     22  H   LIG    1       16.596 -26.415  14.481  0.00  0.00    +0.144 HD
ATOM     23  H   LIG    1       17.147 -26.199  16.084  0.00  0.00    +0.144 HD
ENDBRANCH  18  21
ENDBRANCH  15  16
BRANCH  14  25
ATOM     24  C   LIG    1       18.835 -31.833  10.659  0.00  0.00    +0.313 C 
ATOM     25  O   LIG    1       18.838 -31.919  12.084  0.00  0.00    -0.396 OA
ENDBRANCH  14  25
ENDBRANCH  10  15
ENDBRANCH   1  11
BRANCH   4  26
ATOM     26  C   LIG    1       26.234 -29.992  11.750  0.00  0.00    +0.352 C 
ATOM     27  O   LIG    1       25.920 -28.850  11.475  0.00  0.00    -0.244 OA
BRANCH  26  28
ATOM     28  OXT LIG    1       27.245 -30.249  12.588  0.00  0.00    -0.476 OA
ATOM     29  HXT LIG    1       28.063 -29.877  12.195  0.00  0.00    +0.295 HD
ENDBRANCH  26  28
ENDBRANCH   4  26
BRANCH   5  30
ATOM     30  C   LIG    1       26.836 -31.472   9.147  0.00  0.00    +0.392 C 
BRANCH  30  31
ATOM     31  N   LIG    1       26.334 -31.420   7.737  0.00  0.00    -0.197 N 
ATOM     32  C   LIG    1       25.550 -30.417   7.276  0.00  0.00    +0.187 A 
ATOM     33  C   LIG    1       25.106 -29.164   7.982  0.00  0.00    +0.107 C 
ATOM     34  C   LIG    1       24.672 -28.293   6.791  0.00  0.00    +0.015 C 
ATOM     35  C   LIG    1       24.169 -29.254   5.707  0.00  0.00    +0.042 C 
ATOM     36  C   LIG    1       25.030 -30.449   5.977  0.00  0.00    +0.019 A 
ATOM     37  C   LIG    1       25.309 -31.489   5.119  0.00  0.00    +0.015 A 
ATOM     38  C   LIG    1       26.176 -32.469   5.572  0.00  0.00    +0.070 A 
ATOM     39  C   LIG    1       26.691 -32.404   6.867  0.00  0.00    +0.309 A 
ENDBRANCH  30  31
ENDBRANCH   5  30
TORSDOF 9
ENDMDL
MODEL 8
REMARK VINA RESULT:      -5.2      4.222      8.246
REMARK  Name = *****
REMARK                            x       y       z     vdW  Elec       q    Type
REMARK                         _______ _______ _______ _____ _____    ______ ____
ROOT
ATOM      1  CA  LIG    1       22.478 -32.536  13.169  0.00  0.00    +0.191 C 
ATOM      2  C   LIG    1       23.314 -33.023  11.944  0.00  0.00    +0.169 C 
ATOM      3  N   LIG    1       24.160 -31.865  12.191  0.00  0.00    -0.249 N 
ATOM      4  CA  LIG    1       25.128 -31.394  11.356  0.00  0.00    +0.128 C 
ATOM      5  C   LIG    1       25.328 -31.962  10.133  0.00  0.00    +0.033 C 
ATOM      6  C   LIG    1       24.349 -32.983   9.561  0.00  0.00    +0.110 C 
ATOM      7  S   LIG    1       22.686 -32.861  10.265  0.00  0.00    -0.131 S 
ATOM      8  C   LIG    1       23.813 -31.755  13.495  0.00  0.00    +0.244 C 
ATOM      9  O   LIG    1       24.358 -31.260  14.452  0.00  0.00    -0.273 OA
ENDROOT
BRANCH   1  11
ATOM     10  C   LIG    1       20.378 -31.411  13.939  0.00  0.00    +0.268 C 
ATOM     11  N   LIG    1       21.299 -31.666  12.948  0.00  0.00    -0.296 N 
ATOM     12  H   LIG    1       21.040 -31.342  12.015  0.00  0.00    +0.150 HD
ATOM     13  O   LIG    1       20.467 -31.880  15.066  0.00  0.00    -0.268 OA
BRANCH  10  15
ATOM     14  N   LIG    1       18.295 -30.731  12.718  0.00  0.00    -0.078 NA
ATOM     15  C   LIG    1       19.251 -30.435  13.558  0.00  0.00    +0.190 C 
BRANCH  15  16
ATOM     16  C   LIG    1       19.239 -29.076  14.105  0.00  0.00    +0.107 A 
ATOM     17  N   LIG    1       18.038 -28.443  14.440  0.00  0.00    -0.223 NA
ATOM     18  C   LIG    1       18.256 -27.225  14.867  0.00  0.00    +0.156 A 
ATOM     19  S   LIG    1       19.904 -26.771  14.975  0.00  0.00    -0.060 S 
ATOM     20  C   LIG    1       20.358 -28.296  14.341  0.00  0.00    +0.078 A 
BRANCH  18  21
ATOM     21  N   LIG    1       17.276 -26.374  15.203  0.00  0.00    -0.338 N 
ATOM     22  H   LIG    1       17.400 -25.851  16.062  0.00  0.00    +0.144 HD
ATOM     23  H   LIG    1       16.780 -25.883  14.469  0.00  0.00    +0.144 HD
ENDBRANCH  18  21
ENDBRANCH  15  16
BRANCH  14  25
ATOM     24  C   LIG    1       18.263 -32.016  10.816  0.00  0.00    +0.313 C 
ATOM     25  O   LIG    1       18.335 -32.046  12.241  0.00  0.00    -0.396 OA
ENDBRANCH  14  25
ENDBRANCH  10  15
ENDBRANCH   1  11
BRANCH   4  26
ATOM     26  C   LIG    1       25.892 -30.175  11.796  0.00  0.00    +0.352 C 
ATOM     27  O   LIG    1       25.606 -29.023  11.531  0.00  0.00    -0.244 OA
BRANCH  26  28
ATOM     28  OXT LIG    1       26.892 -30.463  12.638  0.00  0.00    -0.476 OA
ATOM     29  HXT LIG    1       27.714 -30.072  12.272  0.00  0.00    +0.295 HD
ENDBRANCH  26  28
ENDBRANCH   4  26
BRANCH   5  30
ATOM     30  C   LIG    1       26.460 -31.624   9.168  0.00  0.00    +0.392 C 
BRANCH  30  31
ATOM     31  N   LIG    1       25.923 -31.050   7.893  0.00  0.00    -0.197 N 
ATOM     32  C   LIG    1       26.049 -31.674   6.699  0.00  0.00    +0.187 A 
ATOM     33  C   LIG    1       26.628 -33.031   6.399  0.00  0.00    +0.107 C 
ATOM     34  C   LIG    1       26.046 -33.297   5.000  0.00  0.00    +0.015 C 
ATOM     35  C   LIG    1       25.886 -31.929   4.326  0.00  0.00    +0.042 C 
ATOM     36  C   LIG    1       25.612 -31.065   5.518  0.00  0.00    +0.019 A 
ATOM     37  C   LIG    1       25.023 -29.820   5.529  0.00  0.00    +0.015 A 
ATOM     38  C   LIG    1       24.825 -29.224   6.763  0.00  0.00    +0.070 A 
ATOM     39  C   LIG    1       25.259 -29.862   7.926  0.00  0.00    +0.309 A 
ENDBRANCH  30  31
ENDBRANCH   5  30
TORSDOF 9
ENDMDL
MODEL 9
REMARK VINA RESULT:      -5.1      4.132      8.586
REMARK  Name = *****
REMARK                            x       y       z     vdW  Elec       q    Type
REMARK                         _______ _______ _______ _____ _____    ______ ____
ROOT
ATOM      1  CA  LIG    1       24.194 -30.184  13.052  0.00  0.00    +0.191 C 
ATOM      2  C   LIG    1       24.945 -31.383  12.394  0.00  0.00    +0.169 C 
ATOM      3  N   LIG    1       25.261 -30.460  11.314  0.00  0.00    -0.249 N 
ATOM      4  CA  LIG    1       25.794 -30.799  10.107  0.00  0.00    +0.128 C 
ATOM      5  C   LIG    1       26.010 -32.106   9.785  0.00  0.00    +0.033 C 
ATOM      6  C   LIG    1       25.466 -33.238  10.651  0.00  0.00    +0.110 C 
ATOM      7  S   LIG    1       24.043 -32.756  11.659  0.00  0.00    -0.131 S 
ATOM      8  C   LIG    1       25.116 -29.351  12.076  0.00  0.00    +0.244 C 
ATOM      9  O   LIG    1       25.554 -28.229  11.986  0.00  0.00    -0.273 OA
ENDROOT
BRANCH   1  11
ATOM     10  C   LIG    1       21.791 -30.563  13.645  0.00  0.00    +0.268 C 
ATOM     11  N   LIG    1       22.741 -30.013  12.815  0.00  0.00    -0.296 N 
ATOM     12  H   LIG    1       22.385 -29.610  11.947  0.00  0.00    +0.150 HD
ATOM     13  O   LIG    1       22.076 -31.227  14.633  0.00  0.00    -0.268 OA
BRANCH  10  15
ATOM     14  N   LIG    1       19.659 -30.859  12.358  0.00  0.00    -0.078 NA
ATOM     15  C   LIG    1       20.331 -30.234  13.288  0.00  0.00    +0.190 C 
BRANCH  15  16
ATOM     16  C   LIG    1       19.637 -29.136  13.967  0.00  0.00    +0.107 A 
ATOM     17  N   LIG    1       20.320 -27.977  14.349  0.00  0.00    -0.223 NA
ATOM     18  C   LIG    1       19.522 -27.151  14.975  0.00  0.00    +0.156 A 
ATOM     19  S   LIG    1       17.888 -27.655  15.088  0.00  0.00    -0.060 S 
ATOM     20  C   LIG    1       18.294 -29.119  14.297  0.00  0.00    +0.078 A 
BRANCH  18  21
ATOM     21  N   LIG    1       19.929 -25.986  15.500  0.00  0.00    -0.338 N 
ATOM     22  H   LIG    1       20.359 -26.025  16.417  0.00  0.00    +0.144 HD
ATOM     23  H   LIG    1       20.296 -25.272  14.884  0.00  0.00    +0.144 HD
ENDBRANCH  18  21
ENDBRANCH  15  16
BRANCH  14  25
ATOM     24  C   LIG    1       20.489 -31.632  10.362  0.00  0.00    +0.313 C 
ATOM     25  O   LIG    1       20.353 -31.914  11.755  0.00  0.00    -0.396 OA
ENDBRANCH  14  25
ENDBRANCH  10  15
ENDBRANCH   1  11
BRANCH   4  26
ATOM     26  C   LIG    1       26.042 -29.691   9.121  0.00  0.00    +0.352 C 
ATOM     27  O   LIG    1       25.255 -29.297   8.281  0.00  0.00    -0.244 OA
BRANCH  26  28
ATOM     28  OXT LIG    1       27.207 -29.064   9.325  0.00  0.00    -0.476 OA
ATOM     29  HXT LIG    1       27.782 -29.238   8.549  0.00  0.00    +0.295 HD
ENDBRANCH  26  28
ENDBRANCH   4  26
BRANCH   5  30
ATOM     30  C   LIG    1       26.725 -32.610   8.535  0.00  0.00    +0.392 C 
BRANCH  30  31
ATOM     31  N   LIG    1       25.768 -32.751   7.391  0.00  0.00    -0.197 N 
ATOM     32  C   LIG    1       26.177 -32.931   6.114  0.00  0.00    +0.187 A 
ATOM     33  C   LIG    1       27.575 -33.114   5.586  0.00  0.00    +0.107 C 
ATOM     34  C   LIG    1       27.291 -33.718   4.200  0.00  0.00    +0.015 C 
ATOM     35  C   LIG    1       25.944 -33.146   3.743  0.00  0.00    +0.042 C 
ATOM     36  C   LIG    1       25.256 -32.972   5.061  0.00  0.00    +0.019 A 
ATOM     37  C   LIG    1       23.903 -32.847   5.288  0.00  0.00    +0.015 A 
ATOM     38  C   LIG    1       23.489 -32.743   6.605  0.00  0.00    +0.070 A 
ATOM     39  C   LIG    1       24.430 -32.720   7.635  0.00  0.00    +0.309 A 
ENDBRANCH  30  31
ENDBRANCH   5  30
TORSDOF 9
ENDMDL
