MODEL 1
REMARK VINA RESULT:      -9.4      0.000      0.000
REMARK  Name = *****
REMARK                            x       y       z     vdW  Elec       q    Type
REMARK                         _______ _______ _______ _____ _____    ______ ____
ROOT
ATOM      1  C   LIG    1       23.412 -23.073   6.667  0.00  0.00    +0.166 C 
ENDROOT
BRANCH   1   2
ATOM      2  O   LIG    1       22.136 -23.727   6.602  0.00  0.00    -0.387 OA
ATOM      3  H   LIG    1       22.092 -24.135   5.715  0.00  0.00    +0.210 HD
ENDBRANCH   1   2
BRANCH   1   4
ATOM      4  C   LIG    1       24.527 -24.125   6.722  0.00  0.00    +0.115 C 
BRANCH   4   5
ATOM      5  N   LIG    1       25.258 -24.192   5.453  0.00  0.00    -0.310 NA
ATOM      6  H   LIG    1       24.913 -23.461   4.830  0.00  0.00    +0.122 HD
BRANCH   5   7
ATOM      7  C   LIG    1       25.084 -25.485   4.779  0.00  0.00    +0.122 C 
BRANCH   7   8
ATOM      8  C   LIG    1       24.348 -26.570   5.582  0.00  0.00    +0.244 C 
BRANCH   8   9
ATOM      9  O   LIG    1       25.100 -27.787   5.591  0.00  0.00    -0.487 OA
BRANCH   9  11
ATOM     10  C   LIG    1       24.582 -29.628   7.200  0.00  0.00    +0.162 A 
ATOM     11  C   LIG    1       25.221 -28.438   6.796  0.00  0.00    +0.162 A 
ATOM     12  C   LIG    1       26.100 -27.790   7.678  0.00  0.00    +0.049 A 
ATOM     13  C   LIG    1       26.296 -28.267   8.972  0.00  0.00    +0.004 A 
ATOM     14  C   LIG    1       25.622 -29.408   9.392  0.00  0.00    +0.004 A 
ATOM     15  C   LIG    1       24.776 -30.085   8.510  0.00  0.00    +0.049 A 
BRANCH  10  17
ATOM     16  C   LIG    1       23.799 -31.646   6.140  0.00  0.00    +0.277 C 
ATOM     17  O   LIG    1       23.725 -30.240   6.329  0.00  0.00    -0.491 OA
ENDBRANCH  10  17
ENDBRANCH   9  11
ENDBRANCH   8   9
ENDBRANCH   7   8
ENDBRANCH   5   7
ENDBRANCH   4   5
ENDBRANCH   1   4
BRANCH   1  18
ATOM     18  C   LIG    1       23.413 -22.087   7.843  0.00  0.00    +0.261 C 
BRANCH  18  19
ATOM     19  O   LIG    1       23.271 -20.724   7.400  0.00  0.00    -0.489 OA
BRANCH  19  20
ATOM     20  C   LIG    1       23.733 -20.442   6.127  0.00  0.00    +0.130 C 
ATOM     21  C   LIG    1       25.140 -20.355   5.887  0.00  0.00    +0.049 C 
ATOM     22  C   LIG    1       25.566 -19.920   4.627  0.00  0.00    +0.051 C 
ATOM     23  N   LIG    1       26.933 -19.847   4.648  0.00  0.00    -0.354 NA
ATOM     24  H   LIG    1       27.502 -19.545   3.867  0.00  0.00    +0.166 HD
ATOM     25  C   LIG    1       27.435 -20.272   5.844  0.00  0.00    +0.048 C 
ATOM     26  C   LIG    1       28.772 -20.373   6.257  0.00  0.00    +0.026 C 
ATOM     27  C   LIG    1       29.016 -20.884   7.529  0.00  0.00    +0.002 C 
ATOM     28  C   LIG    1       27.965 -21.279   8.349  0.00  0.00    +0.001 C 
ATOM     29  C   LIG    1       26.628 -21.153   7.926  0.00  0.00    +0.010 C 
ATOM     30  C   LIG    1       24.699 -19.619   3.574  0.00  0.00    +0.026 C 
ATOM     31  C   LIG    1       23.339 -19.773   3.794  0.00  0.00    +0.006 C 
ATOM     32  C   LIG    1       26.344 -20.625   6.646  0.00  0.00    +0.011 C 
ATOM     33  C   LIG    1       22.869 -20.181   5.038  0.00  0.00    +0.046 C 
ENDBRANCH  19  20
ENDBRANCH  18  19
ENDBRANCH   1  18
TORSDOF 11
ENDMDL
MODEL 2
REMARK VINA RESULT:      -9.1      1.168      3.207
REMARK  Name = *****
REMARK                            x       y       z     vdW  Elec       q    Type
REMARK                         _______ _______ _______ _____ _____    ______ ____
ROOT
ATOM      1  C   LIG    1       24.588 -24.173   6.022  0.00  0.00    +0.166 C 
ENDROOT
BRANCH   1   2
ATOM      2  O   LIG    1       23.300 -24.577   6.507  0.00  0.00    -0.387 OA
ATOM      3  H   LIG    1       22.668 -24.369   5.790  0.00  0.00    +0.210 HD
ENDBRANCH   1   2
BRANCH   1   4
ATOM      4  C   LIG    1       25.083 -25.177   4.974  0.00  0.00    +0.115 C 
BRANCH   4   5
ATOM      5  N   LIG    1       26.239 -25.933   5.466  0.00  0.00    -0.310 NA
ATOM      6  H   LIG    1       27.094 -25.498   5.119  0.00  0.00    +0.122 HD
BRANCH   5   7
ATOM      7  C   LIG    1       26.223 -27.331   5.014  0.00  0.00    +0.122 C 
BRANCH   7   8
ATOM      8  C   LIG    1       24.943 -28.123   5.323  0.00  0.00    +0.244 C 
BRANCH   8   9
ATOM      9  O   LIG    1       24.551 -27.936   6.686  0.00  0.00    -0.487 OA
BRANCH   9  11
ATOM     10  C   LIG    1       24.650 -30.159   7.825  0.00  0.00    +0.162 A 
ATOM     11  C   LIG    1       25.051 -28.824   7.608  0.00  0.00    +0.162 A 
ATOM     12  C   LIG    1       26.079 -28.274   8.390  0.00  0.00    +0.049 A 
ATOM     13  C   LIG    1       26.660 -29.004   9.424  0.00  0.00    +0.004 A 
ATOM     14  C   LIG    1       26.226 -30.300   9.677  0.00  0.00    +0.004 A 
ATOM     15  C   LIG    1       25.233 -30.873   8.880  0.00  0.00    +0.049 A 
BRANCH  10  17
ATOM     16  C   LIG    1       23.922 -31.726   6.146  0.00  0.00    +0.277 C 
ATOM     17  O   LIG    1       23.644 -30.673   7.058  0.00  0.00    -0.491 OA
ENDBRANCH  10  17
ENDBRANCH   9  11
ENDBRANCH   8   9
ENDBRANCH   7   8
ENDBRANCH   5   7
ENDBRANCH   4   5
ENDBRANCH   1   4
BRANCH   1  18
ATOM     18  C   LIG    1       25.536 -23.981   7.213  0.00  0.00    +0.261 C 
BRANCH  18  19
ATOM     19  O   LIG    1       25.515 -22.628   7.704  0.00  0.00    -0.489 OA
BRANCH  19  20
ATOM     20  C   LIG    1       26.438 -21.759   7.149  0.00  0.00    +0.130 C 
ATOM     21  C   LIG    1       26.028 -20.852   6.122  0.00  0.00    +0.049 C 
ATOM     22  C   LIG    1       27.015 -20.097   5.480  0.00  0.00    +0.051 C 
ATOM     23  N   LIG    1       26.407 -19.360   4.498  0.00  0.00    -0.354 NA
ATOM     24  H   LIG    1       26.894 -18.734   3.869  0.00  0.00    +0.166 HD
ATOM     25  C   LIG    1       25.056 -19.547   4.501  0.00  0.00    +0.048 C 
ATOM     26  C   LIG    1       24.080 -18.964   3.678  0.00  0.00    +0.026 C 
ATOM     27  C   LIG    1       22.750 -19.297   3.921  0.00  0.00    +0.002 C 
ATOM     28  C   LIG    1       22.414 -20.173   4.947  0.00  0.00    +0.001 C 
ATOM     29  C   LIG    1       23.407 -20.764   5.752  0.00  0.00    +0.010 C 
ATOM     30  C   LIG    1       28.369 -20.137   5.819  0.00  0.00    +0.026 C 
ATOM     31  C   LIG    1       28.748 -20.968   6.862  0.00  0.00    +0.006 C 
ATOM     32  C   LIG    1       24.768 -20.458   5.523  0.00  0.00    +0.011 C 
ATOM     33  C   LIG    1       27.804 -21.755   7.514  0.00  0.00    +0.046 C 
ENDBRANCH  19  20
ENDBRANCH  18  19
ENDBRANCH   1  18
TORSDOF 11
ENDMDL
MODEL 3
REMARK VINA RESULT:      -9.1      0.855      1.711
REMARK  Name = *****
REMARK                            x       y       z     vdW  Elec       q    Type
REMARK                         _______ _______ _______ _____ _____    ______ ____
ROOT
ATOM      1  C   LIG    1       23.231 -23.024   6.585  0.00  0.00    +0.166 C 
ENDROOT
BRANCH   1   2
ATOM      2  O   LIG    1       21.919 -23.607   6.589  0.00  0.00    -0.387 OA
ATOM      3  H   LIG    1       21.969 -24.378   5.990  0.00  0.00    +0.210 HD
ENDBRANCH   1   2
BRANCH   1   4
ATOM      4  C   LIG    1       24.287 -24.133   6.508  0.00  0.00    +0.115 C 
BRANCH   4   5
ATOM      5  N   LIG    1       25.006 -24.095   5.231  0.00  0.00    -0.310 NA
ATOM      6  H   LIG    1       24.470 -23.542   4.562  0.00  0.00    +0.122 HD
BRANCH   5   7
ATOM      7  C   LIG    1       25.204 -25.434   4.663  0.00  0.00    +0.122 C 
BRANCH   7   8
ATOM      8  C   LIG    1       24.579 -26.598   5.449  0.00  0.00    +0.244 C 
BRANCH   8   9
ATOM      9  O   LIG    1       25.586 -27.322   6.162  0.00  0.00    -0.487 OA
BRANCH   9  11
ATOM     10  C   LIG    1       25.545 -28.930   8.075  0.00  0.00    +0.162 A 
ATOM     11  C   LIG    1       25.198 -28.486   6.783  0.00  0.00    +0.162 A 
ATOM     12  C   LIG    1       24.358 -29.275   5.981  0.00  0.00    +0.049 A 
ATOM     13  C   LIG    1       23.919 -30.524   6.417  0.00  0.00    +0.004 A 
ATOM     14  C   LIG    1       24.308 -30.989   7.667  0.00  0.00    +0.004 A 
ATOM     15  C   LIG    1       25.110 -30.196   8.491  0.00  0.00    +0.049 A 
BRANCH  10  17
ATOM     16  C   LIG    1       26.779 -28.604  10.118  0.00  0.00    +0.277 C 
ATOM     17  O   LIG    1       26.369 -28.151   8.837  0.00  0.00    -0.491 OA
ENDBRANCH  10  17
ENDBRANCH   9  11
ENDBRANCH   8   9
ENDBRANCH   7   8
ENDBRANCH   5   7
ENDBRANCH   4   5
ENDBRANCH   1   4
BRANCH   1  18
ATOM     18  C   LIG    1       23.373 -22.097   7.799  0.00  0.00    +0.261 C 
BRANCH  18  19
ATOM     19  O   LIG    1       23.294 -20.708   7.426  0.00  0.00    -0.489 OA
BRANCH  19  20
ATOM     20  C   LIG    1       23.737 -20.388   6.155  0.00  0.00    +0.130 C 
ATOM     21  C   LIG    1       25.141 -20.319   5.892  0.00  0.00    +0.049 C 
ATOM     22  C   LIG    1       25.553 -19.846   4.641  0.00  0.00    +0.051 C 
ATOM     23  N   LIG    1       26.922 -19.801   4.639  0.00  0.00    -0.354 NA
ATOM     24  H   LIG    1       27.482 -19.482   3.859  0.00  0.00    +0.166 HD
ATOM     25  C   LIG    1       27.436 -20.279   5.809  0.00  0.00    +0.048 C 
ATOM     26  C   LIG    1       28.779 -20.422   6.192  0.00  0.00    +0.026 C 
ATOM     27  C   LIG    1       29.036 -20.983   7.439  0.00  0.00    +0.002 C 
ATOM     28  C   LIG    1       27.992 -21.389   8.265  0.00  0.00    +0.001 C 
ATOM     29  C   LIG    1       26.650 -21.221   7.872  0.00  0.00    +0.010 C 
ATOM     30  C   LIG    1       24.673 -19.490   3.616  0.00  0.00    +0.026 C 
ATOM     31  C   LIG    1       23.315 -19.626   3.856  0.00  0.00    +0.006 C 
ATOM     32  C   LIG    1       26.354 -20.641   6.618  0.00  0.00    +0.011 C 
ATOM     33  C   LIG    1       22.859 -20.070   5.094  0.00  0.00    +0.046 C 
ENDBRANCH  19  20
ENDBRANCH  18  19
ENDBRANCH   1  18
TORSDOF 11
ENDMDL
MODEL 4
REMARK VINA RESULT:      -8.9      1.380      3.400
REMARK  Name = *****
REMARK                            x       y       z     vdW  Elec       q    Type
REMARK                         _______ _______ _______ _____ _____    ______ ____
ROOT
ATOM      1  C   LIG    1       24.582 -24.145   6.031  0.00  0.00    +0.166 C 
ENDROOT
BRANCH   1   2
ATOM      2  O   LIG    1       23.317 -24.571   6.558  0.00  0.00    -0.387 OA
ATOM      3  H   LIG    1       23.030 -23.862   7.167  0.00  0.00    +0.210 HD
ENDBRANCH   1   2
BRANCH   1   4
ATOM      4  C   LIG    1       25.053 -25.136   4.959  0.00  0.00    +0.115 C 
BRANCH   4   5
ATOM      5  N   LIG    1       26.136 -25.988   5.461  0.00  0.00    -0.310 NA
ATOM      6  H   LIG    1       27.029 -25.625   5.125  0.00  0.00    +0.122 HD
BRANCH   5   7
ATOM      7  C   LIG    1       26.007 -27.378   5.005  0.00  0.00    +0.122 C 
BRANCH   7   8
ATOM      8  C   LIG    1       24.726 -28.111   5.436  0.00  0.00    +0.244 C 
BRANCH   8   9
ATOM      9  O   LIG    1       24.927 -29.527   5.418  0.00  0.00    -0.487 OA
BRANCH   9  11
ATOM     10  C   LIG    1       24.084 -31.571   6.584  0.00  0.00    +0.162 A 
ATOM     11  C   LIG    1       24.519 -30.231   6.526  0.00  0.00    +0.162 A 
ATOM     12  C   LIG    1       24.570 -29.467   7.703  0.00  0.00    +0.049 A 
ATOM     13  C   LIG    1       24.128 -29.992   8.916  0.00  0.00    +0.004 A 
ATOM     14  C   LIG    1       23.644 -31.294   8.964  0.00  0.00    +0.004 A 
ATOM     15  C   LIG    1       23.627 -32.078   7.808  0.00  0.00    +0.049 A 
BRANCH  10  17
ATOM     16  C   LIG    1       23.131 -33.385   5.315  0.00  0.00    +0.277 C 
ATOM     17  O   LIG    1       24.036 -32.295   5.426  0.00  0.00    -0.491 OA
ENDBRANCH  10  17
ENDBRANCH   9  11
ENDBRANCH   8   9
ENDBRANCH   7   8
ENDBRANCH   5   7
ENDBRANCH   4   5
ENDBRANCH   1   4
BRANCH   1  18
ATOM     18  C   LIG    1       25.569 -23.948   7.189  0.00  0.00    +0.261 C 
BRANCH  18  19
ATOM     19  O   LIG    1       25.551 -22.597   7.686  0.00  0.00    -0.489 OA
BRANCH  19  20
ATOM     20  C   LIG    1       26.476 -21.728   7.135  0.00  0.00    +0.130 C 
ATOM     21  C   LIG    1       26.070 -20.819   6.109  0.00  0.00    +0.049 C 
ATOM     22  C   LIG    1       27.060 -20.064   5.472  0.00  0.00    +0.051 C 
ATOM     23  N   LIG    1       26.457 -19.325   4.489  0.00  0.00    -0.354 NA
ATOM     24  H   LIG    1       26.946 -18.698   3.863  0.00  0.00    +0.166 HD
ATOM     25  C   LIG    1       25.105 -19.510   4.488  0.00  0.00    +0.048 C 
ATOM     26  C   LIG    1       24.132 -18.925   3.662  0.00  0.00    +0.026 C 
ATOM     27  C   LIG    1       22.801 -19.257   3.901  0.00  0.00    +0.002 C 
ATOM     28  C   LIG    1       22.461 -20.134   4.925  0.00  0.00    +0.001 C 
ATOM     29  C   LIG    1       23.451 -20.728   5.731  0.00  0.00    +0.010 C 
ATOM     30  C   LIG    1       28.414 -20.106   5.815  0.00  0.00    +0.026 C 
ATOM     31  C   LIG    1       28.788 -20.939   6.858  0.00  0.00    +0.006 C 
ATOM     32  C   LIG    1       24.813 -20.423   5.507  0.00  0.00    +0.011 C 
ATOM     33  C   LIG    1       27.841 -21.726   7.506  0.00  0.00    +0.046 C 
ENDBRANCH  19  20
ENDBRANCH  18  19
ENDBRANCH   1  18
TORSDOF 11
ENDMDL
MODEL 5
REMARK VINA RESULT:      -8.9      1.470      3.613
REMARK  Name = *****
REMARK                            x       y       z     vdW  Elec       q    Type
REMARK                         _______ _______ _______ _____ _____    ______ ____
ROOT
ATOM      1  C   LIG    1       24.578 -24.191   6.048  0.00  0.00    +0.166 C 
ENDROOT
BRANCH   1   2
ATOM      2  O   LIG    1       23.263 -24.489   6.542  0.00  0.00    -0.387 OA
ATOM      3  H   LIG    1       22.772 -24.860   5.782  0.00  0.00    +0.210 HD
ENDBRANCH   1   2
BRANCH   1   4
ATOM      4  C   LIG    1       25.025 -25.291   5.079  0.00  0.00    +0.115 C 
BRANCH   4   5
ATOM      5  N   LIG    1       25.982 -26.203   5.714  0.00  0.00    -0.310 NA
ATOM      6  H   LIG    1       26.623 -26.562   5.005  0.00  0.00    +0.122 HD
BRANCH   5   7
ATOM      7  C   LIG    1       25.320 -27.348   6.352  0.00  0.00    +0.122 C 
BRANCH   7   8
ATOM      8  C   LIG    1       24.443 -28.216   5.435  0.00  0.00    +0.244 C 
BRANCH   8   9
ATOM      9  O   LIG    1       23.899 -29.323   6.160  0.00  0.00    -0.487 OA
BRANCH   9  11
ATOM     10  C   LIG    1       25.147 -30.607   7.904  0.00  0.00    +0.162 A 
ATOM     11  C   LIG    1       24.781 -30.290   6.580  0.00  0.00    +0.162 A 
ATOM     12  C   LIG    1       25.344 -31.010   5.513  0.00  0.00    +0.049 A 
ATOM     13  C   LIG    1       26.313 -31.985   5.742  0.00  0.00    +0.004 A 
ATOM     14  C   LIG    1       26.718 -32.259   7.043  0.00  0.00    +0.004 A 
ATOM     15  C   LIG    1       26.135 -31.578   8.115  0.00  0.00    +0.049 A 
BRANCH  10  17
ATOM     16  C   LIG    1       23.411 -30.364   9.557  0.00  0.00    +0.277 C 
ATOM     17  O   LIG    1       24.592 -29.891   8.926  0.00  0.00    -0.491 OA
ENDBRANCH  10  17
ENDBRANCH   9  11
ENDBRANCH   8   9
ENDBRANCH   7   8
ENDBRANCH   5   7
ENDBRANCH   4   5
ENDBRANCH   1   4
BRANCH   1  18
ATOM     18  C   LIG    1       25.523 -23.970   7.236  0.00  0.00    +0.261 C 
BRANCH  18  19
ATOM     19  O   LIG    1       25.490 -22.608   7.702  0.00  0.00    -0.489 OA
BRANCH  19  20
ATOM     20  C   LIG    1       26.418 -21.746   7.145  0.00  0.00    +0.130 C 
ATOM     21  C   LIG    1       26.012 -20.837   6.119  0.00  0.00    +0.049 C 
ATOM     22  C   LIG    1       27.003 -20.089   5.474  0.00  0.00    +0.051 C 
ATOM     23  N   LIG    1       26.398 -19.349   4.493  0.00  0.00    -0.354 NA
ATOM     24  H   LIG    1       26.888 -18.726   3.863  0.00  0.00    +0.166 HD
ATOM     25  C   LIG    1       25.045 -19.526   4.499  0.00  0.00    +0.048 C 
ATOM     26  C   LIG    1       24.072 -18.937   3.677  0.00  0.00    +0.026 C 
ATOM     27  C   LIG    1       22.740 -19.260   3.923  0.00  0.00    +0.002 C 
ATOM     28  C   LIG    1       22.400 -20.133   4.951  0.00  0.00    +0.001 C 
ATOM     29  C   LIG    1       23.391 -20.731   5.754  0.00  0.00    +0.010 C 
ATOM     30  C   LIG    1       28.358 -20.138   5.811  0.00  0.00    +0.026 C 
ATOM     31  C   LIG    1       28.733 -20.971   6.853  0.00  0.00    +0.006 C 
ATOM     32  C   LIG    1       24.754 -20.434   5.522  0.00  0.00    +0.011 C 
ATOM     33  C   LIG    1       27.784 -21.751   7.508  0.00  0.00    +0.046 C 
ENDBRANCH  19  20
ENDBRANCH  18  19
ENDBRANCH   1  18
TORSDOF 11
ENDMDL
MODEL 6
REMARK VINA RESULT:      -8.7      3.666      9.566
REMARK  Name = *****
REMARK                            x       y       z     vdW  Elec       q    Type
REMARK                         _______ _______ _______ _____ _____    ______ ____
ROOT
ATOM      1  C   LIG    1       28.570 -20.382   6.179  0.00  0.00    +0.166 C 
ENDROOT
BRANCH   1   2
ATOM      2  O   LIG    1       29.864 -19.866   6.522  0.00  0.00    -0.387 OA
ATOM      3  H   LIG    1       30.489 -20.605   6.387  0.00  0.00    +0.210 HD
ENDBRANCH   1   2
BRANCH   1   4
ATOM      4  C   LIG    1       27.795 -19.335   5.370  0.00  0.00    +0.115 C 
BRANCH   4   5
ATOM      5  N   LIG    1       26.831 -19.968   4.465  0.00  0.00    -0.310 NA
ATOM      6  H   LIG    1       27.235 -20.019   3.529  0.00  0.00    +0.122 HD
BRANCH   5   7
ATOM      7  C   LIG    1       25.572 -19.217   4.378  0.00  0.00    +0.122 C 
BRANCH   7   8
ATOM      8  C   LIG    1       25.408 -18.320   3.141  0.00  0.00    +0.244 C 
BRANCH   8   9
ATOM      9  O   LIG    1       26.230 -17.154   3.251  0.00  0.00    -0.487 OA
BRANCH   9  11
ATOM     10  C   LIG    1       26.127 -14.661   3.401  0.00  0.00    +0.162 A 
ATOM     11  C   LIG    1       25.594 -15.962   3.507  0.00  0.00    +0.162 A 
ATOM     12  C   LIG    1       24.261 -16.135   3.914  0.00  0.00    +0.049 A 
ATOM     13  C   LIG    1       23.479 -15.042   4.283  0.00  0.00    +0.004 A 
ATOM     14  C   LIG    1       24.021 -13.763   4.235  0.00  0.00    +0.004 A 
ATOM     15  C   LIG    1       25.333 -13.575   3.793  0.00  0.00    +0.049 A 
BRANCH  10  17
ATOM     16  C   LIG    1       28.278 -13.623   3.715  0.00  0.00    +0.277 C 
ATOM     17  O   LIG    1       27.428 -14.516   3.010  0.00  0.00    -0.491 OA
ENDBRANCH  10  17
ENDBRANCH   9  11
ENDBRANCH   8   9
ENDBRANCH   7   8
ENDBRANCH   5   7
ENDBRANCH   4   5
ENDBRANCH   1   4
BRANCH   1  18
ATOM     18  C   LIG    1       27.859 -20.848   7.457  0.00  0.00    +0.261 C 
BRANCH  18  19
ATOM     19  O   LIG    1       27.171 -22.098   7.263  0.00  0.00    -0.489 OA
BRANCH  19  20
ATOM     20  C   LIG    1       25.789 -22.050   7.296  0.00  0.00    +0.130 C 
ATOM     21  C   LIG    1       25.031 -23.199   6.909  0.00  0.00    +0.049 C 
ATOM     22  C   LIG    1       23.642 -23.067   6.810  0.00  0.00    +0.051 C 
ATOM     23  N   LIG    1       23.138 -24.259   6.362  0.00  0.00    -0.354 NA
ATOM     24  H   LIG    1       22.156 -24.435   6.188  0.00  0.00    +0.166 HD
ATOM     25  C   LIG    1       24.123 -25.192   6.219  0.00  0.00    +0.048 C 
ATOM     26  C   LIG    1       24.021 -26.531   5.810  0.00  0.00    +0.026 C 
ATOM     27  C   LIG    1       25.188 -27.289   5.791  0.00  0.00    +0.002 C 
ATOM     28  C   LIG    1       26.404 -26.730   6.169  0.00  0.00    +0.001 C 
ATOM     29  C   LIG    1       26.492 -25.380   6.559  0.00  0.00    +0.010 C 
ATOM     30  C   LIG    1       22.948 -21.894   7.118  0.00  0.00    +0.026 C 
ATOM     31  C   LIG    1       23.684 -20.806   7.559  0.00  0.00    +0.006 C 
ATOM     32  C   LIG    1       25.327 -24.578   6.577  0.00  0.00    +0.011 C 
ATOM     33  C   LIG    1       25.071 -20.885   7.651  0.00  0.00    +0.046 C 
ENDBRANCH  19  20
ENDBRANCH  18  19
ENDBRANCH   1  18
TORSDOF 11
ENDMDL
MODEL 7
REMARK VINA RESULT:      -8.7      1.384      1.773
REMARK  Name = *****
REMARK                            x       y       z     vdW  Elec       q    Type
REMARK                         _______ _______ _______ _____ _____    ______ ____
ROOT
ATOM      1  C   LIG    1       25.098 -24.198   5.942  0.00  0.00    +0.166 C 
ENDROOT
BRANCH   1   2
ATOM      2  O   LIG    1       24.729 -24.406   4.571  0.00  0.00    -0.387 OA
ATOM      3  H   LIG    1       23.802 -24.716   4.589  0.00  0.00    +0.210 HD
ENDBRANCH   1   2
BRANCH   1   4
ATOM      4  C   LIG    1       25.561 -25.524   6.557  0.00  0.00    +0.115 C 
BRANCH   4   5
ATOM      5  N   LIG    1       26.542 -26.196   5.699  0.00  0.00    -0.310 NA
ATOM      6  H   LIG    1       26.826 -25.558   4.954  0.00  0.00    +0.122 HD
BRANCH   5   7
ATOM      7  C   LIG    1       25.998 -27.410   5.077  0.00  0.00    +0.122 C 
BRANCH   7   8
ATOM      8  C   LIG    1       24.743 -28.001   5.738  0.00  0.00    +0.244 C 
BRANCH   8   9
ATOM      9  O   LIG    1       24.685 -29.416   5.533  0.00  0.00    -0.487 OA
BRANCH   9  11
ATOM     10  C   LIG    1       23.999 -31.552   6.635  0.00  0.00    +0.162 A 
ATOM     11  C   LIG    1       24.375 -30.193   6.624  0.00  0.00    +0.162 A 
ATOM     12  C   LIG    1       24.467 -29.490   7.835  0.00  0.00    +0.049 A 
ATOM     13  C   LIG    1       24.122 -30.096   9.042  0.00  0.00    +0.004 A 
ATOM     14  C   LIG    1       23.695 -31.418   9.048  0.00  0.00    +0.004 A 
ATOM     15  C   LIG    1       23.639 -32.141   7.854  0.00  0.00    +0.049 A 
BRANCH  10  17
ATOM     16  C   LIG    1       23.133 -33.403   5.358  0.00  0.00    +0.277 C 
ATOM     17  O   LIG    1       23.909 -32.217   5.444  0.00  0.00    -0.491 OA
ENDBRANCH  10  17
ENDBRANCH   9  11
ENDBRANCH   8   9
ENDBRANCH   7   8
ENDBRANCH   5   7
ENDBRANCH   4   5
ENDBRANCH   1   4
BRANCH   1  18
ATOM     18  C   LIG    1       23.931 -23.530   6.681  0.00  0.00    +0.261 C 
BRANCH  18  19
ATOM     19  O   LIG    1       24.188 -22.138   6.942  0.00  0.00    -0.489 OA
BRANCH  19  20
ATOM     20  C   LIG    1       24.476 -21.350   5.842  0.00  0.00    +0.130 C 
ATOM     21  C   LIG    1       25.765 -20.740   5.726  0.00  0.00    +0.049 C 
ATOM     22  C   LIG    1       25.970 -19.832   4.681  0.00  0.00    +0.051 C 
ATOM     23  N   LIG    1       27.237 -19.327   4.808  0.00  0.00    -0.354 NA
ATOM     24  H   LIG    1       27.640 -18.635   4.189  0.00  0.00    +0.166 HD
ATOM     25  C   LIG    1       27.900 -19.904   5.851  0.00  0.00    +0.048 C 
ATOM     26  C   LIG    1       29.213 -19.683   6.296  0.00  0.00    +0.026 C 
ATOM     27  C   LIG    1       29.665 -20.445   7.369  0.00  0.00    +0.002 C 
ATOM     28  C   LIG    1       28.839 -21.390   7.968  0.00  0.00    +0.001 C 
ATOM     29  C   LIG    1       27.518 -21.585   7.521  0.00  0.00    +0.010 C 
ATOM     30  C   LIG    1       25.008 -19.527   3.715  0.00  0.00    +0.026 C 
ATOM     31  C   LIG    1       23.786 -20.175   3.795  0.00  0.00    +0.006 C 
ATOM     32  C   LIG    1       27.022 -20.818   6.442  0.00  0.00    +0.011 C 
ATOM     33  C   LIG    1       23.529 -21.070   4.830  0.00  0.00    +0.046 C 
ENDBRANCH  19  20
ENDBRANCH  18  19
ENDBRANCH   1  18
TORSDOF 11
ENDMDL
MODEL 8
REMARK VINA RESULT:      -8.5      1.502      1.828
REMARK  Name = *****
REMARK                            x       y       z     vdW  Elec       q    Type
REMARK                         _______ _______ _______ _____ _____    ______ ____
ROOT
ATOM      1  C   LIG    1       24.869 -24.365   6.022  0.00  0.00    +0.166 C 
ENDROOT
BRANCH   1   2
ATOM      2  O   LIG    1       24.678 -24.400   4.600  0.00  0.00    -0.387 OA
ATOM      3  H   LIG    1       25.164 -25.188   4.285  0.00  0.00    +0.210 HD
ENDBRANCH   1   2
BRANCH   1   4
ATOM      4  C   LIG    1       24.967 -25.796   6.563  0.00  0.00    +0.115 C 
BRANCH   4   5
ATOM      5  N   LIG    1       24.008 -26.684   5.899  0.00  0.00    -0.310 NA
ATOM      6  H   LIG    1       23.338 -27.027   6.588  0.00  0.00    +0.122 HD
BRANCH   5   7
ATOM      7  C   LIG    1       24.660 -27.844   5.278  0.00  0.00    +0.122 C 
BRANCH   7   8
ATOM      8  C   LIG    1       24.298 -29.216   5.870  0.00  0.00    +0.244 C 
BRANCH   8   9
ATOM      9  O   LIG    1       23.852 -29.078   7.222  0.00  0.00    -0.487 OA
BRANCH   9  11
ATOM     10  C   LIG    1       24.243 -30.937   8.847  0.00  0.00    +0.162 A 
ATOM     11  C   LIG    1       24.575 -29.735   8.189  0.00  0.00    +0.162 A 
ATOM     12  C   LIG    1       25.774 -29.078   8.510  0.00  0.00    +0.049 A 
ATOM     13  C   LIG    1       26.605 -29.560   9.519  0.00  0.00    +0.004 A 
ATOM     14  C   LIG    1       26.250 -30.713  10.208  0.00  0.00    +0.004 A 
ATOM     15  C   LIG    1       25.081 -31.398   9.871  0.00  0.00    +0.049 A 
BRANCH  10  17
ATOM     16  C   LIG    1       22.506 -32.507   9.419  0.00  0.00    +0.277 C 
ATOM     17  O   LIG    1       23.068 -31.557   8.525  0.00  0.00    -0.491 OA
ENDBRANCH  10  17
ENDBRANCH   9  11
ENDBRANCH   8   9
ENDBRANCH   7   8
ENDBRANCH   5   7
ENDBRANCH   4   5
ENDBRANCH   1   4
BRANCH   1  18
ATOM     18  C   LIG    1       23.756 -23.522   6.658  0.00  0.00    +0.261 C 
BRANCH  18  19
ATOM     19  O   LIG    1       24.195 -22.181   6.944  0.00  0.00    -0.489 OA
BRANCH  19  20
ATOM     20  C   LIG    1       24.479 -21.382   5.850  0.00  0.00    +0.130 C 
ATOM     21  C   LIG    1       25.764 -20.764   5.740  0.00  0.00    +0.049 C 
ATOM     22  C   LIG    1       25.964 -19.845   4.704  0.00  0.00    +0.051 C 
ATOM     23  N   LIG    1       27.228 -19.334   4.836  0.00  0.00    -0.354 NA
ATOM     24  H   LIG    1       27.628 -18.635   4.223  0.00  0.00    +0.166 HD
ATOM     25  C   LIG    1       27.894 -19.917   5.874  0.00  0.00    +0.048 C 
ATOM     26  C   LIG    1       29.206 -19.692   6.322  0.00  0.00    +0.026 C 
ATOM     27  C   LIG    1       29.661 -20.460   7.389  0.00  0.00    +0.002 C 
ATOM     28  C   LIG    1       28.840 -21.415   7.979  0.00  0.00    +0.001 C 
ATOM     29  C   LIG    1       27.521 -21.614   7.530  0.00  0.00    +0.010 C 
ATOM     30  C   LIG    1       25.002 -19.538   3.740  0.00  0.00    +0.026 C 
ATOM     31  C   LIG    1       23.783 -20.194   3.813  0.00  0.00    +0.006 C 
ATOM     32  C   LIG    1       27.021 -20.841   6.457  0.00  0.00    +0.011 C 
ATOM     33  C   LIG    1       23.531 -21.098   4.840  0.00  0.00    +0.046 C 
ENDBRANCH  19  20
ENDBRANCH  18  19
ENDBRANCH   1  18
TORSDOF 11
ENDMDL
MODEL 9
REMARK VINA RESULT:      -8.4      3.828      8.009
REMARK  Name = *****
REMARK                            x       y       z     vdW  Elec       q    Type
REMARK                         _______ _______ _______ _____ _____    ______ ____
ROOT
ATOM      1  C   LIG    1       26.909 -21.172   8.386  0.00  0.00    +0.166 C 
ENDROOT
BRANCH   1   2
ATOM      2  O   LIG    1       25.643 -20.635   8.798  0.00  0.00    -0.387 OA
ATOM      3  H   LIG    1       24.968 -21.256   8.459  0.00  0.00    +0.210 HD
ENDBRANCH   1   2
BRANCH   1   4
ATOM      4  C   LIG    1       27.578 -20.211   7.396  0.00  0.00    +0.115 C 
BRANCH   4   5
ATOM      5  N   LIG    1       28.495 -20.922   6.501  0.00  0.00    -0.310 NA
ATOM      6  H   LIG    1       29.079 -21.552   7.052  0.00  0.00    +0.122 HD
BRANCH   5   7
ATOM      7  C   LIG    1       29.378 -20.007   5.767  0.00  0.00    +0.122 C 
BRANCH   7   8
ATOM      8  C   LIG    1       29.551 -18.606   6.374  0.00  0.00    +0.244 C 
BRANCH   8   9
ATOM      9  O   LIG    1       30.839 -18.475   6.982  0.00  0.00    -0.487 OA
BRANCH   9  11
ATOM     10  C   LIG    1       31.395 -19.088   9.341  0.00  0.00    +0.162 A 
ATOM     11  C   LIG    1       30.872 -18.247   8.337  0.00  0.00    +0.162 A 
ATOM     12  C   LIG    1       30.304 -17.013   8.693  0.00  0.00    +0.049 A 
ATOM     13  C   LIG    1       30.185 -16.639  10.030  0.00  0.00    +0.004 A 
ATOM     14  C   LIG    1       30.648 -17.493  11.024  0.00  0.00    +0.004 A 
ATOM     15  C   LIG    1       31.252 -18.705  10.681  0.00  0.00    +0.049 A 
BRANCH  10  17
ATOM     16  C   LIG    1       31.138 -21.460   9.009  0.00  0.00    +0.277 C 
ATOM     17  O   LIG    1       31.937 -20.287   8.974  0.00  0.00    -0.491 OA
ENDBRANCH  10  17
ENDBRANCH   9  11
ENDBRANCH   8   9
ENDBRANCH   7   8
ENDBRANCH   5   7
ENDBRANCH   4   5
ENDBRANCH   1   4
BRANCH   1  18
ATOM     18  C   LIG    1       26.701 -22.593   7.847  0.00  0.00    +0.261 C 
BRANCH  18  19
ATOM     19  O   LIG    1       26.209 -22.588   6.494  0.00  0.00    -0.489 OA
BRANCH  19  20
ATOM     20  C   LIG    1       24.839 -22.707   6.338  0.00  0.00    +0.130 C 
ATOM     21  C   LIG    1       24.111 -21.677   5.664  0.00  0.00    +0.049 C 
ATOM     22  C   LIG    1       22.715 -21.757   5.658  0.00  0.00    +0.051 C 
ATOM     23  N   LIG    1       22.234 -20.642   5.024  0.00  0.00    -0.354 NA
ATOM     24  H   LIG    1       21.251 -20.439   4.892  0.00  0.00    +0.166 HD
ATOM     25  C   LIG    1       23.249 -19.859   4.557  0.00  0.00    +0.048 C 
ATOM     26  C   LIG    1       23.180 -18.654   3.840  0.00  0.00    +0.026 C 
ATOM     27  C   LIG    1       24.380 -18.073   3.441  0.00  0.00    +0.002 C 
ATOM     28  C   LIG    1       25.596 -18.675   3.745  0.00  0.00    +0.001 C 
ATOM     29  C   LIG    1       25.648 -19.874   4.482  0.00  0.00    +0.010 C 
ATOM     30  C   LIG    1       21.993 -22.810   6.223  0.00  0.00    +0.026 C 
ATOM     31  C   LIG    1       22.710 -23.839   6.814  0.00  0.00    +0.006 C 
ATOM     32  C   LIG    1       24.448 -20.484   4.914  0.00  0.00    +0.011 C 
ATOM     33  C   LIG    1       24.099 -23.791   6.864  0.00  0.00    +0.046 C 
ENDBRANCH  19  20
ENDBRANCH  18  19
ENDBRANCH   1  18
TORSDOF 11
ENDMDL
