MODEL 1
REMARK VINA RESULT:       2.5      0.000      0.000
REMARK  Name = *****
REMARK                            x       y       z     vdW  Elec       q    Type
REMARK                         _______ _______ _______ _____ _____    ______ ____
ROOT
ATOM      1  P   LIG    1       23.534 -15.367   4.410  0.00  0.00    +0.363 P 
ATOM      2  O   LIG    1       23.860 -14.961   5.817  0.00  0.00    -0.256 OA
ENDROOT
BRANCH   1   3
ATOM      3  C   LIG    1       21.990 -16.274   4.200  0.00  0.00    +0.287 C 
BRANCH   3   4
ATOM      4  O   LIG    1       22.220 -17.649   4.517  0.00  0.00    -0.363 OA
BRANCH   4   5
ATOM      5  C   LIG    1       21.577 -18.568   3.622  0.00  0.00    +0.136 C 
ATOM      6  C   LIG    1       20.177 -18.068   3.230  0.00  0.00    +0.039 C 
BRANCH   5   7
ATOM      7  C   LIG    1       21.483 -19.927   4.340  0.00  0.00    +0.156 C 
BRANCH   7   8
ATOM      8  N   LIG    1       22.587 -20.217   5.239  0.00  0.00    -0.312 N 
ATOM      9  C   LIG    1       23.913 -20.271   4.904  0.00  0.00    +0.165 A 
ATOM     10  N   LIG    1       24.489 -19.952   3.732  0.00  0.00    -0.216 NA
ATOM     11  C   LIG    1       25.824 -20.160   3.787  0.00  0.00    +0.225 A 
ATOM     12  N   LIG    1       26.563 -20.650   4.807  0.00  0.00    -0.219 NA
ATOM     13  C   LIG    1       25.932 -20.951   5.963  0.00  0.00    +0.147 A 
ATOM     14  C   LIG    1       24.545 -20.752   6.039  0.00  0.00    +0.147 A 
ATOM     15  N   LIG    1       23.641 -20.974   7.054  0.00  0.00    -0.231 NA
ATOM     16  C   LIG    1       22.482 -20.606   6.551  0.00  0.00    +0.201 A 
BRANCH  13  17
ATOM     17  N   LIG    1       26.665 -21.479   7.021  0.00  0.00    -0.341 N 
ATOM     18  H   LIG    1       27.549 -20.998   7.150  0.00  0.00    +0.144 HD
ATOM     19  H   LIG    1       26.096 -21.630   7.843  0.00  0.00    +0.144 HD
ENDBRANCH  13  17
ENDBRANCH   7   8
ENDBRANCH   5   7
ENDBRANCH   4   5
ENDBRANCH   3   4
ENDBRANCH   1   3
BRANCH   1  20
ATOM     20  O   LIG    1       24.649 -16.272   3.685  0.00  0.00    -0.268 OA
BRANCH  20  21
ATOM     21  C   LIG    1       25.986 -16.009   4.041  0.00  0.00    +0.410 C 
BRANCH  21  22
ATOM     22  O   LIG    1       26.705 -17.224   4.209  0.00  0.00    -0.406 OA
BRANCH  22  23
ATOM     23  C   LIG    1       28.056 -17.075   4.358  0.00  0.00    +0.512 C 
ATOM     24  O   LIG    1       28.677 -16.039   4.360  0.00  0.00    -0.203 OA
BRANCH  23  25
ATOM     25  O   LIG    1       28.542 -18.333   4.512  0.00  0.00    -0.431 OA
BRANCH  25  26
ATOM     26  C   LIG    1       29.472 -18.539   5.583  0.00  0.00    +0.174 C 
ATOM     27  C   LIG    1       29.308 -19.988   6.025  0.00  0.00    +0.052 C 
ATOM     28  C   LIG    1       29.163 -17.575   6.721  0.00  0.00    +0.052 C 
ENDBRANCH  25  26
ENDBRANCH  23  25
ENDBRANCH  22  23
ENDBRANCH  21  22
ENDBRANCH  20  21
ENDBRANCH   1  20
BRANCH   1  29
ATOM     29  O   LIG    1       23.425 -14.122   3.391  0.00  0.00    -0.268 OA
BRANCH  29  30
ATOM     30  C   LIG    1       24.280 -14.152   2.266  0.00  0.00    +0.410 C 
BRANCH  30  31
ATOM     31  O   LIG    1       25.178 -13.046   2.299  0.00  0.00    -0.406 OA
BRANCH  31  32
ATOM     32  C   LIG    1       26.484 -13.391   2.348  0.00  0.00    +0.512 C 
ATOM     33  O   LIG    1       26.977 -14.396   1.855  0.00  0.00    -0.203 OA
BRANCH  32  34
ATOM     34  O   LIG    1       27.138 -12.487   3.119  0.00  0.00    -0.431 OA
BRANCH  34  36
ATOM     35  C   LIG    1       28.763 -12.177   4.945  0.00  0.00    +0.052 C 
ATOM     36  C   LIG    1       27.596 -12.985   4.388  0.00  0.00    +0.174 C 
ATOM     37  C   LIG    1       26.407 -12.937   5.343  0.00  0.00    +0.052 C 
ENDBRANCH  34  36
ENDBRANCH  32  34
ENDBRANCH  31  32
ENDBRANCH  30  31
ENDBRANCH  29  30
ENDBRANCH   1  29
TORSDOF 18
ENDMDL
MODEL 2
REMARK VINA RESULT:       2.9      1.936      4.641
REMARK  Name = *****
REMARK                            x       y       z     vdW  Elec       q    Type
REMARK                         _______ _______ _______ _____ _____    ______ ____
ROOT
ATOM      1  P   LIG    1       24.003 -13.269   2.931  0.00  0.00    +0.363 P 
ATOM      2  O   LIG    1       23.025 -13.037   1.818  0.00  0.00    -0.256 OA
ENDROOT
BRANCH   1   3
ATOM      3  C   LIG    1       25.603 -13.936   2.436  0.00  0.00    +0.287 C 
BRANCH   3   4
ATOM      4  O   LIG    1       25.555 -15.362   2.536  0.00  0.00    -0.363 OA
BRANCH   4   5
ATOM      5  C   LIG    1       26.392 -15.901   3.569  0.00  0.00    +0.136 C 
ATOM      6  C   LIG    1       27.876 -15.635   3.271  0.00  0.00    +0.039 C 
BRANCH   5   7
ATOM      7  C   LIG    1       26.120 -17.414   3.644  0.00  0.00    +0.156 C 
BRANCH   7   8
ATOM      8  N   LIG    1       27.158 -18.186   4.307  0.00  0.00    -0.312 N 
ATOM      9  C   LIG    1       26.989 -19.374   4.968  0.00  0.00    +0.165 A 
ATOM     10  N   LIG    1       25.885 -20.134   5.043  0.00  0.00    -0.216 NA
ATOM     11  C   LIG    1       26.110 -21.225   5.809  0.00  0.00    +0.225 A 
ATOM     12  N   LIG    1       27.232 -21.572   6.479  0.00  0.00    -0.219 NA
ATOM     13  C   LIG    1       28.314 -20.770   6.365  0.00  0.00    +0.147 A 
ATOM     14  C   LIG    1       28.212 -19.619   5.571  0.00  0.00    +0.147 A 
ATOM     15  N   LIG    1       29.118 -18.622   5.279  0.00  0.00    -0.231 NA
ATOM     16  C   LIG    1       28.463 -17.800   4.488  0.00  0.00    +0.201 A 
BRANCH  13  17
ATOM     17  N   LIG    1       29.474 -21.092   7.062  0.00  0.00    -0.341 N 
ATOM     18  H   LIG    1       29.429 -20.801   8.033  0.00  0.00    +0.144 HD
ATOM     19  H   LIG    1       29.784 -22.036   6.874  0.00  0.00    +0.144 HD
ENDBRANCH  13  17
ENDBRANCH   7   8
ENDBRANCH   5   7
ENDBRANCH   4   5
ENDBRANCH   3   4
ENDBRANCH   1   3
BRANCH   1  20
ATOM     20  O   LIG    1       23.488 -14.249   4.099  0.00  0.00    -0.268 OA
BRANCH  20  21
ATOM     21  C   LIG    1       22.649 -15.306   3.695  0.00  0.00    +0.410 C 
BRANCH  21  22
ATOM     22  O   LIG    1       22.531 -16.273   4.729  0.00  0.00    -0.406 OA
BRANCH  22  23
ATOM     23  C   LIG    1       22.037 -17.484   4.330  0.00  0.00    +0.512 C 
ATOM     24  O   LIG    1       21.030 -17.683   3.694  0.00  0.00    -0.203 OA
BRANCH  23  25
ATOM     25  O   LIG    1       22.920 -18.404   4.793  0.00  0.00    -0.431 OA
BRANCH  25  26
ATOM     26  C   LIG    1       22.372 -19.536   5.483  0.00  0.00    +0.174 C 
ATOM     27  C   LIG    1       23.310 -19.829   6.647  0.00  0.00    +0.052 C 
ATOM     28  C   LIG    1       22.284 -20.721   4.530  0.00  0.00    +0.052 C 
ENDBRANCH  25  26
ENDBRANCH  23  25
ENDBRANCH  22  23
ENDBRANCH  21  22
ENDBRANCH  20  21
ENDBRANCH   1  20
BRANCH   1  29
ATOM     29  O   LIG    1       24.352 -11.936   3.769  0.00  0.00    -0.268 OA
BRANCH  29  30
ATOM     30  C   LIG    1       23.866 -11.880   5.095  0.00  0.00    +0.410 C 
BRANCH  30  31
ATOM     31  O   LIG    1       24.949 -11.916   6.020  0.00  0.00    -0.406 OA
BRANCH  31  32
ATOM     32  C   LIG    1       25.987 -12.690   5.632  0.00  0.00    +0.512 C 
ATOM     33  O   LIG    1       26.057 -13.906   5.754  0.00  0.00    -0.203 OA
BRANCH  32  34
ATOM     34  O   LIG    1       26.978 -11.884   5.177  0.00  0.00    -0.431 OA
BRANCH  34  36
ATOM     35  C   LIG    1       28.392 -12.731   3.345  0.00  0.00    +0.052 C 
ATOM     36  C   LIG    1       28.207 -12.554   4.848  0.00  0.00    +0.174 C 
ATOM     37  C   LIG    1       29.342 -11.721   5.434  0.00  0.00    +0.052 C 
ENDBRANCH  34  36
ENDBRANCH  32  34
ENDBRANCH  31  32
ENDBRANCH  30  31
ENDBRANCH  29  30
ENDBRANCH   1  29
TORSDOF 18
ENDMDL
MODEL 3
REMARK VINA RESULT:       3.3      3.424      5.751
REMARK  Name = *****
REMARK                            x       y       z     vdW  Elec       q    Type
REMARK                         _______ _______ _______ _____ _____    ______ ____
ROOT
ATOM      1  P   LIG    1       22.335 -19.952   4.762  0.00  0.00    +0.363 P 
ATOM      2  O   LIG    1       21.150 -20.479   4.007  0.00  0.00    -0.256 OA
ENDROOT
BRANCH   1   3
ATOM      3  C   LIG    1       23.855 -19.789   3.807  0.00  0.00    +0.287 C 
BRANCH   3   4
ATOM      4  O   LIG    1       24.343 -18.452   3.948  0.00  0.00    -0.363 OA
BRANCH   4   5
ATOM      5  C   LIG    1       25.546 -18.191   3.211  0.00  0.00    +0.136 C 
ATOM      6  C   LIG    1       26.789 -18.410   4.089  0.00  0.00    +0.039 C 
BRANCH   5   7
ATOM      7  C   LIG    1       25.483 -16.733   2.720  0.00  0.00    +0.156 C 
BRANCH   7   8
ATOM      8  N   LIG    1       26.479 -15.851   3.304  0.00  0.00    -0.312 N 
ATOM      9  C   LIG    1       26.670 -14.529   3.001  0.00  0.00    +0.165 A 
ATOM     10  N   LIG    1       25.920 -13.740   2.214  0.00  0.00    -0.216 NA
ATOM     11  C   LIG    1       26.448 -12.497   2.147  0.00  0.00    +0.225 A 
ATOM     12  N   LIG    1       27.580 -12.026   2.717  0.00  0.00    -0.219 NA
ATOM     13  C   LIG    1       28.293 -12.864   3.501  0.00  0.00    +0.147 A 
ATOM     14  C   LIG    1       27.830 -14.177   3.672  0.00  0.00    +0.147 A 
ATOM     15  N   LIG    1       28.335 -15.243   4.382  0.00  0.00    -0.231 NA
ATOM     16  C   LIG    1       27.479 -16.219   4.170  0.00  0.00    +0.201 A 
BRANCH  13  17
ATOM     17  N   LIG    1       29.474 -12.413   4.082  0.00  0.00    -0.341 N 
ATOM     18  H   LIG    1       29.336 -12.102   5.038  0.00  0.00    +0.144 HD
ATOM     19  H   LIG    1       30.250 -13.037   3.905  0.00  0.00    +0.144 HD
ENDBRANCH  13  17
ENDBRANCH   7   8
ENDBRANCH   5   7
ENDBRANCH   4   5
ENDBRANCH   3   4
ENDBRANCH   1   3
BRANCH   1  20
ATOM     20  O   LIG    1       22.750 -20.804   6.062  0.00  0.00    -0.268 OA
BRANCH  20  21
ATOM     21  C   LIG    1       23.974 -20.454   6.666  0.00  0.00    +0.410 C 
BRANCH  21  22
ATOM     22  O   LIG    1       24.851 -21.572   6.701  0.00  0.00    -0.406 OA
BRANCH  22  23
ATOM     23  C   LIG    1       26.051 -21.380   6.074  0.00  0.00    +0.512 C 
ATOM     24  O   LIG    1       26.235 -21.215   4.892  0.00  0.00    -0.203 OA
BRANCH  23  25
ATOM     25  O   LIG    1       26.981 -21.405   7.062  0.00  0.00    -0.431 OA
BRANCH  25  26
ATOM     26  C   LIG    1       27.990 -20.387   7.024  0.00  0.00    +0.174 C 
ATOM     27  C   LIG    1       27.543 -19.373   5.979  0.00  0.00    +0.052 C 
ATOM     28  C   LIG    1       29.330 -21.010   6.654  0.00  0.00    +0.052 C 
ENDBRANCH  25  26
ENDBRANCH  23  25
ENDBRANCH  22  23
ENDBRANCH  21  22
ENDBRANCH  20  21
ENDBRANCH   1  20
BRANCH   1  29
ATOM     29  O   LIG    1       22.091 -18.493   5.404  0.00  0.00    -0.268 OA
BRANCH  29  30
ATOM     30  C   LIG    1       22.252 -17.388   4.538  0.00  0.00    +0.410 C 
BRANCH  30  31
ATOM     31  O   LIG    1       22.644 -16.235   5.276  0.00  0.00    -0.406 OA
BRANCH  31  32
ATOM     32  C   LIG    1       22.659 -15.091   4.556  0.00  0.00    +0.512 C 
ATOM     33  O   LIG    1       22.445 -15.000   3.354  0.00  0.00    -0.203 OA
BRANCH  32  34
ATOM     34  O   LIG    1       23.049 -14.077   5.367  0.00  0.00    -0.431 OA
BRANCH  34  36
ATOM     35  C   LIG    1       23.701 -11.748   4.895  0.00  0.00    +0.052 C 
ATOM     36  C   LIG    1       24.075 -13.225   4.830  0.00  0.00    +0.174 C 
ATOM     37  C   LIG    1       25.344 -13.492   5.633  0.00  0.00    +0.052 C 
ENDBRANCH  34  36
ENDBRANCH  32  34
ENDBRANCH  31  32
ENDBRANCH  30  31
ENDBRANCH  29  30
ENDBRANCH   1  29
TORSDOF 18
ENDMDL
MODEL 4
REMARK VINA RESULT:       4.0      3.434      7.000
REMARK  Name = *****
REMARK                            x       y       z     vdW  Elec       q    Type
REMARK                         _______ _______ _______ _____ _____    ______ ____
ROOT
ATOM      1  P   LIG    1       24.893 -19.019   4.061  0.00  0.00    +0.363 P 
ATOM      2  O   LIG    1       24.623 -19.273   5.514  0.00  0.00    -0.256 OA
ENDROOT
BRANCH   1   3
ATOM      3  C   LIG    1       24.459 -17.374   3.464  0.00  0.00    +0.287 C 
BRANCH   3   4
ATOM      4  O   LIG    1       23.256 -16.954   4.114  0.00  0.00    -0.363 OA
BRANCH   4   5
ATOM      5  C   LIG    1       23.393 -15.736   4.859  0.00  0.00    +0.136 C 
ATOM      6  C   LIG    1       22.100 -15.410   5.624  0.00  0.00    +0.039 C 
BRANCH   5   7
ATOM      7  C   LIG    1       23.725 -14.614   3.858  0.00  0.00    +0.156 C 
BRANCH   7   8
ATOM      8  N   LIG    1       24.785 -13.715   4.283  0.00  0.00    -0.312 N 
ATOM      9  C   LIG    1       26.096 -13.765   3.892  0.00  0.00    +0.165 A 
ATOM     10  N   LIG    1       26.657 -14.553   2.959  0.00  0.00    -0.216 NA
ATOM     11  C   LIG    1       27.986 -14.321   2.877  0.00  0.00    +0.225 A 
ATOM     12  N   LIG    1       28.743 -13.471   3.608  0.00  0.00    -0.219 NA
ATOM     13  C   LIG    1       28.126 -12.701   4.530  0.00  0.00    +0.147 A 
ATOM     14  C   LIG    1       26.738 -12.832   4.690  0.00  0.00    +0.147 A 
ATOM     15  N   LIG    1       25.850 -12.209   5.538  0.00  0.00    -0.231 NA
ATOM     16  C   LIG    1       24.682 -12.736   5.240  0.00  0.00    +0.201 A 
BRANCH  13  17
ATOM     17  N   LIG    1       28.885 -11.836   5.311  0.00  0.00    -0.341 N 
ATOM     18  H   LIG    1       29.501 -11.257   4.751  0.00  0.00    +0.144 HD
ATOM     19  H   LIG    1       28.330 -11.372   6.018  0.00  0.00    +0.144 HD
ENDBRANCH  13  17
ENDBRANCH   7   8
ENDBRANCH   5   7
ENDBRANCH   4   5
ENDBRANCH   3   4
ENDBRANCH   1   3
BRANCH   1  20
ATOM     20  O   LIG    1       24.169 -20.034   3.044  0.00  0.00    -0.268 OA
BRANCH  20  21
ATOM     21  C   LIG    1       23.899 -21.323   3.544  0.00  0.00    +0.410 C 
BRANCH  21  22
ATOM     22  O   LIG    1       22.500 -21.514   3.698  0.00  0.00    -0.406 OA
BRANCH  22  23
ATOM     23  C   LIG    1       22.004 -21.163   4.923  0.00  0.00    +0.512 C 
ATOM     24  O   LIG    1       22.528 -21.338   5.997  0.00  0.00    -0.203 OA
BRANCH  23  25
ATOM     25  O   LIG    1       20.809 -20.572   4.672  0.00  0.00    -0.431 OA
BRANCH  25  26
ATOM     26  C   LIG    1       20.799 -19.527   3.688  0.00  0.00    +0.174 C 
ATOM     27  C   LIG    1       21.565 -18.357   4.293  0.00  0.00    +0.052 C 
ATOM     28  C   LIG    1       19.361 -19.142   3.368  0.00  0.00    +0.052 C 
ENDBRANCH  25  26
ENDBRANCH  23  25
ENDBRANCH  22  23
ENDBRANCH  21  22
ENDBRANCH  20  21
ENDBRANCH   1  20
BRANCH   1  29
ATOM     29  O   LIG    1       26.442 -19.212   3.651  0.00  0.00    -0.268 OA
BRANCH  29  30
ATOM     30  C   LIG    1       27.216 -20.045   4.491  0.00  0.00    +0.410 C 
BRANCH  30  31
ATOM     31  O   LIG    1       28.557 -19.569   4.556  0.00  0.00    -0.406 OA
BRANCH  31  32
ATOM     32  C   LIG    1       28.707 -18.416   5.246  0.00  0.00    +0.512 C 
ATOM     33  O   LIG    1       28.466 -17.294   4.823  0.00  0.00    -0.203 OA
BRANCH  32  34
ATOM     34  O   LIG    1       29.261 -18.704   6.450  0.00  0.00    -0.431 OA
BRANCH  34  36
ATOM     35  C   LIG    1       27.274 -20.034   7.044  0.00  0.00    +0.052 C 
ATOM     36  C   LIG    1       28.794 -19.919   7.062  0.00  0.00    +0.174 C 
ATOM     37  C   LIG    1       29.429 -21.077   6.299  0.00  0.00    +0.052 C 
ENDBRANCH  34  36
ENDBRANCH  32  34
ENDBRANCH  31  32
ENDBRANCH  30  31
ENDBRANCH  29  30
ENDBRANCH   1  29
TORSDOF 18
ENDMDL
MODEL 5
REMARK VINA RESULT:       5.2      1.710      4.490
REMARK  Name = *****
REMARK                            x       y       z     vdW  Elec       q    Type
REMARK                         _______ _______ _______ _____ _____    ______ ____
ROOT
ATOM      1  P   LIG    1       27.291 -16.817   4.359  0.00  0.00    +0.363 P 
ATOM      2  O   LIG    1       28.378 -16.148   5.147  0.00  0.00    -0.256 OA
ENDROOT
BRANCH   1   3
ATOM      3  C   LIG    1       27.343 -18.618   4.334  0.00  0.00    +0.287 C 
BRANCH   3   4
ATOM      4  O   LIG    1       26.736 -19.111   5.532  0.00  0.00    -0.363 OA
BRANCH   4   5
ATOM      5  C   LIG    1       27.539 -20.065   6.241  0.00  0.00    +0.136 C 
ATOM      6  C   LIG    1       28.939 -20.180   5.617  0.00  0.00    +0.039 C 
BRANCH   5   7
ATOM      7  C   LIG    1       26.809 -21.420   6.183  0.00  0.00    +0.156 C 
BRANCH   7   8
ATOM      8  N   LIG    1       25.365 -21.327   6.049  0.00  0.00    -0.312 N 
ATOM      9  C   LIG    1       24.676 -20.972   4.921  0.00  0.00    +0.165 A 
ATOM     10  N   LIG    1       25.157 -20.758   3.685  0.00  0.00    -0.216 NA
ATOM     11  C   LIG    1       24.161 -20.401   2.843  0.00  0.00    +0.225 A 
ATOM     12  N   LIG    1       22.848 -20.220   3.112  0.00  0.00    -0.219 NA
ATOM     13  C   LIG    1       22.420 -20.452   4.372  0.00  0.00    +0.147 A 
ATOM     14  C   LIG    1       23.358 -20.856   5.334  0.00  0.00    +0.147 A 
ATOM     15  N   LIG    1       23.231 -21.147   6.674  0.00  0.00    -0.231 NA
ATOM     16  C   LIG    1       24.448 -21.463   7.062  0.00  0.00    +0.201 A 
BRANCH  13  17
ATOM     17  N   LIG    1       21.079 -20.251   4.682  0.00  0.00    -0.341 N 
ATOM     18  H   LIG    1       20.468 -20.858   4.147  0.00  0.00    +0.144 HD
ATOM     19  H   LIG    1       20.921 -20.197   5.680  0.00  0.00    +0.144 HD
ENDBRANCH  13  17
ENDBRANCH   7   8
ENDBRANCH   5   7
ENDBRANCH   4   5
ENDBRANCH   3   4
ENDBRANCH   1   3
BRANCH   1  20
ATOM     20  O   LIG    1       27.203 -16.382   2.812  0.00  0.00    -0.268 OA
BRANCH  20  21
ATOM     21  C   LIG    1       26.553 -15.160   2.549  0.00  0.00    +0.410 C 
BRANCH  21  22
ATOM     22  O   LIG    1       27.464 -14.221   1.994  0.00  0.00    -0.406 OA
BRANCH  22  23
ATOM     23  C   LIG    1       27.765 -13.163   2.807  0.00  0.00    +0.512 C 
ATOM     24  O   LIG    1       27.309 -12.046   2.744  0.00  0.00    -0.203 OA
BRANCH  23  25
ATOM     25  O   LIG    1       28.672 -13.639   3.697  0.00  0.00    -0.431 OA
BRANCH  25  26
ATOM     26  C   LIG    1       28.562 -13.165   5.047  0.00  0.00    +0.174 C 
ATOM     27  C   LIG    1       27.082 -13.217   5.404  0.00  0.00    +0.052 C 
ATOM     28  C   LIG    1       29.103 -11.744   5.134  0.00  0.00    +0.052 C 
ENDBRANCH  25  26
ENDBRANCH  23  25
ENDBRANCH  22  23
ENDBRANCH  21  22
ENDBRANCH  20  21
ENDBRANCH   1  20
BRANCH   1  29
ATOM     29  O   LIG    1       25.806 -16.453   4.875  0.00  0.00    -0.268 OA
BRANCH  29  30
ATOM     30  C   LIG    1       24.733 -16.917   4.082  0.00  0.00    +0.410 C 
BRANCH  30  31
ATOM     31  O   LIG    1       24.150 -15.837   3.359  0.00  0.00    -0.406 OA
BRANCH  31  32
ATOM     32  C   LIG    1       23.317 -15.062   4.090  0.00  0.00    +0.512 C 
ATOM     33  O   LIG    1       22.796 -15.377   5.151  0.00  0.00    -0.203 OA
BRANCH  32  34
ATOM     34  O   LIG    1       23.080 -13.918   3.402  0.00  0.00    -0.431 OA
BRANCH  34  36
ATOM     35  C   LIG    1       24.144 -11.968   2.337  0.00  0.00    +0.052 C 
ATOM     36  C   LIG    1       24.088 -12.902   3.540  0.00  0.00    +0.174 C 
ATOM     37  C   LIG    1       23.767 -12.122   4.811  0.00  0.00    +0.052 C 
ENDBRANCH  34  36
ENDBRANCH  32  34
ENDBRANCH  31  32
ENDBRANCH  30  31
ENDBRANCH  29  30
ENDBRANCH   1  29
TORSDOF 18
ENDMDL
