MODEL 1
REMARK VINA RESULT:      -8.4      0.000      0.000
REMARK  Name = *****
REMARK                            x       y       z     vdW  Elec       q    Type
REMARK                         _______ _______ _______ _____ _____    ______ ____
ROOT
ATOM      1  C   LIG    1       22.918 -32.179  11.761  0.00  0.00    +0.012 C 
ATOM      2  C   LIG    1       23.646 -30.946  11.160  0.00  0.00    -0.018 C 
ATOM      3  C   LIG    1       24.835 -31.506  10.320  0.00  0.00    +0.082 C 
ATOM      4  C   LIG    1       25.899 -31.826  11.408  0.00  0.00    +0.014 C 
ATOM      5  C   LIG    1       25.563 -30.964  12.642  0.00  0.00    +0.005 C 
ATOM      6  C   LIG    1       24.418 -30.074  12.175  0.00  0.00    -0.001 C 
ATOM      7  C   LIG    1       23.595 -29.289  13.207  0.00  0.00    -0.003 C 
ATOM      8  C   LIG    1       23.038 -30.095  14.392  0.00  0.00    +0.006 C 
ATOM      9  C   LIG    1       22.179 -29.246  15.333  0.00  0.00    +0.023 C 
ATOM     10  C   LIG    1       21.082 -28.529  14.550  0.00  0.00    +0.083 C 
ATOM     11  C   LIG    1       21.650 -27.601  13.437  0.00  0.00    +0.008 C 
ATOM     12  C   LIG    1       22.531 -26.461  14.019  0.00  0.00    +0.018 C 
ATOM     13  C   LIG    1       20.471 -26.898  12.777  0.00  0.00    -0.013 C 
ATOM     14  C   LIG    1       19.322 -26.671  13.434  0.00  0.00    +0.063 C 
ATOM     15  C   LIG    1       19.149 -27.057  14.861  0.00  0.00    +0.237 C 
ATOM     16  O   LIG    1       18.169 -26.713  15.500  0.00  0.00    -0.271 OA
ATOM     17  N   LIG    1       20.157 -27.812  15.407  0.00  0.00    -0.308 N 
ATOM     18  H   LIG    1       19.946 -28.159  16.335  0.00  0.00    +0.149 HD
ATOM     19  C   LIG    1       22.513 -28.450  12.447  0.00  0.00    +0.004 C 
ATOM     20  C   LIG    1       21.699 -29.328  11.461  0.00  0.00    +0.005 C 
ATOM     21  C   LIG    1       22.602 -30.073  10.450  0.00  0.00    +0.008 C 
ENDROOT
BRANCH   3  22
ATOM     22  C   LIG    1       25.441 -30.555   9.273  0.00  0.00    +0.221 C 
ATOM     23  N   LIG    1       24.567 -30.227   8.241  0.00  0.00    -0.285 N 
ATOM     24  H   LIG    1       23.701 -30.758   8.204  0.00  0.00    +0.155 HD
ATOM     25  O   LIG    1       26.604 -30.171   9.362  0.00  0.00    -0.275 OA
BRANCH  23  26
ATOM     26  C   LIG    1       24.856 -29.386   7.130  0.00  0.00    +0.046 A 
ATOM     27  C   LIG    1       25.217 -29.932   5.881  0.00  0.00    +0.076 A 
ATOM     28  C   LIG    1       25.480 -29.063   4.797  0.00  0.00    +0.015 A 
ATOM     29  C   LIG    1       25.396 -27.678   4.938  0.00  0.00    +0.013 A 
ATOM     30  C   LIG    1       25.040 -27.127   6.170  0.00  0.00    +0.057 A 
ATOM     31  C   LIG    1       24.768 -27.990   7.244  0.00  0.00    +0.036 A 
BRANCH  27  32
ATOM     32  C   LIG    1       25.381 -31.410   5.625  0.00  0.00    +0.419 C 
ATOM     33  F   LIG    1       26.368 -31.965   6.382  0.00  0.00    -0.166 F 
ATOM     34  F   LIG    1       25.709 -31.680   4.331  0.00  0.00    -0.166 F 
ATOM     35  F   LIG    1       24.261 -32.147   5.880  0.00  0.00    -0.166 F 
ENDBRANCH  27  32
BRANCH  30  36
ATOM     36  C   LIG    1       24.941 -25.631   6.354  0.00  0.00    +0.417 C 
ATOM     37  F   LIG    1       25.848 -25.160   7.254  0.00  0.00    -0.166 F 
ATOM     38  F   LIG    1       23.720 -25.243   6.815  0.00  0.00    -0.166 F 
ATOM     39  F   LIG    1       25.152 -24.921   5.211  0.00  0.00    -0.166 F 
ENDBRANCH  30  36
ENDBRANCH  23  26
ENDBRANCH   3  22
TORSDOF 4
ENDMDL
MODEL 2
REMARK VINA RESULT:      -7.9      2.862      3.934
REMARK  Name = *****
REMARK                            x       y       z     vdW  Elec       q    Type
REMARK                         _______ _______ _______ _____ _____    ______ ____
ROOT
ATOM      1  C   LIG    1       25.982 -31.467   9.678  0.00  0.00    +0.012 C 
ATOM      2  C   LIG    1       25.140 -30.208   9.334  0.00  0.00    -0.018 C 
ATOM      3  C   LIG    1       26.061 -29.286   8.475  0.00  0.00    +0.082 C 
ATOM      4  C   LIG    1       26.959 -28.609   9.550  0.00  0.00    +0.014 C 
ATOM      5  C   LIG    1       26.203 -28.687  10.892  0.00  0.00    +0.005 C 
ATOM      6  C   LIG    1       24.843 -29.266  10.521  0.00  0.00    -0.001 C 
ATOM      7  C   LIG    1       23.912 -29.788  11.625  0.00  0.00    -0.003 C 
ATOM      8  C   LIG    1       24.527 -30.780  12.625  0.00  0.00    +0.006 C 
ATOM      9  C   LIG    1       23.511 -31.295  13.649  0.00  0.00    +0.023 C 
ATOM     10  C   LIG    1       22.286 -31.867  12.940  0.00  0.00    +0.083 C 
ATOM     11  C   LIG    1       21.576 -30.820  12.032  0.00  0.00    +0.008 C 
ATOM     12  C   LIG    1       21.036 -29.611  12.845  0.00  0.00    +0.018 C 
ATOM     13  C   LIG    1       20.343 -31.485  11.438  0.00  0.00    -0.013 C 
ATOM     14  C   LIG    1       19.711 -32.494  12.061  0.00  0.00    +0.063 C 
ATOM     15  C   LIG    1       20.157 -32.992  13.391  0.00  0.00    +0.237 C 
ATOM     16  O   LIG    1       19.496 -33.796  14.025  0.00  0.00    -0.271 OA
ATOM     17  N   LIG    1       21.346 -32.486  13.855  0.00  0.00    -0.308 N 
ATOM     18  H   LIG    1       21.677 -32.939  14.698  0.00  0.00    +0.149 HD
ATOM     19  C   LIG    1       22.588 -30.295  10.961  0.00  0.00    +0.004 C 
ATOM     20  C   LIG    1       22.875 -31.282   9.798  0.00  0.00    +0.005 C 
ATOM     21  C   LIG    1       23.810 -30.674   8.726  0.00  0.00    +0.008 C 
ENDROOT
BRANCH   3  22
ATOM     22  C   LIG    1       25.357 -28.204   7.639  0.00  0.00    +0.221 C 
ATOM     23  N   LIG    1       26.124 -27.059   7.444  0.00  0.00    -0.285 N 
ATOM     24  H   LIG    1       26.979 -26.996   7.989  0.00  0.00    +0.155 HD
ATOM     25  O   LIG    1       24.211 -28.364   7.229  0.00  0.00    -0.275 OA
BRANCH  23  26
ATOM     26  C   LIG    1       25.728 -25.894   6.729  0.00  0.00    +0.046 A 
ATOM     27  C   LIG    1       25.575 -25.920   5.327  0.00  0.00    +0.076 A 
ATOM     28  C   LIG    1       25.165 -24.745   4.655  0.00  0.00    +0.015 A 
ATOM     29  C   LIG    1       24.913 -23.560   5.348  0.00  0.00    +0.013 A 
ATOM     30  C   LIG    1       25.063 -23.524   6.735  0.00  0.00    +0.057 A 
ATOM     31  C   LIG    1       25.460 -24.693   7.404  0.00  0.00    +0.036 A 
BRANCH  27  32
ATOM     32  C   LIG    1       25.860 -27.130   4.472  0.00  0.00    +0.419 C 
ATOM     33  F   LIG    1       27.043 -27.726   4.789  0.00  0.00    -0.166 F 
ATOM     34  F   LIG    1       25.943 -26.822   3.148  0.00  0.00    -0.166 F 
ATOM     35  F   LIG    1       24.916 -28.110   4.562  0.00  0.00    -0.166 F 
ENDBRANCH  27  32
BRANCH  30  36
ATOM     36  C   LIG    1       24.799 -22.256   7.514  0.00  0.00    +0.417 C 
ATOM     37  F   LIG    1       25.450 -22.238   8.709  0.00  0.00    -0.166 F 
ATOM     38  F   LIG    1       23.479 -22.088   7.803  0.00  0.00    -0.166 F 
ATOM     39  F   LIG    1       25.186 -21.123   6.865  0.00  0.00    -0.166 F 
ENDBRANCH  30  36
ENDBRANCH  23  26
ENDBRANCH   3  22
TORSDOF 4
ENDMDL
MODEL 3
REMARK VINA RESULT:      -7.7      1.278      1.684
REMARK  Name = *****
REMARK                            x       y       z     vdW  Elec       q    Type
REMARK                         _______ _______ _______ _____ _____    ______ ____
ROOT
ATOM      1  C   LIG    1       25.371 -31.445  12.535  0.00  0.00    +0.012 C 
ATOM      2  C   LIG    1       25.263 -30.190  11.626  0.00  0.00    -0.018 C 
ATOM      3  C   LIG    1       26.592 -30.125  10.810  0.00  0.00    +0.082 C 
ATOM      4  C   LIG    1       27.590 -29.515  11.835  0.00  0.00    +0.014 C 
ATOM      5  C   LIG    1       26.756 -28.761  12.891  0.00  0.00    +0.005 C 
ATOM      6  C   LIG    1       25.329 -28.833  12.361  0.00  0.00    -0.001 C 
ATOM      7  C   LIG    1       24.156 -28.468  13.282  0.00  0.00    -0.003 C 
ATOM      8  C   LIG    1       24.125 -29.159  14.655  0.00  0.00    +0.006 C 
ATOM      9  C   LIG    1       22.890 -28.784  15.478  0.00  0.00    +0.023 C 
ATOM     10  C   LIG    1       21.618 -29.034  14.672  0.00  0.00    +0.083 C 
ATOM     11  C   LIG    1       21.583 -28.225  13.343  0.00  0.00    +0.008 C 
ATOM     12  C   LIG    1       21.599 -26.691  13.591  0.00  0.00    +0.018 C 
ATOM     13  C   LIG    1       20.248 -28.506  12.667  0.00  0.00    -0.013 C 
ATOM     14  C   LIG    1       19.155 -28.851  13.369  0.00  0.00    +0.063 C 
ATOM     15  C   LIG    1       19.177 -28.936  14.854  0.00  0.00    +0.237 C 
ATOM     16  O   LIG    1       18.154 -29.093  15.499  0.00  0.00    -0.271 OA
ATOM     17  N   LIG    1       20.410 -28.819  15.446  0.00  0.00    -0.308 N 
ATOM     18  H   LIG    1       20.401 -29.007  16.441  0.00  0.00    +0.149 HD
ATOM     19  C   LIG    1       22.824 -28.608  12.472  0.00  0.00    +0.004 C 
ATOM     20  C   LIG    1       22.726 -29.989  11.770  0.00  0.00    +0.005 C 
ATOM     21  C   LIG    1       23.940 -30.272  10.854  0.00  0.00    +0.008 C 
ENDROOT
BRANCH   3  22
ATOM     22  C   LIG    1       26.571 -29.261   9.537  0.00  0.00    +0.221 C 
ATOM     23  N   LIG    1       25.571 -29.616   8.636  0.00  0.00    -0.285 N 
ATOM     24  H   LIG    1       25.076 -30.481   8.835  0.00  0.00    +0.155 HD
ATOM     25  O   LIG    1       27.399 -28.373   9.359  0.00  0.00    -0.275 OA
BRANCH  23  26
ATOM     26  C   LIG    1       25.324 -29.008   7.373  0.00  0.00    +0.046 A 
ATOM     27  C   LIG    1       25.123 -29.791   6.218  0.00  0.00    +0.076 A 
ATOM     28  C   LIG    1       24.863 -29.150   4.984  0.00  0.00    +0.015 A 
ATOM     29  C   LIG    1       24.808 -27.759   4.885  0.00  0.00    +0.013 A 
ATOM     30  C   LIG    1       25.006 -26.975   6.023  0.00  0.00    +0.057 A 
ATOM     31  C   LIG    1       25.253 -27.612   7.249  0.00  0.00    +0.036 A 
BRANCH  27  32
ATOM     32  C   LIG    1       25.202 -31.298   6.199  0.00  0.00    +0.419 C 
ATOM     33  F   LIG    1       25.007 -31.815   4.954  0.00  0.00    -0.166 F 
ATOM     34  F   LIG    1       24.261 -31.878   6.994  0.00  0.00    -0.166 F 
ATOM     35  F   LIG    1       26.399 -31.797   6.623  0.00  0.00    -0.166 F 
ENDBRANCH  27  32
BRANCH  30  36
ATOM     36  C   LIG    1       24.954 -25.467   5.947  0.00  0.00    +0.417 C 
ATOM     37  F   LIG    1       25.107 -25.007   4.675  0.00  0.00    -0.166 F 
ATOM     38  F   LIG    1       25.937 -24.875   6.680  0.00  0.00    -0.166 F 
ATOM     39  F   LIG    1       23.783 -24.934   6.393  0.00  0.00    -0.166 F 
ENDBRANCH  30  36
ENDBRANCH  23  26
ENDBRANCH   3  22
TORSDOF 4
ENDMDL
MODEL 4
REMARK VINA RESULT:      -7.4      1.822      2.305
REMARK  Name = *****
REMARK                            x       y       z     vdW  Elec       q    Type
REMARK                         _______ _______ _______ _____ _____    ______ ____
ROOT
ATOM      1  C   LIG    1       25.417 -32.215  11.708  0.00  0.00    +0.012 C 
ATOM      2  C   LIG    1       25.128 -30.852  11.021  0.00  0.00    -0.018 C 
ATOM      3  C   LIG    1       26.494 -30.346  10.461  0.00  0.00    +0.082 C 
ATOM      4  C   LIG    1       27.185 -29.763  11.726  0.00  0.00    +0.014 C 
ATOM      5  C   LIG    1       26.072 -29.430  12.742  0.00  0.00    +0.005 C 
ATOM      6  C   LIG    1       24.780 -29.690  11.977  0.00  0.00    -0.001 C 
ATOM      7  C   LIG    1       23.449 -29.773  12.739  0.00  0.00    -0.003 C 
ATOM      8  C   LIG    1       23.413 -30.720  13.950  0.00  0.00    +0.006 C 
ATOM      9  C   LIG    1       22.032 -30.787  14.608  0.00  0.00    +0.023 C 
ATOM     10  C   LIG    1       20.965 -31.128  13.570  0.00  0.00    +0.083 C 
ATOM     11  C   LIG    1       20.904 -30.090  12.411  0.00  0.00    +0.008 C 
ATOM     12  C   LIG    1       20.526 -28.670  12.916  0.00  0.00    +0.018 C 
ATOM     13  C   LIG    1       19.767 -30.500  11.484  0.00  0.00    -0.013 C 
ATOM     14  C   LIG    1       18.710 -31.201  11.926  0.00  0.00    +0.063 C 
ATOM     15  C   LIG    1       18.567 -31.580  13.358  0.00  0.00    +0.237 C 
ATOM     16  O   LIG    1       17.539 -32.076  13.786  0.00  0.00    -0.271 OA
ATOM     17  N   LIG    1       19.654 -31.332  14.158  0.00  0.00    -0.308 N 
ATOM     18  H   LIG    1       19.568 -31.716  15.090  0.00  0.00    +0.149 HD
ATOM     19  C   LIG    1       22.299 -30.020  11.706  0.00  0.00    +0.004 C 
ATOM     20  C   LIG    1       22.618 -31.218  10.773  0.00  0.00    +0.005 C 
ATOM     21  C   LIG    1       23.967 -31.049  10.037  0.00  0.00    +0.008 C 
ENDROOT
BRANCH   3  22
ATOM     22  C   LIG    1       26.427 -29.265   9.368  0.00  0.00    +0.221 C 
ATOM     23  N   LIG    1       25.673 -29.635   8.259  0.00  0.00    -0.285 N 
ATOM     24  H   LIG    1       25.386 -30.610   8.219  0.00  0.00    +0.155 HD
ATOM     25  O   LIG    1       27.025 -28.200   9.492  0.00  0.00    -0.275 OA
BRANCH  23  26
ATOM     26  C   LIG    1       25.450 -28.850   7.093  0.00  0.00    +0.046 A 
ATOM     27  C   LIG    1       25.331 -29.452   5.824  0.00  0.00    +0.076 A 
ATOM     28  C   LIG    1       25.094 -28.638   4.692  0.00  0.00    +0.015 A 
ATOM     29  C   LIG    1       24.980 -27.252   4.804  0.00  0.00    +0.013 A 
ATOM     30  C   LIG    1       25.097 -26.646   6.055  0.00  0.00    +0.057 A 
ATOM     31  C   LIG    1       25.322 -27.455   7.181  0.00  0.00    +0.036 A 
BRANCH  27  32
ATOM     32  C   LIG    1       25.479 -30.934   5.579  0.00  0.00    +0.419 C 
ATOM     33  F   LIG    1       26.624 -31.441   6.116  0.00  0.00    -0.166 F 
ATOM     34  F   LIG    1       25.525 -31.239   4.253  0.00  0.00    -0.166 F 
ATOM     35  F   LIG    1       24.464 -31.687   6.094  0.00  0.00    -0.166 F 
ENDBRANCH  27  32
BRANCH  30  36
ATOM     36  C   LIG    1       24.980 -25.148   6.208  0.00  0.00    +0.417 C 
ATOM     37  F   LIG    1       23.768 -24.771   6.700  0.00  0.00    -0.166 F 
ATOM     38  F   LIG    1       25.125 -24.491   5.024  0.00  0.00    -0.166 F 
ATOM     39  F   LIG    1       25.905 -24.607   7.050  0.00  0.00    -0.166 F 
ENDBRANCH  30  36
ENDBRANCH  23  26
ENDBRANCH   3  22
TORSDOF 4
ENDMDL
MODEL 5
REMARK VINA RESULT:      -7.3      2.344      3.390
REMARK  Name = *****
REMARK                            x       y       z     vdW  Elec       q    Type
REMARK                         _______ _______ _______ _____ _____    ______ ____
ROOT
ATOM      1  C   LIG    1       26.167 -30.707  13.734  0.00  0.00    +0.012 C 
ATOM      2  C   LIG    1       25.618 -30.461  12.303  0.00  0.00    -0.018 C 
ATOM      3  C   LIG    1       26.758 -29.747  11.513  0.00  0.00    +0.082 C 
ATOM      4  C   LIG    1       26.640 -28.275  12.001  0.00  0.00    +0.014 C 
ATOM      5  C   LIG    1       25.204 -28.084  12.532  0.00  0.00    +0.005 C 
ATOM      6  C   LIG    1       24.505 -29.396  12.195  0.00  0.00    -0.001 C 
ATOM      7  C   LIG    1       23.148 -29.721  12.837  0.00  0.00    -0.003 C 
ATOM      8  C   LIG    1       23.065 -29.587  14.366  0.00  0.00    +0.006 C 
ATOM      9  C   LIG    1       21.698 -29.992  14.923  0.00  0.00    +0.023 C 
ATOM     10  C   LIG    1       21.320 -31.390  14.439  0.00  0.00    +0.083 C 
ATOM     11  C   LIG    1       21.265 -31.492  12.887  0.00  0.00    +0.008 C 
ATOM     12  C   LIG    1       20.185 -30.557  12.277  0.00  0.00    +0.018 C 
ATOM     13  C   LIG    1       20.816 -32.904  12.534  0.00  0.00    -0.013 C 
ATOM     14  C   LIG    1       20.057 -33.636  13.365  0.00  0.00    +0.063 C 
ATOM     15  C   LIG    1       19.573 -33.092  14.664  0.00  0.00    +0.237 C 
ATOM     16  O   LIG    1       18.759 -33.694  15.343  0.00  0.00    -0.271 OA
ATOM     17  N   LIG    1       20.092 -31.878  15.039  0.00  0.00    -0.308 N 
ATOM     18  H   LIG    1       19.838 -31.602  15.979  0.00  0.00    +0.149 HD
ATOM     19  C   LIG    1       22.660 -31.106  12.294  0.00  0.00    +0.004 C 
ATOM     20  C   LIG    1       23.755 -32.196  12.444  0.00  0.00    +0.005 C 
ATOM     21  C   LIG    1       25.083 -31.794  11.761  0.00  0.00    +0.008 C 
ENDROOT
BRANCH   3  22
ATOM     22  C   LIG    1       26.656 -29.788   9.978  0.00  0.00    +0.221 C 
ATOM     23  N   LIG    1       25.543 -29.122   9.472  0.00  0.00    -0.285 N 
ATOM     24  H   LIG    1       24.853 -28.824  10.156  0.00  0.00    +0.155 HD
ATOM     25  O   LIG    1       27.485 -30.392   9.303  0.00  0.00    -0.275 OA
BRANCH  23  26
ATOM     26  C   LIG    1       25.183 -29.010   8.100  0.00  0.00    +0.046 A 
ATOM     27  C   LIG    1       24.432 -30.018   7.463  0.00  0.00    +0.076 A 
ATOM     28  C   LIG    1       24.080 -29.862   6.102  0.00  0.00    +0.015 A 
ATOM     29  C   LIG    1       24.463 -28.733   5.376  0.00  0.00    +0.013 A 
ATOM     30  C   LIG    1       25.207 -27.729   5.998  0.00  0.00    +0.057 A 
ATOM     31  C   LIG    1       25.548 -27.880   7.352  0.00  0.00    +0.036 A 
BRANCH  27  32
ATOM     32  C   LIG    1       24.000 -31.298   8.135  0.00  0.00    +0.419 C 
ATOM     33  F   LIG    1       23.267 -32.099   7.312  0.00  0.00    -0.166 F 
ATOM     34  F   LIG    1       23.218 -31.073   9.227  0.00  0.00    -0.166 F 
ATOM     35  F   LIG    1       25.034 -32.071   8.578  0.00  0.00    -0.166 F 
ENDBRANCH  27  32
BRANCH  30  36
ATOM     36  C   LIG    1       25.639 -26.497   5.239  0.00  0.00    +0.417 C 
ATOM     37  F   LIG    1       26.074 -26.789   3.983  0.00  0.00    -0.166 F 
ATOM     38  F   LIG    1       26.666 -25.844   5.849  0.00  0.00    -0.166 F 
ATOM     39  F   LIG    1       24.650 -25.574   5.082  0.00  0.00    -0.166 F 
ENDBRANCH  30  36
ENDBRANCH  23  26
ENDBRANCH   3  22
TORSDOF 4
ENDMDL
MODEL 6
REMARK VINA RESULT:      -6.9      3.886      7.987
REMARK  Name = *****
REMARK                            x       y       z     vdW  Elec       q    Type
REMARK                         _______ _______ _______ _____ _____    ______ ____
ROOT
ATOM      1  C   LIG    1       26.789 -27.675   5.192  0.00  0.00    +0.012 C 
ATOM      2  C   LIG    1       25.757 -27.753   6.350  0.00  0.00    -0.018 C 
ATOM      3  C   LIG    1       25.469 -29.269   6.579  0.00  0.00    +0.082 C 
ATOM      4  C   LIG    1       24.473 -29.603   5.432  0.00  0.00    +0.014 C 
ATOM      5  C   LIG    1       23.814 -28.277   5.000  0.00  0.00    +0.005 C 
ATOM      6  C   LIG    1       24.336 -27.257   6.004  0.00  0.00    -0.001 C 
ATOM      7  C   LIG    1       24.157 -25.757   5.727  0.00  0.00    -0.003 C 
ATOM      8  C   LIG    1       24.618 -25.257   4.348  0.00  0.00    +0.006 C 
ATOM      9  C   LIG    1       24.461 -23.743   4.184  0.00  0.00    +0.023 C 
ATOM     10  C   LIG    1       25.153 -23.010   5.331  0.00  0.00    +0.083 C 
ATOM     11  C   LIG    1       24.589 -23.411   6.725  0.00  0.00    +0.008 C 
ATOM     12  C   LIG    1       23.086 -23.050   6.875  0.00  0.00    +0.018 C 
ATOM     13  C   LIG    1       25.308 -22.571   7.772  0.00  0.00    -0.013 C 
ATOM     14  C   LIG    1       25.817 -21.362   7.484  0.00  0.00    +0.063 C 
ATOM     15  C   LIG    1       25.671 -20.754   6.134  0.00  0.00    +0.237 C 
ATOM     16  O   LIG    1       25.992 -19.598   5.917  0.00  0.00    -0.271 OA
ATOM     17  N   LIG    1       25.148 -21.569   5.161  0.00  0.00    -0.308 N 
ATOM     18  H   LIG    1       25.181 -21.164   4.233  0.00  0.00    +0.149 HD
ATOM     19  C   LIG    1       24.760 -24.953   6.927  0.00  0.00    +0.004 C 
ATOM     20  C   LIG    1       26.208 -25.411   7.250  0.00  0.00    +0.005 C 
ATOM     21  C   LIG    1       26.297 -26.930   7.527  0.00  0.00    +0.008 C 
ENDROOT
BRANCH   3  22
ATOM     22  C   LIG    1       24.842 -29.650   7.931  0.00  0.00    +0.221 C 
ATOM     23  N   LIG    1       25.752 -29.675   8.984  0.00  0.00    -0.285 N 
ATOM     24  H   LIG    1       26.732 -29.596   8.729  0.00  0.00    +0.155 HD
ATOM     25  O   LIG    1       23.650 -29.930   8.022  0.00  0.00    -0.275 OA
BRANCH  23  26
ATOM     26  C   LIG    1       25.463 -30.007  10.337  0.00  0.00    +0.046 A 
ATOM     27  C   LIG    1       25.504 -31.345  10.780  0.00  0.00    +0.076 A 
ATOM     28  C   LIG    1       25.226 -31.633  12.137  0.00  0.00    +0.015 A 
ATOM     29  C   LIG    1       24.908 -30.622  13.044  0.00  0.00    +0.013 A 
ATOM     30  C   LIG    1       24.863 -29.295  12.616  0.00  0.00    +0.057 A 
ATOM     31  C   LIG    1       25.149 -29.008  11.271  0.00  0.00    +0.036 A 
BRANCH  27  32
ATOM     32  C   LIG    1       25.795 -32.521   9.880  0.00  0.00    +0.419 C 
ATOM     33  F   LIG    1       24.817 -32.724   8.953  0.00  0.00    -0.166 F 
ATOM     34  F   LIG    1       25.900 -33.690  10.570  0.00  0.00    -0.166 F 
ATOM     35  F   LIG    1       26.956 -32.407   9.173  0.00  0.00    -0.166 F 
ENDBRANCH  27  32
BRANCH  30  36
ATOM     36  C   LIG    1       24.519 -28.179  13.574  0.00  0.00    +0.417 C 
ATOM     37  F   LIG    1       23.647 -27.284  13.035  0.00  0.00    -0.166 F 
ATOM     38  F   LIG    1       25.613 -27.458  13.947  0.00  0.00    -0.166 F 
ATOM     39  F   LIG    1       23.942 -28.606  14.731  0.00  0.00    -0.166 F 
ENDBRANCH  30  36
ENDBRANCH  23  26
ENDBRANCH   3  22
TORSDOF 4
ENDMDL
MODEL 7
REMARK VINA RESULT:      -6.9      4.179      8.289
REMARK  Name = *****
REMARK                            x       y       z     vdW  Elec       q    Type
REMARK                         _______ _______ _______ _____ _____    ______ ____
ROOT
ATOM      1  C   LIG    1       25.441 -33.309  10.913  0.00  0.00    +0.012 C 
ATOM      2  C   LIG    1       25.411 -31.763  10.776  0.00  0.00    -0.018 C 
ATOM      3  C   LIG    1       25.341 -31.195  12.227  0.00  0.00    +0.082 C 
ATOM      4  C   LIG    1       23.838 -31.368  12.587  0.00  0.00    +0.014 C 
ATOM      5  C   LIG    1       23.057 -31.451  11.259  0.00  0.00    +0.005 C 
ATOM      6  C   LIG    1       24.108 -31.175  10.191  0.00  0.00    -0.001 C 
ATOM      7  C   LIG    1       23.793 -31.476   8.718  0.00  0.00    -0.003 C 
ATOM      8  C   LIG    1       23.246 -32.879   8.409  0.00  0.00    +0.006 C 
ATOM      9  C   LIG    1       23.021 -33.110   6.912  0.00  0.00    +0.023 C 
ATOM     10  C   LIG    1       24.294 -32.796   6.129  0.00  0.00    +0.083 C 
ATOM     11  C   LIG    1       24.774 -31.329   6.330  0.00  0.00    +0.008 C 
ATOM     12  C   LIG    1       23.731 -30.297   5.820  0.00  0.00    +0.018 C 
ATOM     13  C   LIG    1       26.002 -31.122   5.454  0.00  0.00    -0.013 C 
ATOM     14  C   LIG    1       26.202 -31.834   4.333  0.00  0.00    +0.063 C 
ATOM     15  C   LIG    1       25.212 -32.839   3.859  0.00  0.00    +0.237 C 
ATOM     16  O   LIG    1       25.315 -33.369   2.766  0.00  0.00    -0.271 OA
ATOM     17  N   LIG    1       24.181 -33.120   4.720  0.00  0.00    -0.308 N 
ATOM     18  H   LIG    1       23.602 -33.895   4.419  0.00  0.00    +0.149 HD
ATOM     19  C   LIG    1       25.034 -31.074   7.851  0.00  0.00    +0.004 C 
ATOM     20  C   LIG    1       26.342 -31.701   8.403  0.00  0.00    +0.005 C 
ATOM     21  C   LIG    1       26.589 -31.340   9.886  0.00  0.00    +0.008 C 
ENDROOT
BRANCH   3  22
ATOM     22  C   LIG    1       25.745 -29.721  12.405  0.00  0.00    +0.221 C 
ATOM     23  N   LIG    1       24.844 -28.981  13.165  0.00  0.00    -0.285 N 
ATOM     24  H   LIG    1       23.962 -29.438  13.382  0.00  0.00    +0.155 HD
ATOM     25  O   LIG    1       26.761 -29.273  11.881  0.00  0.00    -0.275 OA
BRANCH  23  26
ATOM     26  C   LIG    1       24.947 -27.597  13.479  0.00  0.00    +0.046 A 
ATOM     27  C   LIG    1       23.800 -26.780  13.544  0.00  0.00    +0.076 A 
ATOM     28  C   LIG    1       23.942 -25.412  13.876  0.00  0.00    +0.015 A 
ATOM     29  C   LIG    1       25.194 -24.853  14.134  0.00  0.00    +0.013 A 
ATOM     30  C   LIG    1       26.337 -25.653  14.071  0.00  0.00    +0.057 A 
ATOM     31  C   LIG    1       26.194 -27.013  13.752  0.00  0.00    +0.036 A 
BRANCH  27  32
ATOM     32  C   LIG    1       22.403 -27.266  13.243  0.00  0.00    +0.419 C 
ATOM     33  F   LIG    1       21.560 -26.252  12.900  0.00  0.00    -0.166 F 
ATOM     34  F   LIG    1       21.826 -27.883  14.311  0.00  0.00    -0.166 F 
ATOM     35  F   LIG    1       22.335 -28.166  12.219  0.00  0.00    -0.166 F 
ENDBRANCH  27  32
BRANCH  30  36
ATOM     36  C   LIG    1       27.706 -25.077  14.343  0.00  0.00    +0.417 C 
ATOM     37  F   LIG    1       27.674 -24.088  15.279  0.00  0.00    -0.166 F 
ATOM     38  F   LIG    1       28.268 -24.524  13.233  0.00  0.00    -0.166 F 
ATOM     39  F   LIG    1       28.606 -25.990  14.802  0.00  0.00    -0.166 F 
ENDBRANCH  30  36
ENDBRANCH  23  26
ENDBRANCH   3  22
TORSDOF 4
ENDMDL
MODEL 8
REMARK VINA RESULT:      -6.7      3.963      8.119
REMARK  Name = *****
REMARK                            x       y       z     vdW  Elec       q    Type
REMARK                         _______ _______ _______ _____ _____    ______ ____
ROOT
ATOM      1  C   LIG    1       26.739 -27.873   5.244  0.00  0.00    +0.012 C 
ATOM      2  C   LIG    1       25.652 -27.950   6.350  0.00  0.00    -0.018 C 
ATOM      3  C   LIG    1       25.288 -29.460   6.502  0.00  0.00    +0.082 C 
ATOM      4  C   LIG    1       24.332 -29.701   5.299  0.00  0.00    +0.014 C 
ATOM      5  C   LIG    1       23.752 -28.330   4.894  0.00  0.00    +0.005 C 
ATOM      6  C   LIG    1       24.271 -27.375   5.963  0.00  0.00    -0.001 C 
ATOM      7  C   LIG    1       24.171 -25.859   5.742  0.00  0.00    -0.003 C 
ATOM      8  C   LIG    1       24.717 -25.325   4.407  0.00  0.00    +0.006 C 
ATOM      9  C   LIG    1       24.634 -23.800   4.301  0.00  0.00    +0.023 C 
ATOM     10  C   LIG    1       25.304 -23.147   5.508  0.00  0.00    +0.083 C 
ATOM     11  C   LIG    1       24.660 -23.578   6.857  0.00  0.00    +0.008 C 
ATOM     12  C   LIG    1       23.168 -23.155   6.955  0.00  0.00    +0.018 C 
ATOM     13  C   LIG    1       25.366 -22.815   7.970  0.00  0.00    -0.013 C 
ATOM     14  C   LIG    1       25.940 -21.619   7.757  0.00  0.00    +0.063 C 
ATOM     15  C   LIG    1       25.883 -20.952   6.428  0.00  0.00    +0.237 C 
ATOM     16  O   LIG    1       26.264 -19.804   6.275  0.00  0.00    -0.271 OA
ATOM     17  N   LIG    1       25.370 -21.701   5.399  0.00  0.00    -0.308 N 
ATOM     18  H   LIG    1       25.464 -21.261   4.491  0.00  0.00    +0.149 HD
ATOM     19  C   LIG    1       24.753 -25.133   7.001  0.00  0.00    +0.004 C 
ATOM     20  C   LIG    1       26.163 -25.669   7.368  0.00  0.00    +0.005 C 
ATOM     21  C   LIG    1       26.172 -27.201   7.584  0.00  0.00    +0.008 C 
ENDROOT
BRANCH   3  22
ATOM     22  C   LIG    1       24.582 -29.865   7.808  0.00  0.00    +0.221 C 
ATOM     23  N   LIG    1       25.225 -29.412   8.956  0.00  0.00    -0.285 N 
ATOM     24  H   LIG    1       26.148 -29.009   8.821  0.00  0.00    +0.155 HD
ATOM     25  O   LIG    1       23.566 -30.553   7.793  0.00  0.00    -0.275 OA
BRANCH  23  26
ATOM     26  C   LIG    1       24.814 -29.648  10.298  0.00  0.00    +0.046 A 
ATOM     27  C   LIG    1       25.754 -29.686  11.348  0.00  0.00    +0.076 A 
ATOM     28  C   LIG    1       25.304 -29.907  12.671  0.00  0.00    +0.015 A 
ATOM     29  C   LIG    1       23.951 -30.093  12.957  0.00  0.00    +0.013 A 
ATOM     30  C   LIG    1       23.013 -30.058  11.924  0.00  0.00    +0.057 A 
ATOM     31  C   LIG    1       23.459 -29.828  10.613  0.00  0.00    +0.036 A 
BRANCH  27  32
ATOM     32  C   LIG    1       27.243 -29.540  11.151  0.00  0.00    +0.419 C 
ATOM     33  F   LIG    1       27.942 -29.710  12.307  0.00  0.00    -0.166 F 
ATOM     34  F   LIG    1       27.587 -28.307  10.686  0.00  0.00    -0.166 F 
ATOM     35  F   LIG    1       27.776 -30.428  10.262  0.00  0.00    -0.166 F 
ENDBRANCH  27  32
BRANCH  30  36
ATOM     36  C   LIG    1       21.541 -30.258  12.203  0.00  0.00    +0.417 C 
ATOM     37  F   LIG    1       21.276 -31.487  12.724  0.00  0.00    -0.166 F 
ATOM     38  F   LIG    1       20.781 -30.156  11.078  0.00  0.00    -0.166 F 
ATOM     39  F   LIG    1       21.022 -29.361  13.087  0.00  0.00    -0.166 F 
ENDBRANCH  30  36
ENDBRANCH  23  26
ENDBRANCH   3  22
TORSDOF 4
ENDMDL
MODEL 9
REMARK VINA RESULT:      -6.6      6.818     10.911
REMARK  Name = *****
REMARK                            x       y       z     vdW  Elec       q    Type
REMARK                         _______ _______ _______ _____ _____    ______ ____
ROOT
ATOM      1  C   LIG    1       23.938 -21.900   7.746  0.00  0.00    +0.012 C 
ATOM      2  C   LIG    1       25.481 -22.034   7.625  0.00  0.00    -0.018 C 
ATOM      3  C   LIG    1       26.053 -20.584   7.692  0.00  0.00    +0.082 C 
ATOM      4  C   LIG    1       25.809 -20.056   6.249  0.00  0.00    +0.014 C 
ATOM      5  C   LIG    1       25.679 -21.287   5.328  0.00  0.00    +0.005 C 
ATOM      6  C   LIG    1       26.000 -22.468   6.237  0.00  0.00    -0.001 C 
ATOM      7  C   LIG    1       25.676 -23.895   5.772  0.00  0.00    -0.003 C 
ATOM      8  C   LIG    1       24.246 -24.140   5.263  0.00  0.00    +0.006 C 
ATOM      9  C   LIG    1       23.995 -25.601   4.883  0.00  0.00    +0.023 C 
ATOM     10  C   LIG    1       24.366 -26.523   6.042  0.00  0.00    +0.083 C 
ATOM     11  C   LIG    1       25.856 -26.379   6.468  0.00  0.00    +0.008 C 
ATOM     12  C   LIG    1       26.832 -26.768   5.324  0.00  0.00    +0.018 C 
ATOM     13  C   LIG    1       26.117 -27.389   7.578  0.00  0.00    -0.013 C 
ATOM     14  C   LIG    1       25.409 -28.525   7.684  0.00  0.00    +0.063 C 
ATOM     15  C   LIG    1       24.354 -28.883   6.698  0.00  0.00    +0.237 C 
ATOM     16  O   LIG    1       23.823 -29.981   6.703  0.00  0.00    -0.271 OA
ATOM     17  N   LIG    1       24.028 -27.911   5.786  0.00  0.00    -0.308 N 
ATOM     18  H   LIG    1       23.224 -28.144   5.215  0.00  0.00    +0.149 HD
ATOM     19  C   LIG    1       26.132 -24.897   6.885  0.00  0.00    +0.004 C 
ATOM     20  C   LIG    1       25.574 -24.497   8.277  0.00  0.00    +0.005 C 
ATOM     21  C   LIG    1       25.956 -23.051   8.672  0.00  0.00    +0.008 C 
ENDROOT
BRANCH   3  22
ATOM     22  C   LIG    1       27.546 -20.454   8.040  0.00  0.00    +0.221 C 
ATOM     23  N   LIG    1       28.012 -19.142   8.025  0.00  0.00    -0.285 N 
ATOM     24  H   LIG    1       27.376 -18.447   7.645  0.00  0.00    +0.155 HD
ATOM     25  O   LIG    1       28.233 -21.445   8.270  0.00  0.00    -0.275 OA
BRANCH  23  26
ATOM     26  C   LIG    1       29.346 -18.721   8.289  0.00  0.00    +0.046 A 
ATOM     27  C   LIG    1       30.323 -18.729   7.273  0.00  0.00    +0.076 A 
ATOM     28  C   LIG    1       31.633 -18.287   7.571  0.00  0.00    +0.015 A 
ATOM     29  C   LIG    1       31.980 -17.850   8.850  0.00  0.00    +0.013 A 
ATOM     30  C   LIG    1       31.020 -17.840   9.863  0.00  0.00    +0.057 A 
ATOM     31  C   LIG    1       29.717 -18.268   9.564  0.00  0.00    +0.036 A 
BRANCH  27  32
ATOM     32  C   LIG    1       30.073 -19.219   5.868  0.00  0.00    +0.419 C 
ATOM     33  F   LIG    1       31.182 -19.141   5.082  0.00  0.00    -0.166 F 
ATOM     34  F   LIG    1       29.113 -18.495   5.228  0.00  0.00    -0.166 F 
ATOM     35  F   LIG    1       29.659 -20.518   5.798  0.00  0.00    -0.166 F 
ENDBRANCH  27  32
BRANCH  30  36
ATOM     36  C   LIG    1       31.366 -17.374  11.258  0.00  0.00    +0.417 C 
ATOM     37  F   LIG    1       30.956 -18.252  12.213  0.00  0.00    -0.166 F 
ATOM     38  F   LIG    1       30.782 -16.183  11.568  0.00  0.00    -0.166 F 
ATOM     39  F   LIG    1       32.701 -17.200  11.465  0.00  0.00    -0.166 F 
ENDBRANCH  30  36
ENDBRANCH  23  26
ENDBRANCH   3  22
TORSDOF 4
ENDMDL
