MODEL 1
REMARK VINA RESULT:      -9.9      0.000      0.000
REMARK  Name = *****
REMARK                            x       y       z     vdW  Elec       q    Type
REMARK                         _______ _______ _______ _____ _____    ______ ____
ROOT
ATOM      1  C   LIG    1       27.259 -22.575   7.510  0.00  0.00    -0.021 C 
ATOM      2  C   LIG    1       26.065 -22.648   6.862  0.00  0.00    -0.035 C 
ATOM      3  C   LIG    1       25.138 -21.451   6.715  0.00  0.00    +0.059 C 
ATOM      4  C   LIG    1       23.699 -21.594   7.283  0.00  0.00    +0.085 C 
ATOM      5  C   LIG    1       22.817 -20.460   6.783  0.00  0.00    -0.011 C 
ATOM      6  C   LIG    1       23.072 -19.809   5.641  0.00  0.00    +0.009 C 
ATOM      7  C   LIG    1       24.201 -20.153   4.795  0.00  0.00    +0.051 C 
ATOM      8  S   LIG    1       22.811 -23.128   6.859  0.00  0.00    -0.116 S 
ATOM      9  C   LIG    1       24.128 -24.275   6.506  0.00  0.00    +0.016 A 
ATOM     10  C   LIG    1       23.676 -25.583   6.234  0.00  0.00    +0.015 A 
ATOM     11  C   LIG    1       24.566 -26.611   5.947  0.00  0.00    +0.001 A 
ATOM     12  C   LIG    1       25.925 -26.343   5.921  0.00  0.00    +0.001 A 
ATOM     13  C   LIG    1       26.386 -25.050   6.182  0.00  0.00    +0.009 A 
ATOM     14  C   LIG    1       25.187 -20.934   5.302  0.00  0.00    -0.005 C 
ATOM     15  C   LIG    1       25.509 -23.990   6.492  0.00  0.00    -0.008 A 
ENDROOT
BRANCH   7  16
ATOM     16  C   LIG    1       24.308 -19.597   3.402  0.00  0.00    +0.417 C 
ATOM     17  F   LIG    1       25.434 -18.859   3.237  0.00  0.00    -0.166 F 
ATOM     18  F   LIG    1       23.261 -18.778   3.112  0.00  0.00    -0.166 F 
ATOM     19  F   LIG    1       24.323 -20.557   2.436  0.00  0.00    -0.166 F 
ENDBRANCH   7  16
BRANCH   1  20
ATOM     20  C   LIG    1       27.823 -21.416   8.304  0.00  0.00    +0.043 C 
BRANCH  20  21
ATOM     21  C   LIG    1       29.204 -20.922   7.773  0.00  0.00    +0.088 C 
BRANCH  21  25
ATOM     22  N   LIG    1       31.874 -18.516   8.905  0.00  0.00    -0.298 NA
ATOM     23  C   LIG    1       30.575 -18.760   9.564  0.00  0.00    +0.100 C 
ATOM     24  C   LIG    1       29.375 -18.576   8.616  0.00  0.00    +0.100 C 
ATOM     25  N   LIG    1       29.341 -19.478   7.453  0.00  0.00    -0.300 NA
ATOM     26  C   LIG    1       30.604 -19.189   6.731  0.00  0.00    +0.100 C 
ATOM     27  C   LIG    1       31.892 -19.241   7.609  0.00  0.00    +0.100 C 
BRANCH  22  28
ATOM     28  C   LIG    1       32.102 -17.058   8.806  0.00  0.00    +0.112 C 
BRANCH  28  29
ATOM     29  C   LIG    1       32.796 -16.392  10.005  0.00  0.00    +0.171 C 
BRANCH  29  30
ATOM     30  O   LIG    1       33.025 -15.007   9.776  0.00  0.00    -0.394 OA
ATOM     31  H   LIG    1       32.770 -14.546  10.593  0.00  0.00    +0.209 HD
ENDBRANCH  29  30
ENDBRANCH  28  29
ENDBRANCH  22  28
ENDBRANCH  21  25
ENDBRANCH  20  21
ENDBRANCH   1  20
TORSDOF 7
ENDMDL
MODEL 2
REMARK VINA RESULT:      -7.2      6.084      9.095
REMARK  Name = *****
REMARK                            x       y       z     vdW  Elec       q    Type
REMARK                         _______ _______ _______ _____ _____    ______ ____
ROOT
ATOM      1  C   LIG    1       25.159 -27.690   6.858  0.00  0.00    -0.021 C 
ATOM      2  C   LIG    1       25.247 -29.012   7.170  0.00  0.00    -0.035 C 
ATOM      3  C   LIG    1       24.638 -30.101   6.302  0.00  0.00    +0.059 C 
ATOM      4  C   LIG    1       23.598 -31.043   6.971  0.00  0.00    +0.085 C 
ATOM      5  C   LIG    1       23.330 -32.250   6.085  0.00  0.00    -0.011 C 
ATOM      6  C   LIG    1       24.226 -32.693   5.194  0.00  0.00    +0.009 C 
ATOM      7  C   LIG    1       25.522 -32.060   5.025  0.00  0.00    +0.051 C 
ATOM      8  S   LIG    1       24.053 -31.723   8.599  0.00  0.00    -0.116 S 
ATOM      9  C   LIG    1       25.240 -30.544   9.214  0.00  0.00    +0.016 A 
ATOM     10  C   LIG    1       25.676 -30.820  10.526  0.00  0.00    +0.015 A 
ATOM     11  C   LIG    1       26.595 -29.999  11.171  0.00  0.00    +0.001 A 
ATOM     12  C   LIG    1       27.097 -28.891  10.505  0.00  0.00    +0.001 A 
ATOM     13  C   LIG    1       26.678 -28.612   9.202  0.00  0.00    +0.009 A 
ATOM     14  C   LIG    1       25.722 -30.826   5.550  0.00  0.00    -0.005 C 
ATOM     15  C   LIG    1       25.736 -29.416   8.529  0.00  0.00    -0.008 A 
ENDROOT
BRANCH   7  16
ATOM     16  C   LIG    1       26.601 -32.733   4.224  0.00  0.00    +0.417 C 
ATOM     17  F   LIG    1       27.628 -33.149   5.006  0.00  0.00    -0.166 F 
ATOM     18  F   LIG    1       27.135 -31.888   3.300  0.00  0.00    -0.166 F 
ATOM     19  F   LIG    1       26.164 -33.825   3.536  0.00  0.00    -0.166 F 
ENDBRANCH   7  16
BRANCH   1  20
ATOM     20  C   LIG    1       24.362 -27.044   5.745  0.00  0.00    +0.043 C 
BRANCH  20  21
ATOM     21  C   LIG    1       24.093 -25.526   5.985  0.00  0.00    +0.088 C 
BRANCH  21  25
ATOM     22  N   LIG    1       24.806 -22.075   7.319  0.00  0.00    -0.298 NA
ATOM     23  C   LIG    1       23.930 -22.412   6.179  0.00  0.00    +0.100 C 
ATOM     24  C   LIG    1       24.641 -23.254   5.102  0.00  0.00    +0.100 C 
ATOM     25  N   LIG    1       25.139 -24.565   5.547  0.00  0.00    -0.300 NA
ATOM     26  C   LIG    1       26.086 -24.243   6.643  0.00  0.00    +0.100 C 
ATOM     27  C   LIG    1       25.517 -23.305   7.752  0.00  0.00    +0.100 C 
BRANCH  22  28
ATOM     28  C   LIG    1       25.688 -20.949   6.938  0.00  0.00    +0.112 C 
BRANCH  28  29
ATOM     29  C   LIG    1       26.798 -20.583   7.936  0.00  0.00    +0.171 C 
BRANCH  29  30
ATOM     30  O   LIG    1       26.282 -20.392   9.248  0.00  0.00    -0.394 OA
ATOM     31  H   LIG    1       26.936 -20.767   9.861  0.00  0.00    +0.209 HD
ENDBRANCH  29  30
ENDBRANCH  28  29
ENDBRANCH  22  28
ENDBRANCH  21  25
ENDBRANCH  20  21
ENDBRANCH   1  20
TORSDOF 7
ENDMDL
MODEL 3
REMARK VINA RESULT:      -7.1      6.512      9.326
REMARK  Name = *****
REMARK                            x       y       z     vdW  Elec       q    Type
REMARK                         _______ _______ _______ _____ _____    ______ ____
ROOT
ATOM      1  C   LIG    1       25.078 -28.330   6.336  0.00  0.00    -0.021 C 
ATOM      2  C   LIG    1       25.147 -29.485   7.052  0.00  0.00    -0.035 C 
ATOM      3  C   LIG    1       25.021 -29.518   8.567  0.00  0.00    +0.059 C 
ATOM      4  C   LIG    1       26.206 -30.131   9.364  0.00  0.00    +0.085 C 
ATOM      5  C   LIG    1       25.799 -30.381  10.808  0.00  0.00    -0.011 C 
ATOM      6  C   LIG    1       24.523 -30.571  11.167  0.00  0.00    +0.009 C 
ATOM      7  C   LIG    1       23.442 -30.567  10.197  0.00  0.00    +0.051 C 
ATOM      8  S   LIG    1       26.853 -31.723   8.756  0.00  0.00    -0.116 S 
ATOM      9  C   LIG    1       26.376 -31.725   7.038  0.00  0.00    +0.016 A 
ATOM     10  C   LIG    1       26.856 -32.842   6.324  0.00  0.00    +0.015 A 
ATOM     11  C   LIG    1       26.590 -33.003   4.969  0.00  0.00    +0.001 A 
ATOM     12  C   LIG    1       25.831 -32.049   4.310  0.00  0.00    +0.001 A 
ATOM     13  C   LIG    1       25.343 -30.941   5.008  0.00  0.00    +0.009 A 
ATOM     14  C   LIG    1       23.675 -30.066   8.958  0.00  0.00    -0.005 C 
ATOM     15  C   LIG    1       25.610 -30.741   6.378  0.00  0.00    -0.008 A 
ENDROOT
BRANCH   7  16
ATOM     16  C   LIG    1       22.071 -31.047  10.581  0.00  0.00    +0.417 C 
ATOM     17  F   LIG    1       22.089 -31.766  11.732  0.00  0.00    -0.166 F 
ATOM     18  F   LIG    1       21.542 -31.859   9.625  0.00  0.00    -0.166 F 
ATOM     19  F   LIG    1       21.175 -30.038  10.764  0.00  0.00    -0.166 F 
ENDBRANCH   7  16
BRANCH   1  20
ATOM     20  C   LIG    1       25.019 -26.909   6.856  0.00  0.00    +0.043 C 
BRANCH  20  21
ATOM     21  C   LIG    1       24.426 -25.902   5.823  0.00  0.00    +0.088 C 
BRANCH  21  25
ATOM     22  N   LIG    1       24.723 -22.486   7.384  0.00  0.00    -0.298 NA
ATOM     23  C   LIG    1       23.824 -22.870   6.278  0.00  0.00    +0.100 C 
ATOM     24  C   LIG    1       24.568 -23.516   5.094  0.00  0.00    +0.100 C 
ATOM     25  N   LIG    1       25.285 -24.766   5.400  0.00  0.00    -0.300 NA
ATOM     26  C   LIG    1       26.252 -24.381   6.457  0.00  0.00    +0.100 C 
ATOM     27  C   LIG    1       25.635 -23.622   7.672  0.00  0.00    +0.100 C 
BRANCH  22  28
ATOM     28  C   LIG    1       25.399 -21.215   7.042  0.00  0.00    +0.112 C 
BRANCH  28  29
ATOM     29  C   LIG    1       26.451 -20.710   8.042  0.00  0.00    +0.171 C 
BRANCH  29  30
ATOM     30  O   LIG    1       25.895 -20.526   9.339  0.00  0.00    -0.394 OA
ATOM     31  H   LIG    1       25.917 -21.394   9.775  0.00  0.00    +0.209 HD
ENDBRANCH  29  30
ENDBRANCH  28  29
ENDBRANCH  22  28
ENDBRANCH  21  25
ENDBRANCH  20  21
ENDBRANCH   1  20
TORSDOF 7
ENDMDL
MODEL 4
REMARK VINA RESULT:      -6.9      8.418     10.186
REMARK  Name = *****
REMARK                            x       y       z     vdW  Elec       q    Type
REMARK                         _______ _______ _______ _____ _____    ______ ____
ROOT
ATOM      1  C   LIG    1       26.779 -28.717   9.896  0.00  0.00    -0.021 C 
ATOM      2  C   LIG    1       25.702 -29.294   9.295  0.00  0.00    -0.035 C 
ATOM      3  C   LIG    1       24.949 -30.462   9.912  0.00  0.00    +0.059 C 
ATOM      4  C   LIG    1       24.851 -31.765   9.071  0.00  0.00    +0.085 C 
ATOM      5  C   LIG    1       23.817 -32.705   9.672  0.00  0.00    -0.011 C 
ATOM      6  C   LIG    1       22.802 -32.263  10.424  0.00  0.00    +0.009 C 
ATOM      7  C   LIG    1       22.609 -30.850  10.703  0.00  0.00    +0.051 C 
ATOM      8  S   LIG    1       24.374 -31.567   7.324  0.00  0.00    -0.116 S 
ATOM      9  C   LIG    1       24.847 -29.887   6.962  0.00  0.00    +0.016 A 
ATOM     10  C   LIG    1       24.652 -29.527   5.613  0.00  0.00    +0.015 A 
ATOM     11  C   LIG    1       24.977 -28.257   5.149  0.00  0.00    +0.001 A 
ATOM     12  C   LIG    1       25.495 -27.325   6.033  0.00  0.00    +0.001 A 
ATOM     13  C   LIG    1       25.686 -27.667   7.374  0.00  0.00    +0.009 A 
ATOM     14  C   LIG    1       23.630 -29.990  10.461  0.00  0.00    -0.005 C 
ATOM     15  C   LIG    1       25.383 -28.951   7.871  0.00  0.00    -0.008 A 
ENDROOT
BRANCH   7  16
ATOM     16  C   LIG    1       21.326 -30.361  11.312  0.00  0.00    +0.417 C 
ATOM     17  F   LIG    1       20.892 -31.179  12.304  0.00  0.00    -0.166 F 
ATOM     18  F   LIG    1       20.327 -30.306  10.390  0.00  0.00    -0.166 F 
ATOM     19  F   LIG    1       21.423 -29.112  11.848  0.00  0.00    -0.166 F 
ENDBRANCH   7  16
BRANCH   1  20
ATOM     20  C   LIG    1       27.510 -29.172  11.141  0.00  0.00    +0.043 C 
BRANCH  20  21
ATOM     21  C   LIG    1       26.918 -28.572  12.453  0.00  0.00    +0.088 C 
BRANCH  21  25
ATOM     22  N   LIG    1       26.035 -26.065  15.123  0.00  0.00    -0.298 NA
ATOM     23  C   LIG    1       25.248 -27.254  14.742  0.00  0.00    +0.100 C 
ATOM     24  C   LIG    1       24.917 -27.299  13.238  0.00  0.00    +0.100 C 
ATOM     25  N   LIG    1       26.076 -27.353  12.333  0.00  0.00    -0.300 NA
ATOM     26  C   LIG    1       26.841 -26.121  12.645  0.00  0.00    +0.100 C 
ATOM     27  C   LIG    1       27.153 -25.904  14.158  0.00  0.00    +0.100 C 
BRANCH  22  28
ATOM     28  C   LIG    1       25.132 -24.898  15.229  0.00  0.00    +0.112 C 
BRANCH  28  29
ATOM     29  C   LIG    1       25.800 -23.539  15.497  0.00  0.00    +0.171 C 
BRANCH  29  30
ATOM     30  O   LIG    1       25.500 -22.597  14.474  0.00  0.00    -0.394 OA
ATOM     31  H   LIG    1       25.718 -23.027  13.629  0.00  0.00    +0.209 HD
ENDBRANCH  29  30
ENDBRANCH  28  29
ENDBRANCH  22  28
ENDBRANCH  21  25
ENDBRANCH  20  21
ENDBRANCH   1  20
TORSDOF 7
ENDMDL
