MODEL 1
REMARK VINA RESULT:      -1.3      0.000      0.000
REMARK  Name = *****
REMARK                            x       y       z     vdW  Elec       q    Type
REMARK                         _______ _______ _______ _____ _____    ______ ____
ROOT
ATOM      1  N   UNK A  0       22.014 -19.179   3.735  0.00  0.00    -0.342 N 
ATOM      2  H   UNK A  0       21.165 -18.909   3.238  0.00  0.00    +0.146 HD
ENDROOT
BRANCH   1   3
ATOM      3  C   UNK A  0       22.845 -18.053   3.833  0.00  0.00    +0.027 A 
ATOM      4  C   UNK A  0       24.147 -18.082   3.305  0.00  0.00    +0.024 A 
ATOM      5  C   UNK A  0       24.987 -16.956   3.391  0.00  0.00    +0.015 A 
ATOM      6  C   UNK A  0       24.530 -15.795   4.029  0.00  0.00    +0.037 A 
ATOM      7  C   UNK A  0       23.268 -15.798   4.609  0.00  0.00    +0.015 A 
ATOM      8  C   UNK A  0       22.444 -16.901   4.500  0.00  0.00    +0.024 A 
BRANCH   6   9
ATOM      9  C   UNK A  0       25.390 -14.583   4.096  0.00  0.00    +0.245 C 
ATOM     10  N   GLU A  1       26.283 -14.411   3.051  0.00  0.00    -0.298 N 
ATOM     11  H   GLU A  1       26.493 -15.190   2.455  0.00  0.00    +0.150 HD
ATOM     12  O   UNK A  0       25.288 -13.785   5.006  0.00  0.00    -0.270 OA
BRANCH  10  13
ATOM     13  CA  GLU A  1       27.193 -13.280   2.908  0.00  0.00    +0.182 C 
BRANCH  13  14
ATOM     14  C   GLU A  1       28.260 -13.259   4.028  0.00  0.00    +0.325 C 
ATOM     15  O   GLU A  1       29.216 -12.504   4.057  0.00  0.00    -0.249 OA
BRANCH  14  16
ATOM     16  OXT GLU A  1       28.094 -14.207   4.977  0.00  0.00    -0.479 OA
ATOM     17  HXT GLU A  1       28.858 -14.836   5.045  0.00  0.00    +0.295 HD
ENDBRANCH  14  16
ENDBRANCH  13  14
BRANCH  13  18
ATOM     18  CB  GLU A  1       26.390 -11.950   2.861  0.00  0.00    +0.045 C 
BRANCH  18  19
ATOM     19  CG  GLU A  1       25.231 -11.931   1.850  0.00  0.00    +0.123 C 
BRANCH  19  20
ATOM     20  CD  GLU A  1       23.904 -12.225   2.503  0.00  0.00    +0.305 C 
ATOM     21  OE1 GLU A  1       23.330 -11.540   3.326  0.00  0.00    -0.251 OA
BRANCH  20  22
ATOM     22  OE2 GLU A  1       23.339 -13.356   2.032  0.00  0.00    -0.481 OA
ATOM     23  HE2 GLU A  1       23.465 -13.312   1.062  0.00  0.00    +0.295 HD
ENDBRANCH  20  22
ENDBRANCH  19  20
ENDBRANCH  18  19
ENDBRANCH  13  18
ENDBRANCH  10  13
ENDBRANCH   6   9
ENDBRANCH   1   3
BRANCH   1  24
ATOM     24  C   UNK A  0       21.740 -19.972   4.958  0.00  0.00    +0.126 C 
BRANCH  24  32
ATOM     25  C   UNK A  0       27.743 -20.145   6.231  0.00  0.00    +0.195 C 
ATOM     26  N   UNK A  0       27.647 -19.858   4.912  0.00  0.00    -0.294 N 
ATOM     27  H   UNK A  0       28.449 -19.528   4.401  0.00  0.00    +0.172 HD
ATOM     28  C   UNK A  0       26.516 -20.094   4.189  0.00  0.00    +0.276 C 
ATOM     29  O   UNK A  0       26.492 -19.843   2.987  0.00  0.00    -0.266 OA
ATOM     30  C   UNK A  0       25.339 -20.607   4.964  0.00  0.00    +0.142 C 
ATOM     31  N   UNK A  0       24.071 -20.809   4.386  0.00  0.00    -0.261 N 
ATOM     32  C   UNK A  0       22.877 -20.972   5.283  0.00  0.00    +0.115 C 
ATOM     33  C   UNK A  0       23.196 -20.862   6.784  0.00  0.00    +0.127 C 
ATOM     34  N   UNK A  0       24.536 -21.341   7.062  0.00  0.00    -0.326 N 
ATOM     35  H   UNK A  0       24.812 -21.301   8.040  0.00  0.00    +0.148 HD
ATOM     36  C   UNK A  0       23.906 -21.117   3.039  0.00  0.00    +0.333 C 
ATOM     37  O   UNK A  0       22.837 -21.371   2.492  0.00  0.00    -0.279 OA
ATOM     38  C   UNK A  0       25.568 -20.854   6.279  0.00  0.00    +0.149 C 
ATOM     39  N   UNK A  0       26.764 -20.638   6.908  0.00  0.00    -0.199 NA
BRANCH  25  40
ATOM     40  N   UNK A  0       28.925 -19.879   6.835  0.00  0.00    -0.329 N 
ATOM     41  H   UNK A  0       29.462 -20.679   7.146  0.00  0.00    +0.145 HD
ATOM     42  H   UNK A  0       29.484 -19.232   6.285  0.00  0.00    +0.145 HD
ENDBRANCH  25  40
ENDBRANCH  24  32
ENDBRANCH   1  24
TORSDOF 12
ENDMDL
