MODEL 1
REMARK VINA RESULT:      -8.3      0.000      0.000
REMARK  Name = *****
REMARK                            x       y       z     vdW  Elec       q    Type
REMARK                         _______ _______ _______ _____ _____    ______ ____
ROOT
ATOM      1  C   LIG    1       24.472 -21.447   7.399  0.00  0.00    +0.190 C 
ENDROOT
BRANCH   1   2
ATOM      2  C   LIG    1       24.508 -20.380   6.234  0.00  0.00    +0.036 C 
ATOM      3  C   LIG    1       25.205 -20.840   4.941  0.00  0.00    +0.007 C 
ATOM      4  C   LIG    1       24.419 -21.880   4.154  0.00  0.00    +0.000 C 
ATOM      5  C   LIG    1       22.987 -21.449   3.849  0.00  0.00    +0.000 C 
ATOM      6  C   LIG    1       22.250 -20.798   5.014  0.00  0.00    +0.000 C 
ATOM      7  C   LIG    1       23.113 -19.836   5.828  0.00  0.00    +0.007 C 
ENDBRANCH   1   2
BRANCH   1   8
ATOM      8  C   LIG    1       24.622 -22.916   6.948  0.00  0.00    -0.005 A 
ATOM      9  C   LIG    1       25.885 -23.532   6.811  0.00  0.00    +0.007 A 
ATOM     10  C   LIG    1       26.002 -24.889   6.484  0.00  0.00    +0.000 A 
ATOM     11  C   LIG    1       24.866 -25.661   6.259  0.00  0.00    +0.000 A 
ATOM     12  C   LIG    1       23.611 -25.073   6.355  0.00  0.00    +0.000 A 
ATOM     13  C   LIG    1       23.495 -23.721   6.692  0.00  0.00    +0.007 A 
ENDBRANCH   1   8
BRANCH   1  14
ATOM     14  C   LIG    1       25.598 -21.063   8.410  0.00  0.00    +0.344 C 
ATOM     15  O   LIG    1       25.604 -21.354   9.605  0.00  0.00    -0.247 OA
BRANCH  14  16
ATOM     16  O   LIG    1       26.533 -20.249   7.839  0.00  0.00    -0.457 OA
BRANCH  16  17
ATOM     17  C   LIG    1       27.898 -20.681   7.932  0.00  0.00    +0.283 C 
BRANCH  17  18
ATOM     18  C   LIG    1       28.763 -19.455   8.259  0.00  0.00    +0.174 C 
BRANCH  18  19
ATOM     19  N   LIG    1       30.288 -19.637   8.055  0.00  0.00    +0.243 N 
ATOM     20  C   LIG    1       30.611 -21.099   8.401  0.00  0.00    +0.192 C 
BRANCH  19  22
ATOM     21  C   LIG    1       29.684 -18.530   5.812  0.00  0.00    +0.060 C 
ATOM     22  C   LIG    1       30.711 -19.324   6.604  0.00  0.00    +0.129 C 
ENDBRANCH  19  22
BRANCH  19  23
ATOM     23  C   LIG    1       31.015 -18.696   9.053  0.00  0.00    +0.129 C 
ATOM     24  C   LIG    1       30.160 -17.560   9.586  0.00  0.00    +0.060 C 
ENDBRANCH  19  23
ENDBRANCH  18  19
ENDBRANCH  17  18
ENDBRANCH  16  17
ENDBRANCH  14  16
ENDBRANCH   1  14
BRANCH   1  25
ATOM     25  O   LIG    1       23.231 -21.299   8.100  0.00  0.00    -0.373 OA
ATOM     26  H   LIG    1       23.418 -21.424   9.049  0.00  0.00    +0.211 HD
ENDBRANCH   1  25
TORSDOF 10
ENDMDL
MODEL 2
REMARK VINA RESULT:      -8.0      1.410      3.945
REMARK  Name = *****
REMARK                            x       y       z     vdW  Elec       q    Type
REMARK                         _______ _______ _______ _____ _____    ______ ____
ROOT
ATOM      1  C   LIG    1       25.300 -21.331   6.250  0.00  0.00    +0.190 C 
ENDROOT
BRANCH   1   2
ATOM      2  C   LIG    1       24.662 -22.169   7.429  0.00  0.00    +0.036 C 
ATOM      3  C   LIG    1       23.219 -22.646   7.191  0.00  0.00    +0.007 C 
ATOM      4  C   LIG    1       23.099 -23.752   6.151  0.00  0.00    +0.000 C 
ATOM      5  C   LIG    1       24.002 -24.949   6.438  0.00  0.00    +0.000 C 
ATOM      6  C   LIG    1       25.420 -24.593   6.872  0.00  0.00    +0.000 C 
ATOM      7  C   LIG    1       25.490 -23.414   7.842  0.00  0.00    +0.007 C 
ENDBRANCH   1   2
BRANCH   1   8
ATOM      8  C   LIG    1       24.312 -20.433   5.474  0.00  0.00    -0.005 A 
ATOM      9  C   LIG    1       23.077 -20.027   6.025  0.00  0.00    +0.007 A 
ATOM     10  C   LIG    1       22.230 -19.144   5.343  0.00  0.00    +0.000 A 
ATOM     11  C   LIG    1       22.579 -18.663   4.085  0.00  0.00    +0.000 A 
ATOM     12  C   LIG    1       23.773 -19.070   3.504  0.00  0.00    +0.000 A 
ATOM     13  C   LIG    1       24.623 -19.944   4.190  0.00  0.00    +0.007 A 
ENDBRANCH   1   8
BRANCH   1  14
ATOM     14  C   LIG    1       26.455 -20.478   6.864  0.00  0.00    +0.344 C 
ATOM     15  O   LIG    1       26.563 -20.187   8.054  0.00  0.00    -0.247 OA
BRANCH  14  16
ATOM     16  O   LIG    1       27.280 -19.978   5.899  0.00  0.00    -0.457 OA
BRANCH  16  17
ATOM     17  C   LIG    1       28.668 -20.326   6.003  0.00  0.00    +0.283 C 
BRANCH  17  18
ATOM     18  C   LIG    1       29.417 -19.122   6.593  0.00  0.00    +0.174 C 
BRANCH  18  19
ATOM     19  N   LIG    1       30.207 -19.398   7.898  0.00  0.00    +0.243 N 
ATOM     20  C   LIG    1       31.679 -19.072   7.602  0.00  0.00    +0.192 C 
BRANCH  19  22
ATOM     21  C   LIG    1       30.523 -17.290   9.338  0.00  0.00    +0.060 C 
ATOM     22  C   LIG    1       29.693 -18.535   9.069  0.00  0.00    +0.129 C 
ENDBRANCH  19  22
BRANCH  19  23
ATOM     23  C   LIG    1       30.067 -20.908   8.226  0.00  0.00    +0.129 C 
ATOM     24  C   LIG    1       31.222 -21.492   9.020  0.00  0.00    +0.060 C 
ENDBRANCH  19  23
ENDBRANCH  18  19
ENDBRANCH  17  18
ENDBRANCH  16  17
ENDBRANCH  14  16
ENDBRANCH   1  14
BRANCH   1  25
ATOM     25  O   LIG    1       25.915 -22.246   5.335  0.00  0.00    -0.373 OA
ATOM     26  H   LIG    1       25.438 -22.174   4.488  0.00  0.00    +0.211 HD
ENDBRANCH   1  25
TORSDOF 10
ENDMDL
MODEL 3
REMARK VINA RESULT:      -7.8      0.997      3.366
REMARK  Name = *****
REMARK                            x       y       z     vdW  Elec       q    Type
REMARK                         _______ _______ _______ _____ _____    ______ ____
ROOT
ATOM      1  C   LIG    1       25.456 -21.845   6.829  0.00  0.00    +0.190 C 
ENDROOT
BRANCH   1   2
ATOM      2  C   LIG    1       24.717 -23.182   7.232  0.00  0.00    +0.036 C 
ATOM      3  C   LIG    1       23.677 -23.691   6.218  0.00  0.00    +0.007 C 
ATOM      4  C   LIG    1       24.286 -24.248   4.938  0.00  0.00    +0.000 C 
ATOM      5  C   LIG    1       25.338 -25.325   5.190  0.00  0.00    +0.000 C 
ATOM      6  C   LIG    1       26.320 -25.012   6.314  0.00  0.00    +0.000 C 
ATOM      7  C   LIG    1       25.671 -24.367   7.537  0.00  0.00    +0.007 C 
ENDBRANCH   1   2
BRANCH   1   8
ATOM      8  C   LIG    1       24.634 -20.881   5.947  0.00  0.00    -0.005 A 
ATOM      9  C   LIG    1       25.105 -20.424   4.696  0.00  0.00    +0.007 A 
ATOM     10  C   LIG    1       24.312 -19.617   3.870  0.00  0.00    +0.000 A 
ATOM     11  C   LIG    1       23.041 -19.224   4.278  0.00  0.00    +0.000 A 
ATOM     12  C   LIG    1       22.564 -19.631   5.517  0.00  0.00    +0.000 A 
ATOM     13  C   LIG    1       23.352 -20.445   6.338  0.00  0.00    +0.007 A 
ENDBRANCH   1   8
BRANCH   1  14
ATOM     14  C   LIG    1       25.892 -21.143   8.153  0.00  0.00    +0.344 C 
ATOM     15  O   LIG    1       25.377 -21.327   9.255  0.00  0.00    -0.247 OA
BRANCH  14  16
ATOM     16  O   LIG    1       26.846 -20.192   7.930  0.00  0.00    -0.457 OA
BRANCH  16  17
ATOM     17  C   LIG    1       28.188 -20.533   8.308  0.00  0.00    +0.283 C 
BRANCH  17  18
ATOM     18  C   LIG    1       29.017 -19.241   8.332  0.00  0.00    +0.174 C 
BRANCH  18  19
ATOM     19  N   LIG    1       30.537 -19.415   8.084  0.00  0.00    +0.243 N 
ATOM     20  C   LIG    1       30.897 -20.844   8.519  0.00  0.00    +0.192 C 
BRANCH  19  22
ATOM     21  C   LIG    1       29.788 -18.585   5.766  0.00  0.00    +0.060 C 
ATOM     22  C   LIG    1       30.902 -19.200   6.600  0.00  0.00    +0.129 C 
ENDBRANCH  19  22
BRANCH  19  23
ATOM     23  C   LIG    1       31.283 -18.396   8.986  0.00  0.00    +0.129 C 
ATOM     24  C   LIG    1       30.416 -17.267   9.514  0.00  0.00    +0.060 C 
ENDBRANCH  19  23
ENDBRANCH  18  19
ENDBRANCH  17  18
ENDBRANCH  16  17
ENDBRANCH  14  16
ENDBRANCH   1  14
BRANCH   1  25
ATOM     25  O   LIG    1       26.663 -22.193   6.139  0.00  0.00    -0.373 OA
ATOM     26  H   LIG    1       26.532 -21.976   5.197  0.00  0.00    +0.211 HD
ENDBRANCH   1  25
TORSDOF 10
ENDMDL
MODEL 4
REMARK VINA RESULT:      -7.7      1.210      3.724
REMARK  Name = *****
REMARK                            x       y       z     vdW  Elec       q    Type
REMARK                         _______ _______ _______ _____ _____    ______ ____
ROOT
ATOM      1  C   LIG    1       25.419 -21.798   6.767  0.00  0.00    +0.190 C 
ENDROOT
BRANCH   1   2
ATOM      2  C   LIG    1       24.640 -23.116   7.159  0.00  0.00    +0.036 C 
ATOM      3  C   LIG    1       23.675 -23.654   6.087  0.00  0.00    +0.007 C 
ATOM      4  C   LIG    1       24.374 -24.259   4.877  0.00  0.00    +0.000 C 
ATOM      5  C   LIG    1       25.394 -25.333   5.245  0.00  0.00    +0.000 C 
ATOM      6  C   LIG    1       26.291 -24.987   6.428  0.00  0.00    +0.000 C 
ATOM      7  C   LIG    1       25.558 -24.295   7.576  0.00  0.00    +0.007 C 
ENDBRANCH   1   2
BRANCH   1   8
ATOM      8  C   LIG    1       24.641 -20.821   5.859  0.00  0.00    -0.005 A 
ATOM      9  C   LIG    1       25.196 -20.302   4.669  0.00  0.00    +0.007 A 
ATOM     10  C   LIG    1       24.448 -19.483   3.812  0.00  0.00    +0.000 A 
ATOM     11  C   LIG    1       23.137 -19.141   4.132  0.00  0.00    +0.000 A 
ATOM     12  C   LIG    1       22.576 -19.611   5.312  0.00  0.00    +0.000 A 
ATOM     13  C   LIG    1       23.321 -20.436   6.161  0.00  0.00    +0.007 A 
ENDBRANCH   1   8
BRANCH   1  14
ATOM     14  C   LIG    1       25.838 -21.098   8.097  0.00  0.00    +0.344 C 
ATOM     15  O   LIG    1       25.091 -20.432   8.812  0.00  0.00    -0.247 OA
BRANCH  14  16
ATOM     16  O   LIG    1       27.180 -21.204   8.322  0.00  0.00    -0.457 OA
BRANCH  16  17
ATOM     17  C   LIG    1       27.965 -20.028   8.074  0.00  0.00    +0.283 C 
BRANCH  17  18
ATOM     18  C   LIG    1       29.375 -20.475   7.664  0.00  0.00    +0.174 C 
BRANCH  18  19
ATOM     19  N   LIG    1       30.535 -19.577   8.164  0.00  0.00    +0.243 N 
ATOM     20  C   LIG    1       31.365 -19.195   6.928  0.00  0.00    +0.192 C 
BRANCH  19  22
ATOM     21  C   LIG    1       30.753 -17.954  10.149  0.00  0.00    +0.060 C 
ATOM     22  C   LIG    1       30.011 -18.309   8.869  0.00  0.00    +0.129 C 
ENDBRANCH  19  22
BRANCH  19  23
ATOM     23  C   LIG    1       31.405 -20.423   9.131  0.00  0.00    +0.129 C 
ATOM     24  C   LIG    1       31.092 -21.909   9.126  0.00  0.00    +0.060 C 
ENDBRANCH  19  23
ENDBRANCH  18  19
ENDBRANCH  17  18
ENDBRANCH  16  17
ENDBRANCH  14  16
ENDBRANCH   1  14
BRANCH   1  25
ATOM     25  O   LIG    1       26.635 -22.178   6.109  0.00  0.00    -0.373 OA
ATOM     26  H   LIG    1       26.505 -23.078   5.757  0.00  0.00    +0.211 HD
ENDBRANCH   1  25
TORSDOF 10
ENDMDL
MODEL 5
REMARK VINA RESULT:      -7.5      0.617      1.884
REMARK  Name = *****
REMARK                            x       y       z     vdW  Elec       q    Type
REMARK                         _______ _______ _______ _____ _____    ______ ____
ROOT
ATOM      1  C   LIG    1       24.590 -21.665   7.463  0.00  0.00    +0.190 C 
ENDROOT
BRANCH   1   2
ATOM      2  C   LIG    1       24.606 -20.562   6.331  0.00  0.00    +0.036 C 
ATOM      3  C   LIG    1       25.258 -20.990   5.005  0.00  0.00    +0.007 C 
ATOM      4  C   LIG    1       24.436 -21.995   4.209  0.00  0.00    +0.000 C 
ATOM      5  C   LIG    1       23.001 -21.536   3.961  0.00  0.00    +0.000 C 
ATOM      6  C   LIG    1       22.308 -20.914   5.167  0.00  0.00    +0.000 C 
ATOM      7  C   LIG    1       23.207 -19.988   5.985  0.00  0.00    +0.007 C 
ENDBRANCH   1   2
BRANCH   1   8
ATOM      8  C   LIG    1       24.651 -23.123   6.960  0.00  0.00    -0.005 A 
ATOM      9  C   LIG    1       23.486 -23.876   6.697  0.00  0.00    +0.007 A 
ATOM     10  C   LIG    1       23.558 -25.168   6.160  0.00  0.00    +0.000 A 
ATOM     11  C   LIG    1       24.792 -25.754   5.896  0.00  0.00    +0.000 A 
ATOM     12  C   LIG    1       25.956 -25.050   6.175  0.00  0.00    +0.000 A 
ATOM     13  C   LIG    1       25.883 -23.756   6.701  0.00  0.00    +0.007 A 
ENDBRANCH   1   8
BRANCH   1  14
ATOM     14  C   LIG    1       25.786 -21.362   8.420  0.00  0.00    +0.344 C 
ATOM     15  O   LIG    1       25.682 -21.066   9.609  0.00  0.00    -0.247 OA
BRANCH  14  16
ATOM     16  O   LIG    1       26.974 -21.340   7.750  0.00  0.00    -0.457 OA
BRANCH  16  17
ATOM     17  C   LIG    1       27.881 -20.281   8.091  0.00  0.00    +0.283 C 
BRANCH  17  18
ATOM     18  C   LIG    1       29.284 -20.685   7.616  0.00  0.00    +0.174 C 
BRANCH  18  19
ATOM     19  N   LIG    1       30.437 -19.747   8.054  0.00  0.00    +0.243 N 
ATOM     20  C   LIG    1       29.803 -18.630   8.899  0.00  0.00    +0.192 C 
BRANCH  19  22
ATOM     21  C   LIG    1       31.145 -21.943   9.192  0.00  0.00    +0.060 C 
ATOM     22  C   LIG    1       31.504 -20.499   8.876  0.00  0.00    +0.129 C 
ENDBRANCH  19  22
BRANCH  19  23
ATOM     23  C   LIG    1       31.062 -19.134   6.773  0.00  0.00    +0.129 C 
ATOM     24  C   LIG    1       30.052 -18.682   5.732  0.00  0.00    +0.060 C 
ENDBRANCH  19  23
ENDBRANCH  18  19
ENDBRANCH  17  18
ENDBRANCH  16  17
ENDBRANCH  14  16
ENDBRANCH   1  14
BRANCH   1  25
ATOM     25  O   LIG    1       23.397 -21.490   8.239  0.00  0.00    -0.373 OA
ATOM     26  H   LIG    1       23.129 -22.371   8.561  0.00  0.00    +0.211 HD
ENDBRANCH   1  25
TORSDOF 10
ENDMDL
MODEL 6
REMARK VINA RESULT:      -7.0      2.974      6.988
REMARK  Name = *****
REMARK                            x       y       z     vdW  Elec       q    Type
REMARK                         _______ _______ _______ _____ _____    ______ ____
ROOT
ATOM      1  C   LIG    1       23.958 -22.132   6.736  0.00  0.00    +0.190 C 
ENDROOT
BRANCH   1   2
ATOM      2  C   LIG    1       25.479 -22.491   6.976  0.00  0.00    +0.036 C 
ATOM      3  C   LIG    1       26.487 -21.651   6.172  0.00  0.00    +0.007 C 
ATOM      4  C   LIG    1       26.606 -20.209   6.648  0.00  0.00    +0.000 C 
ATOM      5  C   LIG    1       26.901 -20.090   8.141  0.00  0.00    +0.000 C 
ATOM      6  C   LIG    1       26.087 -21.020   9.032  0.00  0.00    +0.000 C 
ATOM      7  C   LIG    1       25.918 -22.428   8.462  0.00  0.00    +0.007 C 
ENDBRANCH   1   2
BRANCH   1   8
ATOM      8  C   LIG    1       23.694 -21.115   5.606  0.00  0.00    -0.005 A 
ATOM      9  C   LIG    1       22.870 -19.983   5.794  0.00  0.00    +0.007 A 
ATOM     10  C   LIG    1       22.707 -19.025   4.785  0.00  0.00    +0.000 A 
ATOM     11  C   LIG    1       23.339 -19.181   3.555  0.00  0.00    +0.000 A 
ATOM     12  C   LIG    1       24.130 -20.301   3.331  0.00  0.00    +0.000 A 
ATOM     13  C   LIG    1       24.300 -21.252   4.342  0.00  0.00    +0.007 A 
ENDBRANCH   1   8
BRANCH   1  14
ATOM     14  C   LIG    1       23.208 -23.473   6.457  0.00  0.00    +0.344 C 
ATOM     15  O   LIG    1       22.043 -23.710   6.774  0.00  0.00    -0.247 OA
BRANCH  14  16
ATOM     16  O   LIG    1       24.038 -24.414   5.923  0.00  0.00    -0.457 OA
BRANCH  16  17
ATOM     17  C   LIG    1       23.984 -25.722   6.511  0.00  0.00    +0.283 C 
BRANCH  17  18
ATOM     18  C   LIG    1       24.368 -26.745   5.431  0.00  0.00    +0.174 C 
BRANCH  18  19
ATOM     19  N   LIG    1       25.429 -27.794   5.848  0.00  0.00    +0.243 N 
ATOM     20  C   LIG    1       26.546 -27.738   4.794  0.00  0.00    +0.192 C 
BRANCH  19  22
ATOM     21  C   LIG    1       25.720 -28.582   8.280  0.00  0.00    +0.060 C 
ATOM     22  C   LIG    1       26.002 -27.499   7.250  0.00  0.00    +0.129 C 
ENDBRANCH  19  22
BRANCH  19  23
ATOM     23  C   LIG    1       24.754 -29.190   5.814  0.00  0.00    +0.129 C 
ATOM     24  C   LIG    1       25.593 -30.281   5.172  0.00  0.00    +0.060 C 
ENDBRANCH  19  23
ENDBRANCH  18  19
ENDBRANCH  17  18
ENDBRANCH  16  17
ENDBRANCH  14  16
ENDBRANCH   1  14
BRANCH   1  25
ATOM     25  O   LIG    1       23.423 -21.617   7.962  0.00  0.00    -0.373 OA
ATOM     26  H   LIG    1       23.076 -22.375   8.468  0.00  0.00    +0.211 HD
ENDBRANCH   1  25
TORSDOF 10
ENDMDL
MODEL 7
REMARK VINA RESULT:      -6.9      3.000      6.757
REMARK  Name = *****
REMARK                            x       y       z     vdW  Elec       q    Type
REMARK                         _______ _______ _______ _____ _____    ______ ____
ROOT
ATOM      1  C   LIG    1       24.032 -22.342   7.047  0.00  0.00    +0.190 C 
ENDROOT
BRANCH   1   2
ATOM      2  C   LIG    1       25.506 -22.629   7.538  0.00  0.00    +0.036 C 
ATOM      3  C   LIG    1       26.619 -22.203   6.564  0.00  0.00    +0.007 C 
ATOM      4  C   LIG    1       26.798 -20.695   6.454  0.00  0.00    +0.000 C 
ATOM      5  C   LIG    1       27.000 -20.013   7.805  0.00  0.00    +0.000 C 
ATOM      6  C   LIG    1       26.069 -20.495   8.912  0.00  0.00    +0.000 C 
ATOM      7  C   LIG    1       25.848 -22.006   8.917  0.00  0.00    +0.007 C 
ENDBRANCH   1   2
BRANCH   1   8
ATOM      8  C   LIG    1       23.917 -21.409   5.822  0.00  0.00    -0.005 A 
ATOM      9  C   LIG    1       24.426 -21.770   4.555  0.00  0.00    +0.007 A 
ATOM     10  C   LIG    1       24.240 -20.949   3.435  0.00  0.00    +0.000 A 
ATOM     11  C   LIG    1       23.566 -19.738   3.553  0.00  0.00    +0.000 A 
ATOM     12  C   LIG    1       23.083 -19.342   4.793  0.00  0.00    +0.000 A 
ATOM     13  C   LIG    1       23.260 -20.166   5.909  0.00  0.00    +0.007 A 
ENDBRANCH   1   8
BRANCH   1  14
ATOM     14  C   LIG    1       23.368 -23.724   6.751  0.00  0.00    +0.344 C 
ATOM     15  O   LIG    1       22.172 -23.900   6.526  0.00  0.00    -0.247 OA
BRANCH  14  16
ATOM     16  O   LIG    1       24.256 -24.751   6.892  0.00  0.00    -0.457 OA
BRANCH  16  17
ATOM     17  C   LIG    1       24.645 -25.429   5.688  0.00  0.00    +0.283 C 
BRANCH  17  18
ATOM     18  C   LIG    1       24.049 -26.843   5.726  0.00  0.00    +0.174 C 
BRANCH  18  19
ATOM     19  N   LIG    1       24.999 -27.958   6.233  0.00  0.00    +0.243 N 
ATOM     20  C   LIG    1       24.155 -28.892   7.114  0.00  0.00    +0.192 C 
BRANCH  19  22
ATOM     21  C   LIG    1       25.541 -30.258   5.214  0.00  0.00    +0.060 C 
ATOM     22  C   LIG    1       25.628 -28.747   5.066  0.00  0.00    +0.129 C 
ENDBRANCH  19  22
BRANCH  19  23
ATOM     23  C   LIG    1       26.099 -27.286   7.096  0.00  0.00    +0.129 C 
ATOM     24  C   LIG    1       26.365 -27.970   8.426  0.00  0.00    +0.060 C 
ENDBRANCH  19  23
ENDBRANCH  18  19
ENDBRANCH  17  18
ENDBRANCH  16  17
ENDBRANCH  14  16
ENDBRANCH   1  14
BRANCH   1  25
ATOM     25  O   LIG    1       23.302 -21.769   8.139  0.00  0.00    -0.373 OA
ATOM     26  H   LIG    1       23.516 -22.290   8.936  0.00  0.00    +0.211 HD
ENDBRANCH   1  25
TORSDOF 10
ENDMDL
MODEL 8
REMARK VINA RESULT:      -6.7      2.459      6.703
REMARK  Name = *****
REMARK                            x       y       z     vdW  Elec       q    Type
REMARK                         _______ _______ _______ _____ _____    ______ ____
ROOT
ATOM      1  C   LIG    1       26.703 -20.918   7.118  0.00  0.00    +0.190 C 
ENDROOT
BRANCH   1   2
ATOM      2  C   LIG    1       28.146 -21.084   6.495  0.00  0.00    +0.036 C 
ATOM      3  C   LIG    1       28.606 -19.932   5.584  0.00  0.00    +0.007 C 
ATOM      4  C   LIG    1       28.923 -18.643   6.332  0.00  0.00    +0.000 C 
ATOM      5  C   LIG    1       29.922 -18.838   7.470  0.00  0.00    +0.000 C 
ATOM      6  C   LIG    1       29.676 -20.068   8.336  0.00  0.00    +0.000 C 
ATOM      7  C   LIG    1       29.268 -21.309   7.543  0.00  0.00    +0.007 C 
ENDBRANCH   1   2
BRANCH   1   8
ATOM      8  C   LIG    1       25.592 -20.549   6.112  0.00  0.00    -0.005 A 
ATOM      9  C   LIG    1       24.223 -20.601   6.455  0.00  0.00    +0.007 A 
ATOM     10  C   LIG    1       23.231 -20.183   5.558  0.00  0.00    +0.000 A 
ATOM     11  C   LIG    1       23.574 -19.727   4.289  0.00  0.00    +0.000 A 
ATOM     12  C   LIG    1       24.910 -19.695   3.913  0.00  0.00    +0.000 A 
ATOM     13  C   LIG    1       25.902 -20.103   4.812  0.00  0.00    +0.007 A 
ENDBRANCH   1   8
BRANCH   1  14
ATOM     14  C   LIG    1       26.362 -22.254   7.850  0.00  0.00    +0.344 C 
ATOM     15  O   LIG    1       26.067 -22.352   9.040  0.00  0.00    -0.247 OA
BRANCH  14  16
ATOM     16  O   LIG    1       26.549 -23.336   7.040  0.00  0.00    -0.457 OA
BRANCH  16  17
ATOM     17  C   LIG    1       25.435 -24.230   6.900  0.00  0.00    +0.283 C 
BRANCH  17  18
ATOM     18  C   LIG    1       25.983 -25.661   6.816  0.00  0.00    +0.174 C 
BRANCH  18  19
ATOM     19  N   LIG    1       25.171 -26.639   5.928  0.00  0.00    +0.243 N 
ATOM     20  C   LIG    1       23.876 -25.910   5.536  0.00  0.00    +0.192 C 
BRANCH  19  22
ATOM     21  C   LIG    1       27.445 -27.262   4.899  0.00  0.00    +0.060 C 
ATOM     22  C   LIG    1       25.957 -27.050   4.666  0.00  0.00    +0.129 C 
ENDBRANCH  19  22
BRANCH  19  23
ATOM     23  C   LIG    1       24.825 -27.883   6.788  0.00  0.00    +0.129 C 
ATOM     24  C   LIG    1       24.125 -28.998   6.032  0.00  0.00    +0.060 C 
ENDBRANCH  19  23
ENDBRANCH  18  19
ENDBRANCH  17  18
ENDBRANCH  16  17
ENDBRANCH  14  16
ENDBRANCH   1  14
BRANCH   1  25
ATOM     25  O   LIG    1       26.769 -19.907   8.131  0.00  0.00    -0.373 OA
ATOM     26  H   LIG    1       27.697 -19.851   8.426  0.00  0.00    +0.211 HD
ENDBRANCH   1  25
TORSDOF 10
ENDMDL
MODEL 9
REMARK VINA RESULT:      -6.6      2.847      6.504
REMARK  Name = *****
REMARK                            x       y       z     vdW  Elec       q    Type
REMARK                         _______ _______ _______ _____ _____    ______ ____
ROOT
ATOM      1  C   LIG    1       25.342 -21.769   6.171  0.00  0.00    +0.190 C 
ENDROOT
BRANCH   1   2
ATOM      2  C   LIG    1       24.067 -21.218   6.925  0.00  0.00    +0.036 C 
ATOM      3  C   LIG    1       23.490 -19.904   6.370  0.00  0.00    +0.007 C 
ATOM      4  C   LIG    1       22.801 -20.054   5.020  0.00  0.00    +0.000 C 
ATOM      5  C   LIG    1       21.728 -21.139   5.010  0.00  0.00    +0.000 C 
ATOM      6  C   LIG    1       22.120 -22.438   5.706  0.00  0.00    +0.000 C 
ATOM      7  C   LIG    1       22.893 -22.230   7.007  0.00  0.00    +0.007 C 
ENDBRANCH   1   2
BRANCH   1   8
ATOM      8  C   LIG    1       26.646 -20.984   6.427  0.00  0.00    -0.005 A 
ATOM      9  C   LIG    1       27.235 -20.165   5.439  0.00  0.00    +0.007 A 
ATOM     10  C   LIG    1       28.371 -19.393   5.713  0.00  0.00    +0.000 A 
ATOM     11  C   LIG    1       28.965 -19.436   6.971  0.00  0.00    +0.000 A 
ATOM     12  C   LIG    1       28.427 -20.257   7.953  0.00  0.00    +0.000 A 
ATOM     13  C   LIG    1       27.287 -21.020   7.681  0.00  0.00    +0.007 A 
ENDBRANCH   1   8
BRANCH   1  14
ATOM     14  C   LIG    1       25.510 -23.266   6.582  0.00  0.00    +0.344 C 
ATOM     15  O   LIG    1       25.965 -23.657   7.656  0.00  0.00    -0.247 OA
BRANCH  14  16
ATOM     16  O   LIG    1       25.206 -24.109   5.553  0.00  0.00    -0.457 OA
BRANCH  16  17
ATOM     17  C   LIG    1       24.373 -25.233   5.873  0.00  0.00    +0.283 C 
BRANCH  17  18
ATOM     18  C   LIG    1       24.865 -26.436   5.057  0.00  0.00    +0.174 C 
BRANCH  18  19
ATOM     19  N   LIG    1       25.846 -27.387   5.789  0.00  0.00    +0.243 N 
ATOM     20  C   LIG    1       27.232 -27.161   5.164  0.00  0.00    +0.192 C 
BRANCH  19  22
ATOM     21  C   LIG    1       26.239 -28.315   8.157  0.00  0.00    +0.060 C 
ATOM     22  C   LIG    1       25.891 -27.104   7.305  0.00  0.00    +0.129 C 
ENDBRANCH  19  22
BRANCH  19  23
ATOM     23  C   LIG    1       25.387 -28.844   5.516  0.00  0.00    +0.129 C 
ATOM     24  C   LIG    1       23.906 -29.092   5.744  0.00  0.00    +0.060 C 
ENDBRANCH  19  23
ENDBRANCH  18  19
ENDBRANCH  17  18
ENDBRANCH  16  17
ENDBRANCH  14  16
ENDBRANCH   1  14
BRANCH   1  25
ATOM     25  O   LIG    1       25.065 -21.765   4.764  0.00  0.00    -0.373 OA
ATOM     26  H   LIG    1       25.772 -22.276   4.328  0.00  0.00    +0.211 HD
ENDBRANCH   1  25
TORSDOF 10
ENDMDL
