MODEL 1
REMARK VINA RESULT:      -5.0      0.000      0.000
REMARK  Name = *****
REMARK                            x       y       z     vdW  Elec       q    Type
REMARK                         _______ _______ _______ _____ _____    ______ ____
ROOT
ATOM      1  O   LIG    1       27.293 -16.639   3.370  0.00  0.00    -0.489 OA
ENDROOT
BRANCH   1   2
ATOM      2  C   LIG    1       27.383 -17.739   4.181  0.00  0.00    +0.124 A 
ATOM      3  C   LIG    1       26.257 -18.584   4.249  0.00  0.00    +0.005 A 
ATOM      4  C   LIG    1       24.992 -18.255   3.494  0.00  0.00    +0.040 C 
ATOM      5  C   LIG    1       24.116 -19.486   3.269  0.00  0.00    +0.013 C 
ATOM      6  C   LIG    1       23.837 -20.194   4.582  0.00  0.00    +0.080 C 
ATOM      7  C   LIG    1       25.124 -20.598   5.264  0.00  0.00    +0.164 C 
ATOM      8  O   LIG    1       25.179 -21.571   6.000  0.00  0.00    -0.292 OA
ATOM      9  C   LIG    1       26.313 -19.717   5.078  0.00  0.00    +0.024 A 
ATOM     10  C   LIG    1       27.488 -20.041   5.767  0.00  0.00    +0.012 A 
ATOM     11  C   LIG    1       28.610 -19.228   5.650  0.00  0.00    +0.004 A 
ATOM     12  C   LIG    1       28.554 -18.078   4.867  0.00  0.00    +0.046 A 
ENDBRANCH   1   2
BRANCH   1  13
ATOM     13  C   LIG    1       27.304 -15.359   4.020  0.00  0.00    +0.261 C 
BRANCH  13  14
ATOM     14  C   LIG    1       27.351 -14.245   2.966  0.00  0.00    +0.166 C 
BRANCH  14  15
ATOM     15  O   LIG    1       26.588 -14.626   1.813  0.00  0.00    -0.387 OA
ATOM     16  H   LIG    1       26.810 -13.964   1.131  0.00  0.00    +0.210 HD
ENDBRANCH  14  15
BRANCH  14  17
ATOM     17  C   LIG    1       26.870 -12.871   3.466  0.00  0.00    +0.116 C 
BRANCH  17  18
ATOM     18  N   LIG    1       25.861 -12.919   4.538  0.00  0.00    -0.309 NA
ATOM     19  H   LIG    1       25.989 -13.779   5.073  0.00  0.00    +0.122 HD
BRANCH  18  21
ATOM     20  C   LIG    1       23.720 -11.841   5.012  0.00  0.00    +0.027 C 
ATOM     21  C   LIG    1       24.462 -12.826   4.084  0.00  0.00    +0.011 C 
ATOM     22  C   LIG    1       24.382 -12.283   2.648  0.00  0.00    +0.027 C 
ATOM     23  C   LIG    1       23.761 -14.189   4.181  0.00  0.00    +0.027 C 
ENDBRANCH  18  21
ENDBRANCH  17  18
ENDBRANCH  14  17
ENDBRANCH  13  14
ENDBRANCH   1  13
TORSDOF 7
ENDMDL
MODEL 2
REMARK VINA RESULT:      -4.7      2.668      6.653
REMARK  Name = *****
REMARK                            x       y       z     vdW  Elec       q    Type
REMARK                         _______ _______ _______ _____ _____    ______ ____
ROOT
ATOM      1  O   LIG    1       25.971 -17.557   3.089  0.00  0.00    -0.489 OA
ENDROOT
BRANCH   1   2
ATOM      2  C   LIG    1       25.247 -16.506   3.586  0.00  0.00    +0.124 A 
ATOM      3  C   LIG    1       25.952 -15.323   3.889  0.00  0.00    +0.005 A 
ATOM      4  C   LIG    1       27.449 -15.245   3.713  0.00  0.00    +0.040 C 
ATOM      5  C   LIG    1       27.942 -13.805   3.585  0.00  0.00    +0.013 C 
ATOM      6  C   LIG    1       27.451 -12.963   4.748  0.00  0.00    +0.080 C 
ATOM      7  C   LIG    1       25.943 -12.984   4.834  0.00  0.00    +0.164 C 
ATOM      8  O   LIG    1       25.316 -12.044   5.299  0.00  0.00    -0.292 OA
ATOM      9  C   LIG    1       25.241 -14.228   4.408  0.00  0.00    +0.024 A 
ATOM     10  C   LIG    1       23.850 -14.285   4.556  0.00  0.00    +0.012 A 
ATOM     11  C   LIG    1       23.159 -15.440   4.205  0.00  0.00    +0.004 A 
ATOM     12  C   LIG    1       23.856 -16.547   3.730  0.00  0.00    +0.046 A 
ENDBRANCH   1   2
BRANCH   1  13
ATOM     13  C   LIG    1       25.358 -18.853   3.165  0.00  0.00    +0.261 C 
BRANCH  13  14
ATOM     14  C   LIG    1       26.178 -19.760   4.091  0.00  0.00    +0.166 C 
BRANCH  14  15
ATOM     15  O   LIG    1       27.203 -18.998   4.743  0.00  0.00    -0.387 OA
ATOM     16  H   LIG    1       27.092 -18.087   4.414  0.00  0.00    +0.210 HD
ENDBRANCH  14  15
BRANCH  14  17
ATOM     17  C   LIG    1       25.349 -20.510   5.149  0.00  0.00    +0.116 C 
BRANCH  17  18
ATOM     18  N   LIG    1       24.070 -21.056   4.663  0.00  0.00    -0.309 NA
ATOM     19  H   LIG    1       23.935 -20.767   3.693  0.00  0.00    +0.122 HD
BRANCH  18  21
ATOM     20  C   LIG    1       23.222 -20.891   6.948  0.00  0.00    +0.027 C 
ATOM     21  C   LIG    1       22.887 -20.680   5.457  0.00  0.00    +0.011 C 
ATOM     22  C   LIG    1       22.532 -19.198   5.251  0.00  0.00    +0.027 C 
ATOM     23  C   LIG    1       21.686 -21.571   5.109  0.00  0.00    +0.027 C 
ENDBRANCH  18  21
ENDBRANCH  17  18
ENDBRANCH  14  17
ENDBRANCH  13  14
ENDBRANCH   1  13
TORSDOF 7
ENDMDL
MODEL 3
REMARK VINA RESULT:      -4.2      2.022      3.802
REMARK  Name = *****
REMARK                            x       y       z     vdW  Elec       q    Type
REMARK                         _______ _______ _______ _____ _____    ______ ____
ROOT
ATOM      1  O   LIG    1       24.443 -15.390   3.837  0.00  0.00    -0.489 OA
ENDROOT
BRANCH   1   2
ATOM      2  C   LIG    1       23.641 -16.469   4.096  0.00  0.00    +0.124 A 
ATOM      3  C   LIG    1       24.209 -17.749   3.928  0.00  0.00    +0.005 A 
ATOM      4  C   LIG    1       25.627 -17.911   3.435  0.00  0.00    +0.040 C 
ATOM      5  C   LIG    1       26.215 -19.271   3.805  0.00  0.00    +0.013 C 
ATOM      6  C   LIG    1       25.309 -20.395   3.337  0.00  0.00    +0.080 C 
ATOM      7  C   LIG    1       23.925 -20.256   3.929  0.00  0.00    +0.164 C 
ATOM      8  O   LIG    1       23.218 -21.231   4.134  0.00  0.00    -0.292 OA
ATOM      9  C   LIG    1       23.412 -18.879   4.178  0.00  0.00    +0.024 A 
ATOM     10  C   LIG    1       22.103 -18.739   4.654  0.00  0.00    +0.012 A 
ATOM     11  C   LIG    1       21.572 -17.471   4.866  0.00  0.00    +0.004 A 
ATOM     12  C   LIG    1       22.335 -16.342   4.581  0.00  0.00    +0.046 A 
ENDBRANCH   1   2
BRANCH   1  13
ATOM     13  C   LIG    1       23.830 -14.095   3.939  0.00  0.00    +0.261 C 
BRANCH  13  14
ATOM     14  C   LIG    1       24.266 -13.223   2.755  0.00  0.00    +0.166 C 
BRANCH  14  15
ATOM     15  O   LIG    1       24.158 -11.835   3.101  0.00  0.00    -0.387 OA
ATOM     16  H   LIG    1       23.545 -11.809   3.859  0.00  0.00    +0.210 HD
ENDBRANCH  14  15
BRANCH  14  17
ATOM     17  C   LIG    1       25.686 -13.511   2.237  0.00  0.00    +0.116 C 
BRANCH  17  18
ATOM     18  N   LIG    1       26.754 -12.732   2.887  0.00  0.00    -0.309 NA
ATOM     19  H   LIG    1       27.389 -12.380   2.170  0.00  0.00    +0.122 HD
BRANCH  18  21
ATOM     20  C   LIG    1       28.977 -12.943   3.878  0.00  0.00    +0.027 C 
ATOM     21  C   LIG    1       27.524 -13.460   3.911  0.00  0.00    +0.011 C 
ATOM     22  C   LIG    1       26.957 -13.203   5.316  0.00  0.00    +0.027 C 
ATOM     23  C   LIG    1       27.550 -14.966   3.611  0.00  0.00    +0.027 C 
ENDBRANCH  18  21
ENDBRANCH  17  18
ENDBRANCH  14  17
ENDBRANCH  13  14
ENDBRANCH   1  13
TORSDOF 7
ENDMDL
MODEL 4
REMARK VINA RESULT:      -4.1      2.420      6.228
REMARK  Name = *****
REMARK                            x       y       z     vdW  Elec       q    Type
REMARK                         _______ _______ _______ _____ _____    ______ ____
ROOT
ATOM      1  O   LIG    1       26.461 -16.963   3.120  0.00  0.00    -0.489 OA
ENDROOT
BRANCH   1   2
ATOM      2  C   LIG    1       26.631 -15.678   3.564  0.00  0.00    +0.124 A 
ATOM      3  C   LIG    1       25.472 -14.964   3.931  0.00  0.00    +0.005 A 
ATOM      4  C   LIG    1       24.102 -15.581   3.790  0.00  0.00    +0.040 C 
ATOM      5  C   LIG    1       23.068 -14.903   4.686  0.00  0.00    +0.013 C 
ATOM      6  C   LIG    1       23.053 -13.403   4.450  0.00  0.00    +0.080 C 
ATOM      7  C   LIG    1       24.418 -12.803   4.696  0.00  0.00    +0.164 C 
ATOM      8  O   LIG    1       24.549 -11.648   5.073  0.00  0.00    -0.292 OA
ATOM      9  C   LIG    1       25.611 -13.640   4.382  0.00  0.00    +0.024 A 
ATOM     10  C   LIG    1       26.878 -13.066   4.535  0.00  0.00    +0.012 A 
ATOM     11  C   LIG    1       28.017 -13.799   4.219  0.00  0.00    +0.004 A 
ATOM     12  C   LIG    1       27.893 -15.097   3.729  0.00  0.00    +0.046 A 
ENDBRANCH   1   2
BRANCH   1  13
ATOM     13  C   LIG    1       26.825 -18.011   4.031  0.00  0.00    +0.261 C 
BRANCH  13  14
ATOM     14  C   LIG    1       26.109 -19.309   3.637  0.00  0.00    +0.166 C 
BRANCH  14  15
ATOM     15  O   LIG    1       26.489 -20.369   4.525  0.00  0.00    -0.387 OA
ATOM     16  H   LIG    1       25.825 -20.354   5.239  0.00  0.00    +0.210 HD
ENDBRANCH  14  15
BRANCH  14  17
ATOM     17  C   LIG    1       24.574 -19.205   3.594  0.00  0.00    +0.116 C 
BRANCH  17  18
ATOM     18  N   LIG    1       23.858 -20.422   4.013  0.00  0.00    -0.309 NA
ATOM     19  H   LIG    1       23.475 -20.881   3.186  0.00  0.00    +0.122 HD
BRANCH  18  21
ATOM     20  C   LIG    1       22.288 -18.751   4.859  0.00  0.00    +0.027 C 
ATOM     21  C   LIG    1       22.782 -20.206   4.998  0.00  0.00    +0.011 C 
ATOM     22  C   LIG    1       21.593 -21.143   4.731  0.00  0.00    +0.027 C 
ATOM     23  C   LIG    1       23.302 -20.396   6.430  0.00  0.00    +0.027 C 
ENDBRANCH  18  21
ENDBRANCH  17  18
ENDBRANCH  14  17
ENDBRANCH  13  14
ENDBRANCH   1  13
TORSDOF 7
ENDMDL
MODEL 5
REMARK VINA RESULT:      -3.7      1.509      2.106
REMARK  Name = *****
REMARK                            x       y       z     vdW  Elec       q    Type
REMARK                         _______ _______ _______ _____ _____    ______ ____
ROOT
ATOM      1  O   LIG    1       25.489 -16.901   3.564  0.00  0.00    -0.489 OA
ENDROOT
BRANCH   1   2
ATOM      2  C   LIG    1       25.291 -18.196   3.965  0.00  0.00    +0.124 A 
ATOM      3  C   LIG    1       23.958 -18.623   4.130  0.00  0.00    +0.005 A 
ATOM      4  C   LIG    1       22.805 -17.671   3.919  0.00  0.00    +0.040 C 
ATOM      5  C   LIG    1       21.496 -18.403   3.634  0.00  0.00    +0.013 C 
ATOM      6  C   LIG    1       21.207 -19.430   4.714  0.00  0.00    +0.080 C 
ATOM      7  C   LIG    1       22.337 -20.426   4.830  0.00  0.00    +0.164 C 
ATOM      8  O   LIG    1       22.143 -21.571   5.208  0.00  0.00    -0.292 OA
ATOM      9  C   LIG    1       23.720 -19.943   4.548  0.00  0.00    +0.024 A 
ATOM     10  C   LIG    1       24.780 -20.839   4.728  0.00  0.00    +0.012 A 
ATOM     11  C   LIG    1       26.089 -20.419   4.511  0.00  0.00    +0.004 A 
ATOM     12  C   LIG    1       26.342 -19.102   4.138  0.00  0.00    +0.046 A 
ENDBRANCH   1   2
BRANCH   1  13
ATOM     13  C   LIG    1       26.835 -16.530   3.231  0.00  0.00    +0.261 C 
BRANCH  13  14
ATOM     14  C   LIG    1       27.039 -15.033   3.494  0.00  0.00    +0.166 C 
BRANCH  14  15
ATOM     15  O   LIG    1       27.136 -14.323   2.252  0.00  0.00    -0.387 OA
ATOM     16  H   LIG    1       27.687 -13.542   2.448  0.00  0.00    +0.210 HD
ENDBRANCH  14  15
BRANCH  14  17
ATOM     17  C   LIG    1       25.951 -14.384   4.369  0.00  0.00    +0.116 C 
BRANCH  17  18
ATOM     18  N   LIG    1       25.678 -12.967   4.070  0.00  0.00    -0.309 NA
ATOM     19  H   LIG    1       25.861 -12.412   4.906  0.00  0.00    +0.122 HD
BRANCH  18  21
ATOM     20  C   LIG    1       23.661 -11.672   4.542  0.00  0.00    +0.027 C 
ATOM     21  C   LIG    1       24.317 -12.683   3.579  0.00  0.00    +0.011 C 
ATOM     22  C   LIG    1       24.356 -12.052   2.177  0.00  0.00    +0.027 C 
ATOM     23  C   LIG    1       23.459 -13.956   3.571  0.00  0.00    +0.027 C 
ENDBRANCH  18  21
ENDBRANCH  17  18
ENDBRANCH  14  17
ENDBRANCH  13  14
ENDBRANCH   1  13
TORSDOF 7
ENDMDL
MODEL 6
REMARK VINA RESULT:      -3.2      1.590      3.195
REMARK  Name = *****
REMARK                            x       y       z     vdW  Elec       q    Type
REMARK                         _______ _______ _______ _____ _____    ______ ____
ROOT
ATOM      1  O   LIG    1       25.229 -17.672   2.911  0.00  0.00    -0.489 OA
ENDROOT
BRANCH   1   2
ATOM      2  C   LIG    1       24.265 -18.242   3.699  0.00  0.00    +0.124 A 
ATOM      3  C   LIG    1       24.676 -19.253   4.591  0.00  0.00    +0.005 A 
ATOM      4  C   LIG    1       26.113 -19.713   4.635  0.00  0.00    +0.040 C 
ATOM      5  C   LIG    1       26.463 -20.394   5.957  0.00  0.00    +0.013 C 
ATOM      6  C   LIG    1       25.487 -21.517   6.258  0.00  0.00    +0.080 C 
ATOM      7  C   LIG    1       24.067 -21.003   6.304  0.00  0.00    +0.164 C 
ATOM      8  O   LIG    1       23.216 -21.539   6.998  0.00  0.00    -0.292 OA
ATOM      9  C   LIG    1       23.710 -19.866   5.408  0.00  0.00    +0.024 A 
ATOM     10  C   LIG    1       22.380 -19.433   5.389  0.00  0.00    +0.012 A 
ATOM     11  C   LIG    1       21.996 -18.400   4.541  0.00  0.00    +0.004 A 
ATOM     12  C   LIG    1       22.934 -17.813   3.695  0.00  0.00    +0.046 A 
ENDBRANCH   1   2
BRANCH   1  13
ATOM     13  C   LIG    1       26.493 -17.404   3.536  0.00  0.00    +0.261 C 
BRANCH  13  14
ATOM     14  C   LIG    1       26.675 -15.890   3.707  0.00  0.00    +0.166 C 
BRANCH  14  15
ATOM     15  O   LIG    1       27.989 -15.606   4.207  0.00  0.00    -0.387 OA
ATOM     16  H   LIG    1       28.592 -16.136   3.653  0.00  0.00    +0.210 HD
ENDBRANCH  14  15
BRANCH  14  17
ATOM     17  C   LIG    1       26.425 -15.068   2.430  0.00  0.00    +0.116 C 
BRANCH  17  18
ATOM     18  N   LIG    1       25.182 -14.279   2.434  0.00  0.00    -0.309 NA
ATOM     19  H   LIG    1       25.194 -13.639   1.639  0.00  0.00    +0.122 HD
BRANCH  18  21
ATOM     20  C   LIG    1       24.030 -12.315   3.321  0.00  0.00    +0.027 C 
ATOM     21  C   LIG    1       24.925 -13.522   3.672  0.00  0.00    +0.011 C 
ATOM     22  C   LIG    1       24.180 -14.385   4.704  0.00  0.00    +0.027 C 
ATOM     23  C   LIG    1       26.234 -12.984   4.269  0.00  0.00    +0.027 C 
ENDBRANCH  18  21
ENDBRANCH  17  18
ENDBRANCH  14  17
ENDBRANCH  13  14
ENDBRANCH   1  13
TORSDOF 7
ENDMDL
MODEL 7
REMARK VINA RESULT:      -3.1      2.374      6.874
REMARK  Name = *****
REMARK                            x       y       z     vdW  Elec       q    Type
REMARK                         _______ _______ _______ _____ _____    ______ ____
ROOT
ATOM      1  O   LIG    1       25.539 -18.424   3.519  0.00  0.00    -0.489 OA
ENDROOT
BRANCH   1   2
ATOM      2  C   LIG    1       24.695 -17.389   3.821  0.00  0.00    +0.124 A 
ATOM      3  C   LIG    1       25.213 -16.082   3.712  0.00  0.00    +0.005 A 
ATOM      4  C   LIG    1       26.653 -15.846   3.326  0.00  0.00    +0.040 C 
ATOM      5  C   LIG    1       26.879 -14.443   2.767  0.00  0.00    +0.013 C 
ATOM      6  C   LIG    1       26.360 -13.390   3.729  0.00  0.00    +0.080 C 
ATOM      7  C   LIG    1       24.891 -13.597   4.017  0.00  0.00    +0.164 C 
ATOM      8  O   LIG    1       24.158 -12.663   4.304  0.00  0.00    -0.292 OA
ATOM      9  C   LIG    1       24.375 -14.997   4.023  0.00  0.00    +0.024 A 
ATOM     10  C   LIG    1       23.034 -15.204   4.363  0.00  0.00    +0.012 A 
ATOM     11  C   LIG    1       22.521 -16.496   4.416  0.00  0.00    +0.004 A 
ATOM     12  C   LIG    1       23.350 -17.583   4.153  0.00  0.00    +0.046 A 
ENDBRANCH   1   2
BRANCH   1  13
ATOM     13  C   LIG    1       25.019 -19.750   3.694  0.00  0.00    +0.261 C 
BRANCH  13  14
ATOM     14  C   LIG    1       24.759 -20.011   5.183  0.00  0.00    +0.166 C 
BRANCH  14  15
ATOM     15  O   LIG    1       23.476 -20.626   5.358  0.00  0.00    -0.387 OA
ATOM     16  H   LIG    1       23.655 -21.457   5.837  0.00  0.00    +0.210 HD
ENDBRANCH  14  15
BRANCH  14  17
ATOM     17  C   LIG    1       25.834 -20.865   5.879  0.00  0.00    +0.116 C 
BRANCH  17  18
ATOM     18  N   LIG    1       26.738 -20.118   6.771  0.00  0.00    -0.309 NA
ATOM     19  H   LIG    1       26.468 -19.133   6.765  0.00  0.00    +0.122 HD
BRANCH  18  21
ATOM     20  C   LIG    1       28.903 -19.023   7.062  0.00  0.00    +0.027 C 
ATOM     21  C   LIG    1       28.171 -20.237   6.450  0.00  0.00    +0.011 C 
ATOM     22  C   LIG    1       28.770 -21.514   7.062  0.00  0.00    +0.027 C 
ATOM     23  C   LIG    1       28.399 -20.212   4.932  0.00  0.00    +0.027 C 
ENDBRANCH  18  21
ENDBRANCH  17  18
ENDBRANCH  14  17
ENDBRANCH  13  14
ENDBRANCH   1  13
TORSDOF 7
ENDMDL
MODEL 8
REMARK VINA RESULT:      -2.9      2.093      3.325
REMARK  Name = *****
REMARK                            x       y       z     vdW  Elec       q    Type
REMARK                         _______ _______ _______ _____ _____    ______ ____
ROOT
ATOM      1  O   LIG    1       23.859 -15.211   4.024  0.00  0.00    -0.489 OA
ENDROOT
BRANCH   1   2
ATOM      2  C   LIG    1       24.433 -16.441   3.845  0.00  0.00    +0.124 A 
ATOM      3  C   LIG    1       23.622 -17.571   4.071  0.00  0.00    +0.005 A 
ATOM      4  C   LIG    1       22.194 -17.421   4.539  0.00  0.00    +0.040 C 
ATOM      5  C   LIG    1       21.352 -18.658   4.232  0.00  0.00    +0.013 C 
ATOM      6  C   LIG    1       22.013 -19.909   4.784  0.00  0.00    +0.080 C 
ATOM      7  C   LIG    1       23.403 -20.081   4.218  0.00  0.00    +0.164 C 
ATOM      8  O   LIG    1       23.906 -21.186   4.084  0.00  0.00    -0.292 OA
ATOM      9  C   LIG    1       24.183 -18.849   3.904  0.00  0.00    +0.024 A 
ATOM     10  C   LIG    1       25.499 -18.998   3.452  0.00  0.00    +0.012 A 
ATOM     11  C   LIG    1       26.273 -17.874   3.182  0.00  0.00    +0.004 A 
ATOM     12  C   LIG    1       25.744 -16.602   3.385  0.00  0.00    +0.046 A 
ENDBRANCH   1   2
BRANCH   1  13
ATOM     13  C   LIG    1       23.904 -14.311   2.907  0.00  0.00    +0.261 C 
BRANCH  13  14
ATOM     14  C   LIG    1       24.120 -12.877   3.407  0.00  0.00    +0.166 C 
BRANCH  14  15
ATOM     15  O   LIG    1       23.714 -12.767   4.778  0.00  0.00    -0.387 OA
ATOM     16  H   LIG    1       23.452 -11.834   4.892  0.00  0.00    +0.210 HD
ENDBRANCH  14  15
BRANCH  14  17
ATOM     17  C   LIG    1       25.562 -12.358   3.259  0.00  0.00    +0.116 C 
BRANCH  17  18
ATOM     18  N   LIG    1       26.580 -13.404   3.059  0.00  0.00    -0.309 NA
ATOM     19  H   LIG    1       26.110 -14.294   2.888  0.00  0.00    +0.122 HD
BRANCH  18  21
ATOM     20  C   LIG    1       28.048 -15.017   4.159  0.00  0.00    +0.027 C 
ATOM     21  C   LIG    1       27.540 -13.561   4.167  0.00  0.00    +0.011 C 
ATOM     22  C   LIG    1       28.751 -12.631   3.984  0.00  0.00    +0.027 C 
ATOM     23  C   LIG    1       26.865 -13.301   5.521  0.00  0.00    +0.027 C 
ENDBRANCH  18  21
ENDBRANCH  17  18
ENDBRANCH  14  17
ENDBRANCH  13  14
ENDBRANCH   1  13
TORSDOF 7
ENDMDL
MODEL 9
REMARK VINA RESULT:      -2.5      3.046      7.015
REMARK  Name = *****
REMARK                            x       y       z     vdW  Elec       q    Type
REMARK                         _______ _______ _______ _____ _____    ______ ____
ROOT
ATOM      1  O   LIG    1       23.046 -15.262   3.798  0.00  0.00    -0.489 OA
ENDROOT
BRANCH   1   2
ATOM      2  C   LIG    1       23.794 -14.226   4.290  0.00  0.00    +0.124 A 
ATOM      3  C   LIG    1       25.196 -14.335   4.183  0.00  0.00    +0.005 A 
ATOM      4  C   LIG    1       25.836 -15.568   3.593  0.00  0.00    +0.040 C 
ATOM      5  C   LIG    1       27.255 -15.300   3.093  0.00  0.00    +0.013 C 
ATOM      6  C   LIG    1       28.102 -14.676   4.187  0.00  0.00    +0.080 C 
ATOM      7  C   LIG    1       27.482 -13.392   4.685  0.00  0.00    +0.164 C 
ATOM      8  O   LIG    1       28.166 -12.486   5.139  0.00  0.00    -0.292 OA
ATOM      9  C   LIG    1       25.994 -13.293   4.686  0.00  0.00    +0.024 A 
ATOM     10  C   LIG    1       25.409 -12.137   5.216  0.00  0.00    +0.012 A 
ATOM     11  C   LIG    1       24.025 -12.020   5.269  0.00  0.00    +0.004 A 
ATOM     12  C   LIG    1       23.222 -13.062   4.815  0.00  0.00    +0.046 A 
ENDBRANCH   1   2
BRANCH   1  13
ATOM     13  C   LIG    1       22.702 -16.303   4.725  0.00  0.00    +0.261 C 
BRANCH  13  14
ATOM     14  C   LIG    1       22.684 -17.655   4.000  0.00  0.00    +0.166 C 
BRANCH  14  15
ATOM     15  O   LIG    1       24.023 -18.068   3.696  0.00  0.00    -0.387 OA
ATOM     16  H   LIG    1       23.930 -18.724   2.979  0.00  0.00    +0.210 HD
ENDBRANCH  14  15
BRANCH  14  17
ATOM     17  C   LIG    1       21.963 -18.780   4.763  0.00  0.00    +0.116 C 
BRANCH  17  18
ATOM     18  N   LIG    1       22.736 -19.374   5.868  0.00  0.00    -0.309 NA
ATOM     19  H   LIG    1       23.591 -18.832   6.002  0.00  0.00    +0.122 HD
BRANCH  18  21
ATOM     20  C   LIG    1       21.932 -21.477   4.919  0.00  0.00    +0.027 C 
ATOM     21  C   LIG    1       23.077 -20.797   5.699  0.00  0.00    +0.011 C 
ATOM     22  C   LIG    1       24.372 -20.962   4.887  0.00  0.00    +0.027 C 
ATOM     23  C   LIG    1       23.205 -21.498   7.059  0.00  0.00    +0.027 C 
ENDBRANCH  18  21
ENDBRANCH  17  18
ENDBRANCH  14  17
ENDBRANCH  13  14
ENDBRANCH   1  13
TORSDOF 7
ENDMDL
