MODEL 1
REMARK VINA RESULT:      -2.5      0.000      0.000
REMARK  Name = *****
REMARK                            x       y       z     vdW  Elec       q    Type
REMARK                         _______ _______ _______ _____ _____    ______ ____
ROOT
ATOM      1  C   LIG    1       25.363 -18.831   3.728  0.00  0.00    +0.223 A 
ATOM      2  N   LIG    1       25.511 -17.578   3.310  0.00  0.00    -0.181 NA
ATOM      3  C   LIG    1       26.621 -16.944   3.655  0.00  0.00    +0.223 A 
ATOM      4  N   LIG    1       27.581 -17.523   4.358  0.00  0.00    -0.181 NA
ATOM      5  C   LIG    1       27.405 -18.792   4.712  0.00  0.00    +0.223 A 
ATOM      6  N   LIG    1       26.298 -19.470   4.424  0.00  0.00    -0.181 NA
ENDROOT
BRANCH   1   8
ATOM      7  C   LIG    1       24.286 -20.945   3.390  0.00  0.00    +0.132 C 
ATOM      8  N   LIG    1       24.171 -19.496   3.406  0.00  0.00    -0.306 N 
ATOM      9  C   LIG    1       22.995 -18.946   4.064  0.00  0.00    +0.132 C 
ENDBRANCH   1   8
BRANCH   3  10
ATOM     10  N   LIG    1       26.790 -15.613   3.250  0.00  0.00    -0.306 N 
ATOM     11  C   LIG    1       25.548 -14.901   3.002  0.00  0.00    +0.132 C 
ATOM     12  C   LIG    1       27.814 -14.899   4.002  0.00  0.00    +0.132 C 
ENDBRANCH   3  10
BRANCH   5  13
ATOM     13  N   LIG    1       28.418 -19.416   5.454  0.00  0.00    -0.306 N 
ATOM     14  C   LIG    1       27.918 -20.363   6.441  0.00  0.00    +0.132 C 
ATOM     15  C   LIG    1       29.474 -18.519   5.897  0.00  0.00    +0.132 C 
ENDBRANCH   5  13
TORSDOF 3
ENDMDL
MODEL 2
REMARK VINA RESULT:      -2.5      0.058      3.750
REMARK  Name = *****
REMARK                            x       y       z     vdW  Elec       q    Type
REMARK                         _______ _______ _______ _____ _____    ______ ____
ROOT
ATOM      1  C   LIG    1       25.361 -18.772   3.724  0.00  0.00    +0.223 A 
ATOM      2  N   LIG    1       26.293 -19.399   4.435  0.00  0.00    -0.181 NA
ATOM      3  C   LIG    1       27.410 -18.738   4.699  0.00  0.00    +0.223 A 
ATOM      4  N   LIG    1       27.603 -17.486   4.316  0.00  0.00    -0.181 NA
ATOM      5  C   LIG    1       26.621 -16.888   3.649  0.00  0.00    +0.223 A 
ATOM      6  N   LIG    1       25.492 -17.511   3.324  0.00  0.00    -0.181 NA
ENDROOT
BRANCH   1   8
ATOM      7  C   LIG    1       24.359 -20.923   3.388  0.00  0.00    +0.132 C 
ATOM      8  N   LIG    1       24.194 -19.478   3.400  0.00  0.00    -0.306 N 
ATOM      9  C   LIG    1       22.998 -18.967   4.054  0.00  0.00    +0.132 C 
ENDBRANCH   1   8
BRANCH   3  10
ATOM     10  N   LIG    1       28.420 -19.385   5.423  0.00  0.00    -0.306 N 
ATOM     11  C   LIG    1       29.475 -18.504   5.895  0.00  0.00    +0.132 C 
ATOM     12  C   LIG    1       27.921 -20.372   6.371  0.00  0.00    +0.132 C 
ENDBRANCH   3  10
BRANCH   5  13
ATOM     13  N   LIG    1       26.814 -15.561   3.241  0.00  0.00    -0.306 N 
ATOM     14  C   LIG    1       27.850 -14.865   3.991  0.00  0.00    +0.132 C 
ATOM     15  C   LIG    1       25.583 -14.823   3.002  0.00  0.00    +0.132 C 
ENDBRANCH   5  13
TORSDOF 3
ENDMDL
MODEL 3
REMARK VINA RESULT:      -2.5      0.203      4.606
REMARK  Name = *****
REMARK                            x       y       z     vdW  Elec       q    Type
REMARK                         _______ _______ _______ _____ _____    ______ ____
ROOT
ATOM      1  C   LIG    1       27.389 -18.954   4.809  0.00  0.00    +0.223 A 
ATOM      2  N   LIG    1       26.284 -19.623   4.497  0.00  0.00    -0.181 NA
ATOM      3  C   LIG    1       25.345 -18.977   3.824  0.00  0.00    +0.223 A 
ATOM      4  N   LIG    1       25.489 -17.721   3.430  0.00  0.00    -0.181 NA
ATOM      5  C   LIG    1       26.633 -17.111   3.725  0.00  0.00    +0.223 A 
ATOM      6  N   LIG    1       27.597 -17.697   4.429  0.00  0.00    -0.181 NA
ENDROOT
BRANCH   1   8
ATOM      7  C   LIG    1       29.475 -18.766   5.974  0.00  0.00    +0.132 C 
ATOM      8  N   LIG    1       28.370 -19.616   5.561  0.00  0.00    -0.306 N 
ATOM      9  C   LIG    1       27.829 -20.514   6.571  0.00  0.00    +0.132 C 
ENDBRANCH   1   8
BRANCH   3  10
ATOM     10  N   LIG    1       24.158 -19.651   3.506  0.00  0.00    -0.306 N 
ATOM     11  C   LIG    1       24.221 -21.091   3.691  0.00  0.00    +0.132 C 
ATOM     12  C   LIG    1       22.958 -18.981   3.990  0.00  0.00    +0.132 C 
ENDBRANCH   3  10
BRANCH   5  13
ATOM     13  N   LIG    1       26.797 -15.782   3.310  0.00  0.00    -0.306 N 
ATOM     14  C   LIG    1       27.810 -15.057   4.064  0.00  0.00    +0.132 C 
ATOM     15  C   LIG    1       25.551 -15.076   3.057  0.00  0.00    +0.132 C 
ENDBRANCH   5  13
TORSDOF 3
ENDMDL
MODEL 4
REMARK VINA RESULT:      -2.4      0.073      3.838
REMARK  Name = *****
REMARK                            x       y       z     vdW  Elec       q    Type
REMARK                         _______ _______ _______ _____ _____    ______ ____
ROOT
ATOM      1  C   LIG    1       26.663 -16.921   3.703  0.00  0.00    +0.223 A 
ATOM      2  N   LIG    1       25.523 -17.523   3.382  0.00  0.00    -0.181 NA
ATOM      3  C   LIG    1       25.376 -18.789   3.738  0.00  0.00    +0.223 A 
ATOM      4  N   LIG    1       26.299 -19.447   4.423  0.00  0.00    -0.181 NA
ATOM      5  C   LIG    1       27.402 -18.786   4.761  0.00  0.00    +0.223 A 
ATOM      6  N   LIG    1       27.620 -17.524   4.401  0.00  0.00    -0.181 NA
ENDROOT
BRANCH   1   8
ATOM      7  C   LIG    1       25.609 -14.883   3.012  0.00  0.00    +0.132 C 
ATOM      8  N   LIG    1       26.846 -15.594   3.291  0.00  0.00    -0.306 N 
ATOM      9  C   LIG    1       27.849 -14.872   4.061  0.00  0.00    +0.132 C 
ENDBRANCH   1   8
BRANCH   3  10
ATOM     10  N   LIG    1       24.194 -19.456   3.388  0.00  0.00    -0.306 N 
ATOM     11  C   LIG    1       24.324 -20.901   3.313  0.00  0.00    +0.132 C 
ATOM     12  C   LIG    1       23.010 -18.940   4.062  0.00  0.00    +0.132 C 
ENDBRANCH   3  10
BRANCH   5  13
ATOM     13  N   LIG    1       28.385 -19.472   5.488  0.00  0.00    -0.306 N 
ATOM     14  C   LIG    1       27.843 -20.426   6.444  0.00  0.00    +0.132 C 
ATOM     15  C   LIG    1       29.475 -18.632   5.960  0.00  0.00    +0.132 C 
ENDBRANCH   5  13
TORSDOF 3
ENDMDL
MODEL 5
REMARK VINA RESULT:      -1.4      2.318      4.783
REMARK  Name = *****
REMARK                            x       y       z     vdW  Elec       q    Type
REMARK                         _______ _______ _______ _____ _____    ______ ____
ROOT
ATOM      1  C   LIG    1       25.347 -13.832   3.470  0.00  0.00    +0.223 A 
ATOM      2  N   LIG    1       26.441 -13.160   3.815  0.00  0.00    -0.181 NA
ATOM      3  C   LIG    1       27.537 -13.859   4.063  0.00  0.00    +0.223 A 
ATOM      4  N   LIG    1       27.582 -15.177   3.943  0.00  0.00    -0.181 NA
ATOM      5  C   LIG    1       26.474 -15.797   3.550  0.00  0.00    +0.223 A 
ATOM      6  N   LIG    1       25.334 -15.152   3.320  0.00  0.00    -0.181 NA
ENDROOT
BRANCH   1   8
ATOM      7  C   LIG    1       23.836 -12.175   4.318  0.00  0.00    +0.132 C 
ATOM      8  N   LIG    1       24.169 -13.103   3.249  0.00  0.00    -0.306 N 
ATOM      9  C   LIG    1       24.034 -12.602   1.889  0.00  0.00    +0.132 C 
ENDBRANCH   1   8
BRANCH   3  10
ATOM     10  N   LIG    1       28.697 -13.178   4.455  0.00  0.00    -0.306 N 
ATOM     11  C   LIG    1       29.475 -12.640   3.352  0.00  0.00    +0.132 C 
ATOM     12  C   LIG    1       28.503 -12.306   5.605  0.00  0.00    +0.132 C 
ENDBRANCH   3  10
BRANCH   5  13
ATOM     13  N   LIG    1       26.511 -17.193   3.418  0.00  0.00    -0.306 N 
ATOM     14  C   LIG    1       25.193 -17.811   3.391  0.00  0.00    +0.132 C 
ATOM     15  C   LIG    1       27.514 -17.846   4.244  0.00  0.00    +0.132 C 
ENDBRANCH   5  13
TORSDOF 3
ENDMDL
MODEL 6
REMARK VINA RESULT:      -1.3      2.787      5.675
REMARK  Name = *****
REMARK                            x       y       z     vdW  Elec       q    Type
REMARK                         _______ _______ _______ _____ _____    ______ ____
ROOT
ATOM      1  C   LIG    1       27.027 -13.751   4.131  0.00  0.00    +0.223 A 
ATOM      2  N   LIG    1       26.086 -12.813   4.084  0.00  0.00    -0.181 NA
ATOM      3  C   LIG    1       24.867 -13.186   3.729  0.00  0.00    +0.223 A 
ATOM      4  N   LIG    1       24.558 -14.445   3.461  0.00  0.00    -0.181 NA
ATOM      5  C   LIG    1       25.524 -15.351   3.568  0.00  0.00    +0.223 A 
ATOM      6  N   LIG    1       26.775 -15.032   3.886  0.00  0.00    -0.181 NA
ENDROOT
BRANCH   1   8
ATOM      7  C   LIG    1       29.157 -13.012   3.316  0.00  0.00    +0.132 C 
ATOM      8  N   LIG    1       28.332 -13.358   4.462  0.00  0.00    -0.306 N 
ATOM      9  C   LIG    1       28.403 -12.462   5.607  0.00  0.00    +0.132 C 
ENDBRANCH   1   8
BRANCH   3  10
ATOM     10  N   LIG    1       23.862 -12.213   3.645  0.00  0.00    -0.306 N 
ATOM     11  C   LIG    1       23.655 -11.461   4.872  0.00  0.00    +0.132 C 
ATOM     12  C   LIG    1       23.891 -11.447   2.406  0.00  0.00    +0.132 C 
ENDBRANCH   3  10
BRANCH   5  13
ATOM     13  N   LIG    1       25.207 -16.689   3.289  0.00  0.00    -0.306 N 
ATOM     14  C   LIG    1       23.984 -17.145   3.935  0.00  0.00    +0.132 C 
ATOM     15  C   LIG    1       26.342 -17.596   3.340  0.00  0.00    +0.132 C 
ENDBRANCH   5  13
TORSDOF 3
ENDMDL
MODEL 7
REMARK VINA RESULT:      -1.2      2.373      5.516
REMARK  Name = *****
REMARK                            x       y       z     vdW  Elec       q    Type
REMARK                         _______ _______ _______ _____ _____    ______ ____
ROOT
ATOM      1  C   LIG    1       25.335 -13.726   3.445  0.00  0.00    +0.223 A 
ATOM      2  N   LIG    1       25.309 -15.048   3.310  0.00  0.00    -0.181 NA
ATOM      3  C   LIG    1       26.440 -15.706   3.511  0.00  0.00    +0.223 A 
ATOM      4  N   LIG    1       27.562 -15.101   3.870  0.00  0.00    -0.181 NA
ATOM      5  C   LIG    1       27.523 -13.783   4.037  0.00  0.00    +0.223 A 
ATOM      6  N   LIG    1       26.427 -13.064   3.817  0.00  0.00    -0.181 NA
ENDROOT
BRANCH   1   8
ATOM      7  C   LIG    1       23.808 -12.050   4.222  0.00  0.00    +0.132 C 
ATOM      8  N   LIG    1       24.154 -13.015   3.191  0.00  0.00    -0.306 N 
ATOM      9  C   LIG    1       24.024 -12.565   1.812  0.00  0.00    +0.132 C 
ENDBRANCH   1   8
BRANCH   3  10
ATOM     10  N   LIG    1       26.447 -17.098   3.349  0.00  0.00    -0.306 N 
ATOM     11  C   LIG    1       27.470 -17.784   4.121  0.00  0.00    +0.132 C 
ATOM     12  C   LIG    1       25.118 -17.694   3.350  0.00  0.00    +0.132 C 
ENDBRANCH   3  10
BRANCH   5  13
ATOM     13  N   LIG    1       28.705 -13.133   4.419  0.00  0.00    -0.306 N 
ATOM     14  C   LIG    1       28.545 -12.269   5.581  0.00  0.00    +0.132 C 
ATOM     15  C   LIG    1       29.474 -12.589   3.311  0.00  0.00    +0.132 C 
ENDBRANCH   5  13
TORSDOF 3
ENDMDL
MODEL 8
REMARK VINA RESULT:      -1.2      2.282      5.197
REMARK  Name = *****
REMARK                            x       y       z     vdW  Elec       q    Type
REMARK                         _______ _______ _______ _____ _____    ______ ____
ROOT
ATOM      1  C   LIG    1       26.538 -15.872   3.620  0.00  0.00    +0.223 A 
ATOM      2  N   LIG    1       27.632 -15.216   3.994  0.00  0.00    -0.181 NA
ATOM      3  C   LIG    1       27.542 -13.902   4.128  0.00  0.00    +0.223 A 
ATOM      4  N   LIG    1       26.410 -13.244   3.938  0.00  0.00    -0.181 NA
ATOM      5  C   LIG    1       25.334 -13.952   3.612  0.00  0.00    +0.223 A 
ATOM      6  N   LIG    1       25.369 -15.268   3.429  0.00  0.00    -0.181 NA
ENDROOT
BRANCH   1   8
ATOM      7  C   LIG    1       27.591 -17.912   4.310  0.00  0.00    +0.132 C 
ATOM      8  N   LIG    1       26.634 -17.259   3.432  0.00  0.00    -0.306 N 
ATOM      9  C   LIG    1       25.347 -17.920   3.269  0.00  0.00    +0.132 C 
ENDBRANCH   1   8
BRANCH   3  10
ATOM     10  N   LIG    1       28.687 -13.183   4.495  0.00  0.00    -0.306 N 
ATOM     11  C   LIG    1       29.460 -12.677   3.373  0.00  0.00    +0.132 C 
ATOM     12  C   LIG    1       28.471 -12.266   5.606  0.00  0.00    +0.132 C 
ENDBRANCH   3  10
BRANCH   5  13
ATOM     13  N   LIG    1       24.128 -13.264   3.412  0.00  0.00    -0.306 N 
ATOM     14  C   LIG    1       23.890 -12.896   2.023  0.00  0.00    +0.132 C 
ATOM     15  C   LIG    1       23.850 -12.241   4.408  0.00  0.00    +0.132 C 
ENDBRANCH   5  13
TORSDOF 3
ENDMDL
MODEL 9
REMARK VINA RESULT:      -1.2      2.459      6.576
REMARK  Name = *****
REMARK                            x       y       z     vdW  Elec       q    Type
REMARK                         _______ _______ _______ _____ _____    ______ ____
ROOT
ATOM      1  C   LIG    1       27.346 -13.782   4.001  0.00  0.00    +0.223 A 
ATOM      2  N   LIG    1       27.244 -15.096   3.826  0.00  0.00    -0.181 NA
ATOM      3  C   LIG    1       26.071 -15.575   3.445  0.00  0.00    +0.223 A 
ATOM      4  N   LIG    1       25.029 -14.795   3.202  0.00  0.00    -0.181 NA
ATOM      5  C   LIG    1       25.196 -13.484   3.345  0.00  0.00    +0.223 A 
ATOM      6  N   LIG    1       26.340 -12.947   3.759  0.00  0.00    -0.181 NA
ENDROOT
BRANCH   1   8
ATOM      7  C   LIG    1       29.475 -12.874   3.380  0.00  0.00    +0.132 C 
ATOM      8  N   LIG    1       28.571 -13.270   4.448  0.00  0.00    -0.306 N 
ATOM      9  C   LIG    1       28.450 -12.349   5.569  0.00  0.00    +0.132 C 
ENDBRANCH   1   8
BRANCH   3  10
ATOM     10  N   LIG    1       25.929 -16.959   3.280  0.00  0.00    -0.306 N 
ATOM     11  C   LIG    1       27.049 -17.738   3.780  0.00  0.00    +0.132 C 
ATOM     12  C   LIG    1       24.596 -17.453   3.598  0.00  0.00    +0.132 C 
ENDBRANCH   3  10
BRANCH   5  13
ATOM     13  N   LIG    1       24.099 -12.648   3.088  0.00  0.00    -0.306 N 
ATOM     14  C   LIG    1       24.185 -11.951   1.812  0.00  0.00    +0.132 C 
ATOM     15  C   LIG    1       23.670 -11.856   4.230  0.00  0.00    +0.132 C 
ENDBRANCH   5  13
TORSDOF 3
ENDMDL
