MODEL 1
REMARK VINA RESULT:      26.2      0.000      0.000
REMARK  Name = *****
REMARK                            x       y       z     vdW  Elec       q    Type
REMARK                         _______ _______ _______ _____ _____    ______ ____
ROOT
ATOM      1  C   LIG    1       25.758 -18.532   3.869  0.00  0.00    +0.005 A 
ATOM      2  C   LIG    1       24.522 -17.866   3.888  0.00  0.00    -0.033 A 
ATOM      3  C   LIG    1       24.532 -16.468   3.948  0.00  0.00    +0.005 A 
ATOM      4  C   LIG    1       25.735 -15.754   3.988  0.00  0.00    +0.005 A 
ATOM      5  C   LIG    1       26.965 -16.424   3.971  0.00  0.00    -0.033 A 
ATOM      6  C   LIG    1       26.964 -17.821   3.917  0.00  0.00    +0.005 A 
ENDROOT
BRANCH   2   7
ATOM      7  C   LIG    1       23.216 -18.639   3.794  0.00  0.00    +0.119 C 
BRANCH   7   8
ATOM      8  N   LIG    1       23.291 -20.075   3.471  0.00  0.00    -0.297 NA
ATOM      9  C   LIG    1       24.264 -20.406   2.402  0.00  0.00    +0.100 C 
ATOM     10  C   LIG    1       25.747 -20.039   2.685  0.00  0.00    +0.096 C 
ATOM     11  N   LIG    1       26.257 -20.671   3.904  0.00  0.00    -0.315 NA
ATOM     12  H   LIG    1       25.500 -20.724   4.599  0.00  0.00    +0.122 HD
ATOM     13  C   LIG    1       27.383 -19.940   4.484  0.00  0.00    +0.082 C 
ATOM     14  C   LIG    1       27.705 -20.377   5.926  0.00  0.00    +0.030 C 
ATOM     15  C   LIG    1       26.568 -20.103   6.922  0.00  0.00    +0.082 C 
ATOM     16  N   LIG    1       25.503 -21.073   6.715  0.00  0.00    -0.315 NA
ATOM     17  H   LIG    1       25.715 -21.955   7.175  0.00  0.00    +0.122 HD
ATOM     18  C   LIG    1       24.171 -20.593   7.061  0.00  0.00    +0.096 C 
ATOM     19  C   LIG    1       23.139 -21.570   6.471  0.00  0.00    +0.096 C 
ATOM     20  N   LIG    1       21.785 -21.011   6.533  0.00  0.00    -0.315 NA
ATOM     21  H   LIG    1       21.382 -21.259   7.435  0.00  0.00    +0.122 HD
ATOM     22  C   LIG    1       20.946 -21.544   5.459  0.00  0.00    +0.082 C 
ATOM     23  C   LIG    1       20.862 -20.620   4.237  0.00  0.00    +0.030 C 
ATOM     24  C   LIG    1       21.990 -20.706   3.187  0.00  0.00    +0.086 C 
ENDBRANCH   7   8
ENDBRANCH   2   7
BRANCH   5  25
ATOM     25  C   LIG    1       28.269 -15.646   3.984  0.00  0.00    +0.119 C 
BRANCH  25  26
ATOM     26  N   LIG    1       28.198 -14.313   3.353  0.00  0.00    -0.297 NA
ATOM     27  C   LIG    1       27.509 -14.327   2.037  0.00  0.00    +0.100 C 
ATOM     28  C   LIG    1       26.016 -14.764   1.998  0.00  0.00    +0.096 C 
ATOM     29  N   LIG    1       25.116 -13.617   1.820  0.00  0.00    -0.315 NA
ATOM     30  H   LIG    1       25.378 -12.877   2.468  0.00  0.00    +0.122 HD
ATOM     31  C   LIG    1       23.700 -13.974   1.963  0.00  0.00    +0.082 C 
ATOM     32  C   LIG    1       22.978 -13.015   2.925  0.00  0.00    +0.030 C 
ATOM     33  C   LIG    1       23.391 -13.267   4.379  0.00  0.00    +0.082 C 
ATOM     34  N   LIG    1       23.092 -12.126   5.254  0.00  0.00    -0.315 NA
ATOM     35  H   LIG    1       23.158 -11.252   4.732  0.00  0.00    +0.122 HD
ATOM     36  C   LIG    1       24.043 -12.088   6.382  0.00  0.00    +0.096 C 
ATOM     37  C   LIG    1       25.404 -11.455   5.996  0.00  0.00    +0.096 C 
ATOM     38  N   LIG    1       26.502 -11.995   6.809  0.00  0.00    -0.315 NA
ATOM     39  H   LIG    1       26.441 -11.581   7.741  0.00  0.00    +0.122 HD
ATOM     40  C   LIG    1       27.820 -11.706   6.234  0.00  0.00    +0.082 C 
ATOM     41  C   LIG    1       28.422 -12.893   5.452  0.00  0.00    +0.030 C 
ATOM     42  C   LIG    1       27.570 -13.325   4.252  0.00  0.00    +0.086 C 
ENDBRANCH  25  26
ENDBRANCH   5  25
TORSDOF 4
ENDMDL
