MODEL 1
REMARK VINA RESULT:      -3.6      0.000      0.000
REMARK  Name = *****
REMARK                            x       y       z     vdW  Elec       q    Type
REMARK                         _______ _______ _______ _____ _____    ______ ____
ROOT
ATOM      1  C   LIG    1       26.073 -14.395   3.237  0.00  0.00    -0.024 C 
ATOM      2  C   LIG    1       25.313 -15.547   3.524  0.00  0.00    +0.050 C 
ATOM      3  C   LIG    1       23.978 -15.502   3.932  0.00  0.00    +0.004 C 
ATOM      4  C   LIG    1       23.578 -16.844   4.179  0.00  0.00    -0.014 C 
ATOM      5  C   LIG    1       22.314 -17.391   4.726  0.00  0.00    +0.065 C 
ATOM      6  C   LIG    1       22.245 -18.897   4.420  0.00  0.00    +0.166 C 
ATOM      7  O   LIG    1       23.482 -19.594   4.709  0.00  0.00    -0.366 OA
ATOM      8  C   LIG    1       24.658 -19.185   3.934  0.00  0.00    +0.119 C 
ATOM      9  C   LIG    1       24.629 -17.677   3.856  0.00  0.00    +0.053 C 
ATOM     10  C   LIG    1       23.344 -14.250   4.038  0.00  0.00    +0.010 C 
ATOM     11  C   LIG    1       24.065 -13.090   3.740  0.00  0.00    +0.001 C 
ATOM     12  N   LIG    1       25.679 -16.877   3.488  0.00  0.00    -0.355 NA
ATOM     13  H   LIG    1       26.599 -17.198   3.225  0.00  0.00    +0.166 HD
ATOM     14  C   LIG    1       25.403 -13.163   3.358  0.00  0.00    +0.006 C 
ENDROOT
BRANCH   1  16
ATOM     15  C   LIG    1       28.337 -13.377   3.603  0.00  0.00    +0.009 C 
ATOM     16  C   LIG    1       27.531 -14.430   2.854  0.00  0.00    +0.034 C 
ENDBRANCH   1  16
BRANCH   8  17
ATOM     17  C   LIG    1       24.635 -19.845   2.527  0.00  0.00    +0.038 C 
ATOM     18  C   LIG    1       23.950 -21.210   2.432  0.00  0.00    +0.007 C 
ENDBRANCH   8  17
BRANCH   8  19
ATOM     19  C   LIG    1       25.867 -19.632   4.773  0.00  0.00    +0.161 C 
BRANCH  19  20
ATOM     20  C   LIG    1       25.526 -20.556   5.909  0.00  0.00    +0.308 C 
ATOM     21  O   LIG    1       25.916 -20.371   7.062  0.00  0.00    -0.251 OA
BRANCH  20  22
ATOM     22  O   LIG    1       24.705 -21.571   5.580  0.00  0.00    -0.480 OA
ATOM     23  H   LIG    1       25.158 -22.243   5.019  0.00  0.00    +0.295 HD
ENDBRANCH  20  22
ENDBRANCH  19  20
ENDBRANCH   8  19
TORSDOF 5
ENDMDL
MODEL 2
REMARK VINA RESULT:      -2.8      3.093      6.449
REMARK  Name = *****
REMARK                            x       y       z     vdW  Elec       q    Type
REMARK                         _______ _______ _______ _____ _____    ______ ____
ROOT
ATOM      1  C   LIG    1       23.522 -18.600   3.909  0.00  0.00    -0.024 C 
ATOM      2  C   LIG    1       24.279 -17.427   3.714  0.00  0.00    +0.050 C 
ATOM      3  C   LIG    1       25.662 -17.431   3.520  0.00  0.00    +0.004 C 
ATOM      4  C   LIG    1       26.068 -16.072   3.420  0.00  0.00    -0.014 C 
ATOM      5  C   LIG    1       27.418 -15.472   3.314  0.00  0.00    +0.065 C 
ATOM      6  C   LIG    1       27.284 -14.015   2.839  0.00  0.00    +0.166 C 
ATOM      7  O   LIG    1       26.254 -13.279   3.545  0.00  0.00    -0.366 OA
ATOM      8  C   LIG    1       24.880 -13.770   3.393  0.00  0.00    +0.119 C 
ATOM      9  C   LIG    1       24.942 -15.277   3.482  0.00  0.00    +0.053 C 
ATOM     10  C   LIG    1       26.337 -18.666   3.488  0.00  0.00    +0.010 C 
ATOM     11  C   LIG    1       25.612 -19.848   3.657  0.00  0.00    +0.001 C 
ATOM     12  N   LIG    1       23.872 -16.109   3.686  0.00  0.00    -0.355 NA
ATOM     13  H   LIG    1       22.914 -15.815   3.805  0.00  0.00    +0.166 HD
ATOM     14  C   LIG    1       24.235 -19.812   3.873  0.00  0.00    +0.006 C 
ENDROOT
BRANCH   1  16
ATOM     15  C   LIG    1       21.512 -20.008   4.431  0.00  0.00    +0.009 C 
ATOM     16  C   LIG    1       22.038 -18.602   4.179  0.00  0.00    +0.034 C 
ENDBRANCH   1  16
BRANCH   8  17
ATOM     17  C   LIG    1       24.278 -13.287   2.045  0.00  0.00    +0.038 C 
ATOM     18  C   LIG    1       24.265 -11.774   1.815  0.00  0.00    +0.007 C 
ENDBRANCH   8  17
BRANCH   8  19
ATOM     19  C   LIG    1       24.119 -13.216   4.609  0.00  0.00    +0.161 C 
BRANCH  19  20
ATOM     20  C   LIG    1       24.991 -12.542   5.632  0.00  0.00    +0.308 C 
ATOM     21  O   LIG    1       24.721 -11.447   6.124  0.00  0.00    -0.251 OA
BRANCH  20  22
ATOM     22  O   LIG    1       26.063 -13.261   6.017  0.00  0.00    -0.480 OA
ATOM     23  H   LIG    1       26.897 -12.923   5.614  0.00  0.00    +0.295 HD
ENDBRANCH  20  22
ENDBRANCH  19  20
ENDBRANCH   8  19
TORSDOF 5
ENDMDL
MODEL 3
REMARK VINA RESULT:      -1.8      1.703      3.649
REMARK  Name = *****
REMARK                            x       y       z     vdW  Elec       q    Type
REMARK                         _______ _______ _______ _____ _____    ______ ____
ROOT
ATOM      1  C   LIG    1       24.973 -13.955   3.997  0.00  0.00    -0.024 C 
ATOM      2  C   LIG    1       24.798 -15.351   3.925  0.00  0.00    +0.050 C 
ATOM      3  C   LIG    1       25.825 -16.236   3.589  0.00  0.00    +0.004 C 
ATOM      4  C   LIG    1       25.255 -17.538   3.564  0.00  0.00    -0.014 C 
ATOM      5  C   LIG    1       25.839 -18.842   3.174  0.00  0.00    +0.065 C 
ATOM      6  C   LIG    1       24.940 -19.974   3.703  0.00  0.00    +0.166 C 
ATOM      7  O   LIG    1       23.531 -19.745   3.451  0.00  0.00    -0.366 OA
ATOM      8  C   LIG    1       22.937 -18.567   4.093  0.00  0.00    +0.119 C 
ATOM      9  C   LIG    1       23.934 -17.441   3.949  0.00  0.00    +0.053 C 
ATOM     10  C   LIG    1       27.109 -15.718   3.334  0.00  0.00    +0.010 C 
ATOM     11  C   LIG    1       27.320 -14.339   3.418  0.00  0.00    +0.001 C 
ATOM     12  N   LIG    1       23.665 -16.110   4.137  0.00  0.00    -0.355 NA
ATOM     13  H   LIG    1       22.770 -15.721   4.393  0.00  0.00    +0.166 HD
ATOM     14  C   LIG    1       26.271 -13.477   3.733  0.00  0.00    +0.006 C 
ENDROOT
BRANCH   1  16
ATOM     15  C   LIG    1       23.860 -11.803   3.343  0.00  0.00    +0.009 C 
ATOM     16  C   LIG    1       23.858 -12.987   4.301  0.00  0.00    +0.034 C 
ENDBRANCH   1  16
BRANCH   8  17
ATOM     17  C   LIG    1       22.606 -18.870   5.580  0.00  0.00    +0.038 C 
ATOM     18  C   LIG    1       23.071 -20.227   6.114  0.00  0.00    +0.007 C 
ENDBRANCH   8  17
BRANCH   8  19
ATOM     19  C   LIG    1       21.681 -18.250   3.264  0.00  0.00    +0.161 C 
BRANCH  19  20
ATOM     20  C   LIG    1       20.511 -19.154   3.539  0.00  0.00    +0.308 C 
ATOM     21  O   LIG    1       19.350 -18.845   3.272  0.00  0.00    -0.251 OA
BRANCH  20  22
ATOM     22  O   LIG    1       20.839 -20.358   4.045  0.00  0.00    -0.480 OA
ATOM     23  H   LIG    1       20.948 -20.328   5.024  0.00  0.00    +0.295 HD
ENDBRANCH  20  22
ENDBRANCH  19  20
ENDBRANCH   8  19
TORSDOF 5
ENDMDL
MODEL 4
REMARK VINA RESULT:      -1.0      3.261      6.072
REMARK  Name = *****
REMARK                            x       y       z     vdW  Elec       q    Type
REMARK                         _______ _______ _______ _____ _____    ______ ____
ROOT
ATOM      1  C   LIG    1       24.351 -18.870   3.818  0.00  0.00    -0.024 C 
ATOM      2  C   LIG    1       24.435 -17.469   3.949  0.00  0.00    +0.050 C 
ATOM      3  C   LIG    1       23.317 -16.645   4.100  0.00  0.00    +0.004 C 
ATOM      4  C   LIG    1       23.794 -15.307   4.141  0.00  0.00    -0.014 C 
ATOM      5  C   LIG    1       23.062 -14.020   4.185  0.00  0.00    +0.065 C 
ATOM      6  C   LIG    1       24.031 -12.905   4.615  0.00  0.00    +0.166 C 
ATOM      7  O   LIG    1       25.300 -12.954   3.917  0.00  0.00    -0.366 OA
ATOM      8  C   LIG    1       26.115 -14.155   4.128  0.00  0.00    +0.119 C 
ATOM      9  C   LIG    1       25.173 -15.336   4.089  0.00  0.00    +0.053 C 
ATOM     10  C   LIG    1       22.042 -17.238   4.153  0.00  0.00    +0.010 C 
ATOM     11  C   LIG    1       21.927 -18.627   4.046  0.00  0.00    +0.001 C 
ATOM     12  N   LIG    1       25.543 -16.647   3.946  0.00  0.00    -0.355 NA
ATOM     13  H   LIG    1       26.490 -16.983   3.848  0.00  0.00    +0.166 HD
ATOM     14  C   LIG    1       23.058 -19.423   3.873  0.00  0.00    +0.006 C 
ENDROOT
BRANCH   1  16
ATOM     15  C   LIG    1       26.213 -20.152   4.907  0.00  0.00    +0.009 C 
ATOM     16  C   LIG    1       25.547 -19.761   3.595  0.00  0.00    +0.034 C 
ENDBRANCH   1  16
BRANCH   8  17
ATOM     17  C   LIG    1       26.879 -14.061   5.477  0.00  0.00    +0.038 C 
ATOM     18  C   LIG    1       27.342 -12.663   5.896  0.00  0.00    +0.007 C 
ENDBRANCH   8  17
BRANCH   8  19
ATOM     19  C   LIG    1       27.062 -14.215   2.919  0.00  0.00    +0.161 C 
BRANCH  19  20
ATOM     20  C   LIG    1       28.164 -13.191   2.942  0.00  0.00    +0.308 C 
ATOM     21  O   LIG    1       29.341 -13.480   3.158  0.00  0.00    -0.251 OA
BRANCH  20  22
ATOM     22  O   LIG    1       27.771 -11.938   2.645  0.00  0.00    -0.480 OA
ATOM     23  H   LIG    1       27.219 -11.909   1.829  0.00  0.00    +0.295 HD
ENDBRANCH  20  22
ENDBRANCH  19  20
ENDBRANCH   8  19
TORSDOF 5
ENDMDL
