MODEL 1
REMARK VINA RESULT:      -4.0      0.000      0.000
REMARK  Name = *****
REMARK                            x       y       z     vdW  Elec       q    Type
REMARK                         _______ _______ _______ _____ _____    ______ ____
ROOT
ATOM      1  C   LIG    1       26.287 -14.071   4.241  0.00  0.00    +0.122 C 
ENDROOT
BRANCH   1   3
ATOM      2  O   LIG    1       26.633 -14.279   1.875  0.00  0.00    -0.251 OA
ATOM      3  C   LIG    1       27.081 -13.933   2.964  0.00  0.00    +0.305 C 
BRANCH   3   4
ATOM      4  O   LIG    1       28.275 -13.332   3.050  0.00  0.00    -0.481 OA
ATOM      5  H   LIG    1       28.441 -12.647   2.358  0.00  0.00    +0.295 HD
ENDBRANCH   3   4
ENDBRANCH   1   3
BRANCH   1   6
ATOM      6  C   LIG    1       24.757 -14.119   4.156  0.00  0.00    +0.039 C 
BRANCH   6   7
ATOM      7  C   LIG    1       24.111 -12.827   3.666  0.00  0.00    +0.156 C 
BRANCH   7   8
ATOM      8  O   LIG    1       23.808 -12.948   2.282  0.00  0.00    -0.395 OA
ATOM      9  H   LIG    1       23.295 -12.152   2.032  0.00  0.00    +0.209 HD
ENDBRANCH   7   8
ENDBRANCH   6   7
ENDBRANCH   1   6
TORSDOF 5
ENDMDL
MODEL 2
REMARK VINA RESULT:      -3.9      1.675      2.592
REMARK  Name = *****
REMARK                            x       y       z     vdW  Elec       q    Type
REMARK                         _______ _______ _______ _____ _____    ______ ____
ROOT
ATOM      1  C   LIG    1       27.121 -13.449   5.165  0.00  0.00    +0.122 C 
ENDROOT
BRANCH   1   3
ATOM      2  O   LIG    1       28.935 -13.063   3.643  0.00  0.00    -0.251 OA
ATOM      3  C   LIG    1       28.418 -12.812   4.727  0.00  0.00    +0.305 C 
BRANCH   3   4
ATOM      4  O   LIG    1       28.949 -11.888   5.539  0.00  0.00    -0.481 OA
ATOM      5  H   LIG    1       28.851 -10.958   5.220  0.00  0.00    +0.295 HD
ENDBRANCH   3   4
ENDBRANCH   1   3
BRANCH   1   6
ATOM      6  C   LIG    1       25.990 -13.598   4.141  0.00  0.00    +0.039 C 
BRANCH   6   7
ATOM      7  C   LIG    1       26.147 -14.784   3.195  0.00  0.00    +0.156 C 
BRANCH   7   8
ATOM      8  O   LIG    1       26.685 -14.332   1.959  0.00  0.00    -0.395 OA
ATOM      9  H   LIG    1       27.430 -14.929   1.737  0.00  0.00    +0.209 HD
ENDBRANCH   7   8
ENDBRANCH   6   7
ENDBRANCH   1   6
TORSDOF 5
ENDMDL
MODEL 3
REMARK VINA RESULT:      -3.8      0.881      3.296
REMARK  Name = *****
REMARK                            x       y       z     vdW  Elec       q    Type
REMARK                         _______ _______ _______ _____ _____    ______ ____
ROOT
ATOM      1  C   LIG    1       24.629 -13.894   3.945  0.00  0.00    +0.122 C 
ENDROOT
BRANCH   1   3
ATOM      2  O   LIG    1       23.667 -11.710   3.694  0.00  0.00    -0.251 OA
ATOM      3  C   LIG    1       24.101 -12.722   3.153  0.00  0.00    +0.305 C 
BRANCH   3   4
ATOM      4  O   LIG    1       24.201 -12.793   1.818  0.00  0.00    -0.481 OA
ATOM      5  H   LIG    1       24.979 -12.316   1.440  0.00  0.00    +0.295 HD
ENDBRANCH   3   4
ENDBRANCH   1   3
BRANCH   1   6
ATOM      6  C   LIG    1       26.134 -13.976   4.226  0.00  0.00    +0.039 C 
BRANCH   6   7
ATOM      7  C   LIG    1       26.914 -14.839   3.240  0.00  0.00    +0.156 C 
BRANCH   7   8
ATOM      8  O   LIG    1       26.982 -14.176   1.984  0.00  0.00    -0.395 OA
ATOM      9  H   LIG    1       26.373 -13.410   2.033  0.00  0.00    +0.209 HD
ENDBRANCH   7   8
ENDBRANCH   6   7
ENDBRANCH   1   6
TORSDOF 5
ENDMDL
MODEL 4
REMARK VINA RESULT:      -3.7      6.967      7.887
REMARK  Name = *****
REMARK                            x       y       z     vdW  Elec       q    Type
REMARK                         _______ _______ _______ _____ _____    ______ ____
ROOT
ATOM      1  C   LIG    1       22.643 -19.281   4.616  0.00  0.00    +0.122 C 
ENDROOT
BRANCH   1   3
ATOM      2  O   LIG    1       23.145 -20.506   6.617  0.00  0.00    -0.251 OA
ATOM      3  C   LIG    1       22.630 -20.502   5.504  0.00  0.00    +0.305 C 
BRANCH   3   4
ATOM      4  O   LIG    1       21.954 -21.571   5.061  0.00  0.00    -0.481 OA
ATOM      5  H   LIG    1       22.170 -22.415   5.527  0.00  0.00    +0.295 HD
ENDBRANCH   3   4
ENDBRANCH   1   3
BRANCH   1   6
ATOM      6  C   LIG    1       23.889 -18.999   3.770  0.00  0.00    +0.039 C 
BRANCH   6   7
ATOM      7  C   LIG    1       24.710 -20.237   3.422  0.00  0.00    +0.156 C 
BRANCH   7   8
ATOM      8  O   LIG    1       25.964 -20.173   4.090  0.00  0.00    -0.395 OA
ATOM      9  H   LIG    1       25.785 -19.861   5.002  0.00  0.00    +0.209 HD
ENDBRANCH   7   8
ENDBRANCH   6   7
ENDBRANCH   1   6
TORSDOF 5
ENDMDL
MODEL 5
REMARK VINA RESULT:      -3.7      1.687      3.341
REMARK  Name = *****
REMARK                            x       y       z     vdW  Elec       q    Type
REMARK                         _______ _______ _______ _____ _____    ______ ____
ROOT
ATOM      1  C   LIG    1       26.226 -13.440   4.023  0.00  0.00    +0.122 C 
ENDROOT
BRANCH   1   3
ATOM      2  O   LIG    1       25.026 -12.967   2.000  0.00  0.00    -0.251 OA
ATOM      3  C   LIG    1       25.962 -13.547   2.541  0.00  0.00    +0.305 C 
BRANCH   3   4
ATOM      4  O   LIG    1       26.847 -14.241   1.812  0.00  0.00    -0.481 OA
ATOM      5  H   LIG    1       27.251 -13.734   1.067  0.00  0.00    +0.295 HD
ENDBRANCH   3   4
ENDBRANCH   1   3
BRANCH   1   6
ATOM      6  C   LIG    1       27.641 -13.720   4.542  0.00  0.00    +0.039 C 
BRANCH   6   7
ATOM      7  C   LIG    1       28.646 -12.606   4.266  0.00  0.00    +0.156 C 
BRANCH   7   8
ATOM      8  O   LIG    1       28.958 -11.940   5.483  0.00  0.00    -0.395 OA
ATOM      9  H   LIG    1       29.572 -11.211   5.259  0.00  0.00    +0.209 HD
ENDBRANCH   7   8
ENDBRANCH   6   7
ENDBRANCH   1   6
TORSDOF 5
ENDMDL
MODEL 6
REMARK VINA RESULT:      -3.5      6.444      7.455
REMARK  Name = *****
REMARK                            x       y       z     vdW  Elec       q    Type
REMARK                         _______ _______ _______ _____ _____    ______ ____
ROOT
ATOM      1  C   LIG    1       22.579 -20.126   5.262  0.00  0.00    +0.122 C 
ENDROOT
BRANCH   1   3
ATOM      2  O   LIG    1       22.031 -17.911   4.520  0.00  0.00    -0.251 OA
ATOM      3  C   LIG    1       22.749 -18.899   4.400  0.00  0.00    +0.305 C 
BRANCH   3   4
ATOM      4  O   LIG    1       23.779 -18.893   3.543  0.00  0.00    -0.481 OA
ATOM      5  H   LIG    1       23.895 -19.733   3.036  0.00  0.00    +0.295 HD
ENDBRANCH   3   4
ENDBRANCH   1   3
BRANCH   1   6
ATOM      6  C   LIG    1       23.746 -20.567   6.154  0.00  0.00    +0.039 C 
BRANCH   6   7
ATOM      7  C   LIG    1       24.693 -21.571   5.504  0.00  0.00    +0.156 C 
BRANCH   7   8
ATOM      8  O   LIG    1       25.691 -20.871   4.773  0.00  0.00    -0.395 OA
ATOM      9  H   LIG    1       26.546 -21.306   4.971  0.00  0.00    +0.209 HD
ENDBRANCH   7   8
ENDBRANCH   6   7
ENDBRANCH   1   6
TORSDOF 5
ENDMDL
MODEL 7
REMARK VINA RESULT:      -3.5      6.907      7.411
REMARK  Name = *****
REMARK                            x       y       z     vdW  Elec       q    Type
REMARK                         _______ _______ _______ _____ _____    ______ ____
ROOT
ATOM      1  C   LIG    1       23.494 -20.638   6.452  0.00  0.00    +0.122 C 
ENDROOT
BRANCH   1   3
ATOM      2  O   LIG    1       25.810 -20.482   7.058  0.00  0.00    -0.251 OA
ATOM      3  C   LIG    1       24.978 -20.724   6.189  0.00  0.00    +0.305 C 
BRANCH   3   4
ATOM      4  O   LIG    1       25.360 -21.159   4.981  0.00  0.00    -0.481 OA
ATOM      5  H   LIG    1       26.290 -20.931   4.738  0.00  0.00    +0.295 HD
ENDBRANCH   3   4
ENDBRANCH   1   3
BRANCH   1   6
ATOM      6  C   LIG    1       22.542 -20.495   5.259  0.00  0.00    +0.039 C 
BRANCH   6   7
ATOM      7  C   LIG    1       22.498 -19.096   4.651  0.00  0.00    +0.156 C 
BRANCH   7   8
ATOM      8  O   LIG    1       23.486 -18.994   3.633  0.00  0.00    -0.395 OA
ATOM      9  H   LIG    1       23.446 -18.079   3.288  0.00  0.00    +0.209 HD
ENDBRANCH   7   8
ENDBRANCH   6   7
ENDBRANCH   1   6
TORSDOF 5
ENDMDL
MODEL 8
REMARK VINA RESULT:      -3.5      6.135      6.665
REMARK  Name = *****
REMARK                            x       y       z     vdW  Elec       q    Type
REMARK                         _______ _______ _______ _____ _____    ______ ____
ROOT
ATOM      1  C   LIG    1       23.757 -19.139   3.627  0.00  0.00    +0.122 C 
ENDROOT
BRANCH   1   3
ATOM      2  O   LIG    1       25.773 -20.081   4.526  0.00  0.00    -0.251 OA
ATOM      3  C   LIG    1       25.244 -19.178   3.885  0.00  0.00    +0.305 C 
BRANCH   3   4
ATOM      4  O   LIG    1       25.988 -18.224   3.309  0.00  0.00    -0.481 OA
ATOM      5  H   LIG    1       25.694 -17.301   3.506  0.00  0.00    +0.295 HD
ENDBRANCH   3   4
ENDBRANCH   1   3
BRANCH   1   6
ATOM      6  C   LIG    1       22.800 -19.219   4.822  0.00  0.00    +0.039 C 
BRANCH   6   7
ATOM      7  C   LIG    1       22.352 -20.633   5.179  0.00  0.00    +0.156 C 
BRANCH   7   8
ATOM      8  O   LIG    1       23.122 -21.572   4.437  0.00  0.00    -0.395 OA
ATOM      9  H   LIG    1       23.759 -21.975   5.063  0.00  0.00    +0.209 HD
ENDBRANCH   7   8
ENDBRANCH   6   7
ENDBRANCH   1   6
TORSDOF 5
ENDMDL
MODEL 9
REMARK VINA RESULT:      -3.5      1.610      1.859
REMARK  Name = *****
REMARK                            x       y       z     vdW  Elec       q    Type
REMARK                         _______ _______ _______ _____ _____    ______ ____
ROOT
ATOM      1  C   LIG    1       26.581 -13.896   2.562  0.00  0.00    +0.122 C 
ENDROOT
BRANCH   1   3
ATOM      2  O   LIG    1       27.225 -13.603   4.855  0.00  0.00    -0.251 OA
ATOM      3  C   LIG    1       27.532 -13.512   3.670  0.00  0.00    +0.305 C 
BRANCH   3   4
ATOM      4  O   LIG    1       28.770 -13.144   3.312  0.00  0.00    -0.481 OA
ATOM      5  H   LIG    1       29.467 -13.821   3.490  0.00  0.00    +0.295 HD
ENDBRANCH   3   4
ENDBRANCH   1   3
BRANCH   1   6
ATOM      6  C   LIG    1       25.328 -13.042   2.338  0.00  0.00    +0.039 C 
BRANCH   6   7
ATOM      7  C   LIG    1       24.145 -13.412   3.228  0.00  0.00    +0.156 C 
BRANCH   7   8
ATOM      8  O   LIG    1       24.252 -12.717   4.465  0.00  0.00    -0.395 OA
ATOM      9  H   LIG    1       23.905 -11.813   4.314  0.00  0.00    +0.209 HD
ENDBRANCH   7   8
ENDBRANCH   6   7
ENDBRANCH   1   6
TORSDOF 5
ENDMDL
