MODEL 1
REMARK VINA RESULT:      -7.8      0.000      0.000
REMARK  Name = *****
REMARK                            x       y       z     vdW  Elec       q    Type
REMARK                         _______ _______ _______ _____ _____    ______ ____
ROOT
ATOM      1  C   LIG    1       26.187 -20.668   6.330  0.00  0.00    -0.018 A 
ATOM      2  C   LIG    1       27.286 -20.125   5.643  0.00  0.00    +0.008 A 
ATOM      3  C   LIG    1       28.586 -20.276   6.133  0.00  0.00    +0.025 A 
ATOM      4  C   LIG    1       28.802 -20.962   7.326  0.00  0.00    +0.048 A 
ATOM      5  C   LIG    1       27.730 -21.510   8.023  0.00  0.00    +0.025 A 
ATOM      6  C   LIG    1       26.426 -21.350   7.535  0.00  0.00    +0.008 A 
ENDROOT
BRANCH   4   7
ATOM      7  N   LIG    1       30.140 -21.192   7.776  0.00  0.00    -0.221 N 
ATOM      8  H   LIG    1       30.240 -22.042   8.334  0.00  0.00    +0.173 HD
BRANCH   7   9
ATOM      9  S   LIG    1       30.853 -19.898   8.623  0.00  0.00    +0.040 S 
ATOM     10  O   LIG    1       31.959 -20.470   9.369  0.00  0.00    -0.155 OA
ATOM     11  O   LIG    1       29.847 -19.086   9.262  0.00  0.00    -0.155 OA
ATOM     12  C   LIG    1       31.536 -18.978   7.267  0.00  0.00    +0.218 C 
ENDBRANCH   7   9
ENDBRANCH   4   7
BRANCH   1  13
ATOM     13  C   LIG    1       24.773 -20.536   5.790  0.00  0.00    +0.158 C 
BRANCH  13  14
ATOM     14  O   LIG    1       24.843 -19.956   4.485  0.00  0.00    -0.386 OA
ATOM     15  H   LIG    1       24.179 -19.240   4.490  0.00  0.00    +0.210 HD
ENDBRANCH  13  14
BRANCH  13  16
ATOM     16  C   LIG    1       24.023 -21.898   5.720  0.00  0.00    +0.117 C 
BRANCH  16  17
ATOM     17  N   LIG    1       24.740 -22.922   4.923  0.00  0.00    -0.311 NA
ATOM     18  H   LIG    1       24.204 -23.140   4.081  0.00  0.00    +0.122 HD
BRANCH  17  20
ATOM     19  C   LIG    1       23.739 -24.408   6.592  0.00  0.00    +0.024 C 
ATOM     20  C   LIG    1       24.949 -24.176   5.682  0.00  0.00    +0.048 C 
ATOM     21  C   LIG    1       25.139 -25.393   4.771  0.00  0.00    +0.024 C 
ENDBRANCH  17  20
ENDBRANCH  16  17
ENDBRANCH  13  16
ENDBRANCH   1  13
TORSDOF 7
ENDMDL
MODEL 2
REMARK VINA RESULT:      -7.8      1.032      1.407
REMARK  Name = *****
REMARK                            x       y       z     vdW  Elec       q    Type
REMARK                         _______ _______ _______ _____ _____    ______ ____
ROOT
ATOM      1  C   LIG    1       26.670 -20.509   6.049  0.00  0.00    -0.018 A 
ATOM      2  C   LIG    1       27.858 -19.998   5.500  0.00  0.00    +0.008 A 
ATOM      3  C   LIG    1       29.074 -20.120   6.177  0.00  0.00    +0.025 A 
ATOM      4  C   LIG    1       29.115 -20.745   7.422  0.00  0.00    +0.048 A 
ATOM      5  C   LIG    1       27.951 -21.260   7.986  0.00  0.00    +0.025 A 
ATOM      6  C   LIG    1       26.732 -21.128   7.309  0.00  0.00    +0.008 A 
ENDROOT
BRANCH   4   7
ATOM      7  N   LIG    1       30.374 -20.949   8.069  0.00  0.00    -0.221 N 
ATOM      8  H   LIG    1       30.297 -21.448   8.957  0.00  0.00    +0.173 HD
BRANCH   7   9
ATOM      9  S   LIG    1       31.299 -19.540   8.313  0.00  0.00    +0.040 S 
ATOM     10  O   LIG    1       31.825 -19.177   7.010  0.00  0.00    -0.155 OA
ATOM     11  O   LIG    1       32.157 -19.682   9.464  0.00  0.00    -0.155 OA
ATOM     12  C   LIG    1       30.010 -18.387   8.713  0.00  0.00    +0.218 C 
ENDBRANCH   7   9
ENDBRANCH   4   7
BRANCH   1  13
ATOM     13  C   LIG    1       25.347 -20.408   5.308  0.00  0.00    +0.158 C 
BRANCH  13  14
ATOM     14  O   LIG    1       25.623 -20.340   3.906  0.00  0.00    -0.386 OA
ATOM     15  H   LIG    1       26.453 -19.830   3.836  0.00  0.00    +0.210 HD
ENDBRANCH  13  14
BRANCH  13  16
ATOM     16  C   LIG    1       24.397 -21.605   5.599  0.00  0.00    +0.117 C 
BRANCH  16  17
ATOM     17  N   LIG    1       24.839 -22.871   4.965  0.00  0.00    -0.311 NA
ATOM     18  H   LIG    1       24.397 -22.968   4.049  0.00  0.00    +0.122 HD
BRANCH  17  20
ATOM     19  C   LIG    1       25.723 -24.479   6.586  0.00  0.00    +0.024 C 
ATOM     20  C   LIG    1       24.490 -24.057   5.781  0.00  0.00    +0.048 C 
ATOM     21  C   LIG    1       23.324 -23.792   6.738  0.00  0.00    +0.024 C 
ENDBRANCH  17  20
ENDBRANCH  16  17
ENDBRANCH  13  16
ENDBRANCH   1  13
TORSDOF 7
ENDMDL
MODEL 3
REMARK VINA RESULT:      -7.7      1.211      1.894
REMARK  Name = *****
REMARK                            x       y       z     vdW  Elec       q    Type
REMARK                         _______ _______ _______ _____ _____    ______ ____
ROOT
ATOM      1  C   LIG    1       27.275 -20.174   5.889  0.00  0.00    -0.018 A 
ATOM      2  C   LIG    1       27.909 -20.987   6.844  0.00  0.00    +0.008 A 
ATOM      3  C   LIG    1       29.219 -20.727   7.253  0.00  0.00    +0.025 A 
ATOM      4  C   LIG    1       29.918 -19.656   6.701  0.00  0.00    +0.048 A 
ATOM      5  C   LIG    1       29.311 -18.836   5.754  0.00  0.00    +0.025 A 
ATOM      6  C   LIG    1       28.000 -19.104   5.339  0.00  0.00    +0.008 A 
ENDROOT
BRANCH   4   7
ATOM      7  N   LIG    1       31.225 -19.339   7.188  0.00  0.00    -0.221 N 
ATOM      8  H   LIG    1       31.932 -20.031   6.932  0.00  0.00    +0.173 HD
BRANCH   7   9
ATOM      9  S   LIG    1       31.324 -19.052   8.864  0.00  0.00    +0.040 S 
ATOM     10  O   LIG    1       32.190 -20.090   9.395  0.00  0.00    -0.155 OA
ATOM     11  O   LIG    1       30.019 -18.796   9.420  0.00  0.00    -0.155 OA
ATOM     12  C   LIG    1       32.242 -17.533   8.865  0.00  0.00    +0.218 C 
ENDBRANCH   7   9
ENDBRANCH   4   7
BRANCH   1  13
ATOM     13  C   LIG    1       25.840 -20.430   5.459  0.00  0.00    +0.158 C 
BRANCH  13  14
ATOM     14  O   LIG    1       25.821 -20.606   4.040  0.00  0.00    -0.386 OA
ATOM     15  H   LIG    1       24.923 -20.339   3.763  0.00  0.00    +0.210 HD
ENDBRANCH  13  14
BRANCH  13  16
ATOM     16  C   LIG    1       25.215 -21.676   6.150  0.00  0.00    +0.117 C 
BRANCH  16  17
ATOM     17  N   LIG    1       24.843 -22.750   5.198  0.00  0.00    -0.311 NA
ATOM     18  H   LIG    1       23.925 -22.550   4.796  0.00  0.00    +0.122 HD
BRANCH  17  20
ATOM     19  C   LIG    1       25.914 -24.168   6.883  0.00  0.00    +0.024 C 
ATOM     20  C   LIG    1       24.789 -24.080   5.848  0.00  0.00    +0.048 C 
ATOM     21  C   LIG    1       23.445 -24.348   6.534  0.00  0.00    +0.024 C 
ENDBRANCH  17  20
ENDBRANCH  16  17
ENDBRANCH  13  16
ENDBRANCH   1  13
TORSDOF 7
ENDMDL
MODEL 4
REMARK VINA RESULT:      -7.7      1.782      2.557
REMARK  Name = *****
REMARK                            x       y       z     vdW  Elec       q    Type
REMARK                         _______ _______ _______ _____ _____    ______ ____
ROOT
ATOM      1  C   LIG    1       27.393 -20.016   5.731  0.00  0.00    -0.018 A 
ATOM      2  C   LIG    1       27.972 -20.874   6.681  0.00  0.00    +0.008 A 
ATOM      3  C   LIG    1       29.271 -20.656   7.149  0.00  0.00    +0.025 A 
ATOM      4  C   LIG    1       30.013 -19.583   6.660  0.00  0.00    +0.048 A 
ATOM      5  C   LIG    1       29.460 -18.719   5.720  0.00  0.00    +0.025 A 
ATOM      6  C   LIG    1       28.161 -18.944   5.246  0.00  0.00    +0.008 A 
ENDROOT
BRANCH   4   7
ATOM      7  N   LIG    1       31.305 -19.311   7.208  0.00  0.00    -0.221 N 
ATOM      8  H   LIG    1       32.000 -20.027   6.983  0.00  0.00    +0.173 HD
BRANCH   7   9
ATOM      9  S   LIG    1       31.338 -19.031   8.887  0.00  0.00    +0.040 S 
ATOM     10  O   LIG    1       32.193 -20.062   9.448  0.00  0.00    -0.155 OA
ATOM     11  O   LIG    1       30.010 -18.790   9.394  0.00  0.00    -0.155 OA
ATOM     12  C   LIG    1       32.239 -17.503   8.930  0.00  0.00    +0.218 C 
ENDBRANCH   7   9
ENDBRANCH   4   7
BRANCH   1  13
ATOM     13  C   LIG    1       25.971 -20.226   5.238  0.00  0.00    +0.158 C 
BRANCH  13  14
ATOM     14  O   LIG    1       25.978 -20.168   3.809  0.00  0.00    -0.386 OA
ATOM     15  H   LIG    1       25.816 -21.086   3.518  0.00  0.00    +0.210 HD
ENDBRANCH  13  14
BRANCH  13  16
ATOM     16  C   LIG    1       25.362 -21.579   5.706  0.00  0.00    +0.117 C 
BRANCH  16  17
ATOM     17  N   LIG    1       24.087 -21.915   5.026  0.00  0.00    -0.311 NA
ATOM     18  H   LIG    1       24.089 -21.526   4.081  0.00  0.00    +0.122 HD
BRANCH  17  20
ATOM     19  C   LIG    1       23.252 -21.283   7.240  0.00  0.00    +0.024 C 
ATOM     20  C   LIG    1       22.910 -21.381   5.749  0.00  0.00    +0.048 C 
ATOM     21  C   LIG    1       22.476 -20.004   5.236  0.00  0.00    +0.024 C 
ENDBRANCH  17  20
ENDBRANCH  16  17
ENDBRANCH  13  16
ENDBRANCH   1  13
TORSDOF 7
ENDMDL
MODEL 5
REMARK VINA RESULT:      -7.6      1.597      1.896
REMARK  Name = *****
REMARK                            x       y       z     vdW  Elec       q    Type
REMARK                         _______ _______ _______ _____ _____    ______ ____
ROOT
ATOM      1  C   LIG    1       25.397 -20.678   6.920  0.00  0.00    -0.018 A 
ATOM      2  C   LIG    1       26.095 -20.333   5.751  0.00  0.00    +0.008 A 
ATOM      3  C   LIG    1       27.493 -20.312   5.727  0.00  0.00    +0.025 A 
ATOM      4  C   LIG    1       28.210 -20.625   6.879  0.00  0.00    +0.048 A 
ATOM      5  C   LIG    1       27.541 -20.971   8.049  0.00  0.00    +0.025 A 
ATOM      6  C   LIG    1       26.140 -20.982   8.074  0.00  0.00    +0.008 A 
ENDROOT
BRANCH   4   7
ATOM      7  N   LIG    1       29.638 -20.691   6.826  0.00  0.00    -0.221 N 
ATOM      8  H   LIG    1       30.039 -21.344   7.502  0.00  0.00    +0.173 HD
BRANCH   7   9
ATOM      9  S   LIG    1       30.439 -19.196   6.970  0.00  0.00    +0.040 S 
ATOM     10  O   LIG    1       29.853 -18.330   5.963  0.00  0.00    -0.155 OA
ATOM     11  O   LIG    1       31.865 -19.384   7.072  0.00  0.00    -0.155 OA
ATOM     12  C   LIG    1       29.830 -18.669   8.552  0.00  0.00    +0.218 C 
ENDBRANCH   7   9
ENDBRANCH   4   7
BRANCH   1  13
ATOM     13  C   LIG    1       23.879 -20.732   6.949  0.00  0.00    +0.158 C 
BRANCH  13  14
ATOM     14  O   LIG    1       23.388 -20.208   5.712  0.00  0.00    -0.386 OA
ATOM     15  H   LIG    1       22.778 -20.891   5.372  0.00  0.00    +0.210 HD
ENDBRANCH  13  14
BRANCH  13  16
ATOM     16  C   LIG    1       23.329 -22.172   7.164  0.00  0.00    +0.117 C 
BRANCH  16  17
ATOM     17  N   LIG    1       23.773 -23.131   6.124  0.00  0.00    -0.311 NA
ATOM     18  H   LIG    1       22.977 -23.398   5.541  0.00  0.00    +0.122 HD
BRANCH  17  20
ATOM     19  C   LIG    1       23.978 -25.553   5.825  0.00  0.00    +0.024 C 
ATOM     20  C   LIG    1       24.359 -24.359   6.708  0.00  0.00    +0.048 C 
ATOM     21  C   LIG    1       25.884 -24.285   6.831  0.00  0.00    +0.024 C 
ENDBRANCH  17  20
ENDBRANCH  16  17
ENDBRANCH  13  16
ENDBRANCH   1  13
TORSDOF 7
ENDMDL
MODEL 6
REMARK VINA RESULT:      -7.6      1.524      2.022
REMARK  Name = *****
REMARK                            x       y       z     vdW  Elec       q    Type
REMARK                         _______ _______ _______ _____ _____    ______ ____
ROOT
ATOM      1  C   LIG    1       27.043 -21.038   6.974  0.00  0.00    -0.018 A 
ATOM      2  C   LIG    1       28.042 -21.539   7.825  0.00  0.00    +0.008 A 
ATOM      3  C   LIG    1       29.345 -21.033   7.779  0.00  0.00    +0.025 A 
ATOM      4  C   LIG    1       29.666 -20.027   6.871  0.00  0.00    +0.048 A 
ATOM      5  C   LIG    1       28.692 -19.515   6.019  0.00  0.00    +0.025 A 
ATOM      6  C   LIG    1       27.390 -20.029   6.060  0.00  0.00    +0.008 A 
ENDROOT
BRANCH   4   7
ATOM      7  N   LIG    1       30.975 -19.451   6.890  0.00  0.00    -0.221 N 
ATOM      8  H   LIG    1       31.705 -20.089   6.567  0.00  0.00    +0.173 HD
BRANCH   7   9
ATOM      9  S   LIG    1       31.453 -18.788   8.384  0.00  0.00    +0.040 S 
ATOM     10  O   LIG    1       32.220 -17.597   8.066  0.00  0.00    -0.155 OA
ATOM     11  O   LIG    1       31.970 -19.811   9.259  0.00  0.00    -0.155 OA
ATOM     12  C   LIG    1       29.877 -18.262   9.009  0.00  0.00    +0.218 C 
ENDBRANCH   7   9
ENDBRANCH   4   7
BRANCH   1  13
ATOM     13  C   LIG    1       25.617 -21.560   7.037  0.00  0.00    +0.158 C 
BRANCH  13  14
ATOM     14  O   LIG    1       24.864 -20.705   7.901  0.00  0.00    -0.386 OA
ATOM     15  H   LIG    1       24.883 -21.146   8.773  0.00  0.00    +0.210 HD
ENDBRANCH  13  14
BRANCH  13  16
ATOM     16  C   LIG    1       24.935 -21.625   5.639  0.00  0.00    +0.117 C 
BRANCH  16  17
ATOM     17  N   LIG    1       24.836 -23.003   5.100  0.00  0.00    -0.311 NA
ATOM     18  H   LIG    1       23.952 -23.112   4.598  0.00  0.00    +0.122 HD
BRANCH  17  20
ATOM     19  C   LIG    1       23.469 -24.380   6.594  0.00  0.00    +0.024 C 
ATOM     20  C   LIG    1       24.898 -24.028   6.167  0.00  0.00    +0.048 C 
ATOM     21  C   LIG    1       25.622 -25.302   5.720  0.00  0.00    +0.024 C 
ENDBRANCH  17  20
ENDBRANCH  16  17
ENDBRANCH  13  16
ENDBRANCH   1  13
TORSDOF 7
ENDMDL
MODEL 7
REMARK VINA RESULT:      -7.5      1.991      3.135
REMARK  Name = *****
REMARK                            x       y       z     vdW  Elec       q    Type
REMARK                         _______ _______ _______ _____ _____    ______ ____
ROOT
ATOM      1  C   LIG    1       25.975 -21.201   6.925  0.00  0.00    -0.018 A 
ATOM      2  C   LIG    1       26.782 -21.811   7.900  0.00  0.00    +0.008 A 
ATOM      3  C   LIG    1       28.153 -21.545   7.967  0.00  0.00    +0.025 A 
ATOM      4  C   LIG    1       28.736 -20.674   7.050  0.00  0.00    +0.048 A 
ATOM      5  C   LIG    1       27.956 -20.057   6.076  0.00  0.00    +0.025 A 
ATOM      6  C   LIG    1       26.584 -20.331   6.005  0.00  0.00    +0.008 A 
ENDROOT
BRANCH   4   7
ATOM      7  N   LIG    1       30.119 -20.334   7.179  0.00  0.00    -0.221 N 
ATOM      8  H   LIG    1       30.746 -21.131   7.049  0.00  0.00    +0.173 HD
BRANCH   7   9
ATOM      9  S   LIG    1       30.539 -19.541   8.626  0.00  0.00    +0.040 S 
ATOM     10  O   LIG    1       31.152 -20.550   9.471  0.00  0.00    -0.155 OA
ATOM     11  O   LIG    1       29.453 -18.718   9.096  0.00  0.00    -0.155 OA
ATOM     12  C   LIG    1       31.832 -18.479   8.033  0.00  0.00    +0.218 C 
ENDBRANCH   7   9
ENDBRANCH   4   7
BRANCH   1  13
ATOM     13  C   LIG    1       24.479 -21.460   6.862  0.00  0.00    +0.158 C 
BRANCH  13  14
ATOM     14  O   LIG    1       23.845 -20.677   7.878  0.00  0.00    -0.386 OA
ATOM     15  H   LIG    1       23.372 -21.323   8.437  0.00  0.00    +0.210 HD
ENDBRANCH  13  14
BRANCH  13  16
ATOM     16  C   LIG    1       23.864 -21.117   5.475  0.00  0.00    +0.117 C 
BRANCH  16  17
ATOM     17  N   LIG    1       22.839 -20.046   5.536  0.00  0.00    -0.311 NA
ATOM     18  H   LIG    1       21.921 -20.459   5.708  0.00  0.00    +0.122 HD
BRANCH  17  20
ATOM     19  C   LIG    1       22.161 -17.892   4.590  0.00  0.00    +0.024 C 
ATOM     20  C   LIG    1       22.773 -19.262   4.282  0.00  0.00    +0.048 C 
ATOM     21  C   LIG    1       24.147 -19.070   3.632  0.00  0.00    +0.024 C 
ENDBRANCH  17  20
ENDBRANCH  16  17
ENDBRANCH  13  16
ENDBRANCH   1  13
TORSDOF 7
ENDMDL
MODEL 8
REMARK VINA RESULT:      -7.4      3.874      6.868
REMARK  Name = *****
REMARK                            x       y       z     vdW  Elec       q    Type
REMARK                         _______ _______ _______ _____ _____    ______ ____
ROOT
ATOM      1  C   LIG    1       25.183 -22.177   7.468  0.00  0.00    -0.018 A 
ATOM      2  C   LIG    1       23.838 -22.480   7.198  0.00  0.00    +0.008 A 
ATOM      3  C   LIG    1       23.468 -23.737   6.711  0.00  0.00    +0.025 A 
ATOM      4  C   LIG    1       24.443 -24.703   6.474  0.00  0.00    +0.048 A 
ATOM      5  C   LIG    1       25.782 -24.426   6.735  0.00  0.00    +0.025 A 
ATOM      6  C   LIG    1       26.151 -23.163   7.215  0.00  0.00    +0.008 A 
ENDROOT
BRANCH   4   7
ATOM      7  N   LIG    1       24.051 -26.015   6.062  0.00  0.00    -0.221 N 
ATOM      8  H   LIG    1       23.346 -26.438   6.670  0.00  0.00    +0.173 HD
BRANCH   7   9
ATOM      9  S   LIG    1       25.329 -27.123   5.860  0.00  0.00    +0.040 S 
ATOM     10  O   LIG    1       25.837 -27.395   7.193  0.00  0.00    -0.155 OA
ATOM     11  O   LIG    1       26.199 -26.714   4.786  0.00  0.00    -0.155 OA
ATOM     12  C   LIG    1       24.419 -28.552   5.330  0.00  0.00    +0.218 C 
ENDBRANCH   7   9
ENDBRANCH   4   7
BRANCH   1  13
ATOM     13  C   LIG    1       25.592 -20.825   8.027  0.00  0.00    +0.158 C 
BRANCH  13  14
ATOM     14  O   LIG    1       25.766 -20.957   9.440  0.00  0.00    -0.386 OA
ATOM     15  H   LIG    1       25.025 -21.521   9.734  0.00  0.00    +0.210 HD
ENDBRANCH  13  14
BRANCH  13  16
ATOM     16  C   LIG    1       26.900 -20.276   7.386  0.00  0.00    +0.117 C 
BRANCH  16  17
ATOM     17  N   LIG    1       28.013 -20.135   8.355  0.00  0.00    -0.311 NA
ATOM     18  H   LIG    1       27.787 -19.407   9.035  0.00  0.00    +0.122 HD
BRANCH  17  20
ATOM     19  C   LIG    1       29.006 -19.447   6.225  0.00  0.00    +0.024 C 
ATOM     20  C   LIG    1       29.289 -19.777   7.694  0.00  0.00    +0.048 C 
ATOM     21  C   LIG    1       29.983 -18.583   8.358  0.00  0.00    +0.024 C 
ENDBRANCH  17  20
ENDBRANCH  16  17
ENDBRANCH  13  16
ENDBRANCH   1  13
TORSDOF 7
ENDMDL
MODEL 9
REMARK VINA RESULT:      -7.3      2.956      7.118
REMARK  Name = *****
REMARK                            x       y       z     vdW  Elec       q    Type
REMARK                         _______ _______ _______ _____ _____    ______ ____
ROOT
ATOM      1  C   LIG    1       28.737 -19.832   6.613  0.00  0.00    -0.018 A 
ATOM      2  C   LIG    1       28.261 -20.320   7.841  0.00  0.00    +0.008 A 
ATOM      3  C   LIG    1       26.947 -20.781   7.971  0.00  0.00    +0.025 A 
ATOM      4  C   LIG    1       26.089 -20.746   6.874  0.00  0.00    +0.048 A 
ATOM      5  C   LIG    1       26.539 -20.267   5.647  0.00  0.00    +0.025 A 
ATOM      6  C   LIG    1       27.853 -19.798   5.521  0.00  0.00    +0.008 A 
ENDROOT
BRANCH   4   7
ATOM      7  N   LIG    1       24.776 -21.302   6.987  0.00  0.00    -0.221 N 
ATOM      8  H   LIG    1       24.391 -21.243   7.931  0.00  0.00    +0.173 HD
BRANCH   7   9
ATOM      9  S   LIG    1       24.617 -22.904   6.432  0.00  0.00    +0.040 S 
ATOM     10  O   LIG    1       25.441 -23.714   7.310  0.00  0.00    -0.155 OA
ATOM     11  O   LIG    1       24.749 -22.967   4.997  0.00  0.00    -0.155 OA
ATOM     12  C   LIG    1       22.920 -23.210   6.852  0.00  0.00    +0.218 C 
ENDBRANCH   7   9
ENDBRANCH   4   7
BRANCH   1  13
ATOM     13  C   LIG    1       30.172 -19.356   6.454  0.00  0.00    +0.158 C 
BRANCH  13  14
ATOM     14  O   LIG    1       30.152 -18.076   5.818  0.00  0.00    -0.386 OA
ATOM     15  H   LIG    1       30.790 -17.533   6.321  0.00  0.00    +0.210 HD
ENDBRANCH  13  14
BRANCH  13  16
ATOM     16  C   LIG    1       30.931 -19.258   7.808  0.00  0.00    +0.117 C 
BRANCH  16  17
ATOM     17  N   LIG    1       31.690 -17.994   7.965  0.00  0.00    -0.311 NA
ATOM     18  H   LIG    1       32.654 -18.133   7.656  0.00  0.00    +0.122 HD
BRANCH  17  20
ATOM     19  C   LIG    1       32.366 -16.139   9.413  0.00  0.00    +0.024 C 
ATOM     20  C   LIG    1       31.712 -17.524   9.369  0.00  0.00    +0.048 C 
ATOM     21  C   LIG    1       30.312 -17.445   9.987  0.00  0.00    +0.024 C 
ENDBRANCH  17  20
ENDBRANCH  16  17
ENDBRANCH  13  16
ENDBRANCH   1  13
TORSDOF 7
ENDMDL
