MODEL 1
REMARK VINA RESULT:      -8.2      0.000      0.000
REMARK  Name = *****
REMARK                            x       y       z     vdW  Elec       q    Type
REMARK                         _______ _______ _______ _____ _____    ______ ____
ROOT
ATOM      1  C   LIG    1       25.267 -26.327   6.608  0.00  0.00    +0.080 A 
ATOM      2  N   LIG    1       24.460 -27.014   5.769  0.00  0.00    -0.214 NA
ATOM      3  C   LIG    1       24.380 -28.333   5.924  0.00  0.00    +0.216 A 
ATOM      4  N   LIG    1       25.011 -29.026   6.870  0.00  0.00    -0.180 NA
ATOM      5  C   LIG    1       25.801 -28.317   7.685  0.00  0.00    +0.221 A 
ATOM      6  C   LIG    1       25.970 -26.958   7.611  0.00  0.00    +0.095 A 
ENDROOT
BRANCH   1  10
ATOM      7  C   LIG    1       25.430 -22.058   6.065  0.00  0.00    -0.045 A 
ATOM      8  C   LIG    1       24.754 -22.857   5.133  0.00  0.00    +0.004 A 
ATOM      9  C   LIG    1       24.675 -24.243   5.308  0.00  0.00    +0.010 A 
ATOM     10  C   LIG    1       25.270 -24.865   6.418  0.00  0.00    +0.001 A 
ATOM     11  C   LIG    1       25.902 -24.040   7.365  0.00  0.00    +0.010 A 
ATOM     12  C   LIG    1       25.982 -22.658   7.197  0.00  0.00    +0.004 A 
BRANCH   7  13
ATOM     13  C   LIG    1       25.526 -20.565   5.875  0.00  0.00    +0.065 C 
BRANCH  13  14
ATOM     14  C   LIG    1       26.296 -20.165   4.610  0.00  0.00    +0.165 C 
BRANCH  14  15
ATOM     15  N   LIG    1       27.626 -19.587   4.926  0.00  0.00    -0.318 NA
ATOM     16  H   LIG    1       27.632 -19.274   5.895  0.00  0.00    +0.119 HD
ATOM     17  H   LIG    1       28.317 -20.336   4.866  0.00  0.00    +0.119 HD
ENDBRANCH  14  15
BRANCH  14  18
ATOM     18  C   LIG    1       25.426 -19.174   3.826  0.00  0.00    +0.324 C 
ATOM     19  O   LIG    1       25.816 -18.093   3.423  0.00  0.00    -0.249 OA
BRANCH  18  20
ATOM     20  O   LIG    1       24.175 -19.690   3.611  0.00  0.00    -0.464 OA
BRANCH  20  22
ATOM     21  C   LIG    1       22.274 -19.315   5.055  0.00  0.00    +0.048 C 
ATOM     22  C   LIG    1       23.093 -18.791   3.889  0.00  0.00    +0.229 C 
ENDBRANCH  20  22
ENDBRANCH  18  20
ENDBRANCH  14  18
ENDBRANCH  13  14
ENDBRANCH   7  13
ENDBRANCH   1  10
BRANCH   3  23
ATOM     23  N   LIG    1       23.518 -29.013   5.092  0.00  0.00    -0.327 N 
ATOM     24  H   LIG    1       22.566 -28.744   5.304  0.00  0.00    +0.145 HD
ATOM     25  H   LIG    1       23.735 -29.999   5.102  0.00  0.00    +0.145 HD
ENDBRANCH   3  23
BRANCH   5  26
ATOM     26  O   LIG    1       26.490 -28.982   8.682  0.00  0.00    -0.459 OA
BRANCH  26  27
ATOM     27  C   LIG    1       25.608 -29.696   9.604  0.00  0.00    +0.311 C 
BRANCH  27  28
ATOM     28  C   LIG    1       25.670 -28.955  10.955  0.00  0.00    +0.027 A 
ATOM     29  C   LIG    1       24.700 -29.087  11.986  0.00  0.00    +0.074 A 
ATOM     30  C   LIG    1       24.822 -28.324  13.168  0.00  0.00    +0.048 A 
ATOM     31  C   LIG    1       25.904 -27.464  13.346  0.00  0.00    +0.043 A 
ATOM     32 CL   LIG    1       26.056 -26.575  14.811  0.00  0.00    -0.084 Cl
ATOM     33  C   LIG    1       26.868 -27.333  12.357  0.00  0.00    +0.020 A 
ATOM     34  C   LIG    1       26.752 -28.070  11.177  0.00  0.00    +0.011 A 
BRANCH  29  35
ATOM     35  N   LIG    1       23.603 -29.996  11.907  0.00  0.00    -0.239 N 
ATOM     36  N   LIG    1       22.483 -29.692  11.214  0.00  0.00    -0.172 NA
ATOM     37  C   LIG    1       21.720 -30.790  11.277  0.00  0.00    +0.060 A 
ATOM     38  C   LIG    1       20.398 -30.832  10.605  0.00  0.00    +0.067 C 
ATOM     39  C   LIG    1       22.326 -31.802  12.047  0.00  0.00    +0.044 A 
ATOM     40  C   LIG    1       23.527 -31.266  12.442  0.00  0.00    +0.115 A 
ENDBRANCH  29  35
ENDBRANCH  27  28
BRANCH  27  41
ATOM     41  C   LIG    1       26.016 -31.189   9.741  0.00  0.00    +0.431 C 
ATOM     42  F   LIG    1       26.435 -31.509  10.986  0.00  0.00    -0.167 F 
ATOM     43  F   LIG    1       27.004 -31.544   8.879  0.00  0.00    -0.167 F 
ATOM     44  F   LIG    1       24.979 -32.024   9.452  0.00  0.00    -0.167 F 
ENDBRANCH  27  41
ENDBRANCH  26  27
ENDBRANCH   5  26
TORSDOF 13
ENDMDL
MODEL 2
REMARK VINA RESULT:      -8.2      1.376      1.734
REMARK  Name = *****
REMARK                            x       y       z     vdW  Elec       q    Type
REMARK                         _______ _______ _______ _____ _____    ______ ____
ROOT
ATOM      1  C   LIG    1       25.256 -26.360   6.624  0.00  0.00    +0.080 A 
ATOM      2  N   LIG    1       24.441 -27.038   5.786  0.00  0.00    -0.214 NA
ATOM      3  C   LIG    1       24.351 -28.357   5.936  0.00  0.00    +0.216 A 
ATOM      4  N   LIG    1       24.980 -29.058   6.877  0.00  0.00    -0.180 NA
ATOM      5  C   LIG    1       25.778 -28.358   7.692  0.00  0.00    +0.221 A 
ATOM      6  C   LIG    1       25.957 -27.000   7.623  0.00  0.00    +0.095 A 
ENDROOT
BRANCH   1  10
ATOM      7  C   LIG    1       25.450 -22.091   6.096  0.00  0.00    -0.045 A 
ATOM      8  C   LIG    1       24.761 -22.881   5.166  0.00  0.00    +0.004 A 
ATOM      9  C   LIG    1       24.673 -24.267   5.336  0.00  0.00    +0.010 A 
ATOM     10  C   LIG    1       25.269 -24.898   6.440  0.00  0.00    +0.001 A 
ATOM     11  C   LIG    1       25.914 -24.081   7.386  0.00  0.00    +0.010 A 
ATOM     12  C   LIG    1       26.004 -22.699   7.223  0.00  0.00    +0.004 A 
BRANCH   7  13
ATOM     13  C   LIG    1       25.556 -20.597   5.912  0.00  0.00    +0.065 C 
BRANCH  13  14
ATOM     14  C   LIG    1       26.319 -20.199   4.643  0.00  0.00    +0.165 C 
BRANCH  14  15
ATOM     15  N   LIG    1       27.647 -19.612   4.951  0.00  0.00    -0.318 NA
ATOM     16  H   LIG    1       27.660 -19.310   5.925  0.00  0.00    +0.119 HD
ATOM     17  H   LIG    1       28.346 -20.352   4.875  0.00  0.00    +0.119 HD
ENDBRANCH  14  15
BRANCH  14  18
ATOM     18  C   LIG    1       25.441 -19.217   3.857  0.00  0.00    +0.324 C 
ATOM     19  O   LIG    1       25.823 -18.135   3.449  0.00  0.00    -0.249 OA
BRANCH  18  20
ATOM     20  O   LIG    1       24.193 -19.743   3.646  0.00  0.00    -0.464 OA
BRANCH  20  22
ATOM     21  C   LIG    1       22.283 -19.366   5.077  0.00  0.00    +0.048 C 
ATOM     22  C   LIG    1       23.106 -18.846   3.912  0.00  0.00    +0.229 C 
ENDBRANCH  20  22
ENDBRANCH  18  20
ENDBRANCH  14  18
ENDBRANCH  13  14
ENDBRANCH   7  13
ENDBRANCH   1  10
BRANCH   3  23
ATOM     23  N   LIG    1       23.481 -29.027   5.104  0.00  0.00    -0.327 N 
ATOM     24  H   LIG    1       23.384 -29.983   5.422  0.00  0.00    +0.145 HD
ATOM     25  H   LIG    1       23.744 -28.882   4.141  0.00  0.00    +0.145 HD
ENDBRANCH   3  23
BRANCH   5  26
ATOM     26  O   LIG    1       26.465 -29.032   8.685  0.00  0.00    -0.459 OA
BRANCH  26  27
ATOM     27  C   LIG    1       25.602 -29.463   9.783  0.00  0.00    +0.311 C 
BRANCH  27  28
ATOM     28  C   LIG    1       26.421 -29.328  11.083  0.00  0.00    +0.027 A 
ATOM     29  C   LIG    1       25.869 -28.973  12.344  0.00  0.00    +0.074 A 
ATOM     30  C   LIG    1       26.715 -28.828  13.464  0.00  0.00    +0.048 A 
ATOM     31  C   LIG    1       28.084 -29.060  13.352  0.00  0.00    +0.043 A 
ATOM     32 CL   LIG    1       29.091 -28.917  14.740  0.00  0.00    -0.084 Cl
ATOM     33  C   LIG    1       28.639 -29.421  12.133  0.00  0.00    +0.020 A 
ATOM     34  C   LIG    1       27.816 -29.554  11.013  0.00  0.00    +0.011 A 
BRANCH  29  35
ATOM     35  N   LIG    1       24.471 -28.786  12.554  0.00  0.00    -0.239 N 
ATOM     36  N   LIG    1       23.964 -27.584  12.912  0.00  0.00    -0.172 NA
ATOM     37  C   LIG    1       22.637 -27.751  12.929  0.00  0.00    +0.060 A 
ATOM     38  C   LIG    1       21.738 -26.621  13.270  0.00  0.00    +0.067 C 
ATOM     39  C   LIG    1       22.274 -29.076  12.619  0.00  0.00    +0.044 A 
ATOM     40  C   LIG    1       23.466 -29.718  12.388  0.00  0.00    +0.115 A 
ENDBRANCH  29  35
ENDBRANCH  27  28
BRANCH  27  41
ATOM     41  C   LIG    1       25.086 -30.913   9.567  0.00  0.00    +0.431 C 
ATOM     42  F   LIG    1       23.775 -30.963   9.241  0.00  0.00    -0.167 F 
ATOM     43  F   LIG    1       25.261 -31.699  10.661  0.00  0.00    -0.167 F 
ATOM     44  F   LIG    1       25.761 -31.545   8.567  0.00  0.00    -0.167 F 
ENDBRANCH  27  41
ENDBRANCH  26  27
ENDBRANCH   5  26
TORSDOF 13
ENDMDL
MODEL 3
REMARK VINA RESULT:      -8.0      2.604      3.563
REMARK  Name = *****
REMARK                            x       y       z     vdW  Elec       q    Type
REMARK                         _______ _______ _______ _____ _____    ______ ____
ROOT
ATOM      1  C   LIG    1       24.783 -29.096   7.059  0.00  0.00    +0.080 A 
ATOM      2  N   LIG    1       24.355 -29.908   6.066  0.00  0.00    -0.214 NA
ATOM      3  C   LIG    1       24.134 -31.187   6.360  0.00  0.00    +0.216 A 
ATOM      4  N   LIG    1       24.267 -31.722   7.572  0.00  0.00    -0.180 NA
ATOM      5  C   LIG    1       24.690 -30.892   8.533  0.00  0.00    +0.221 A 
ATOM      6  C   LIG    1       24.962 -29.561   8.344  0.00  0.00    +0.095 A 
ENDROOT
BRANCH   1  10
ATOM      7  C   LIG    1       25.150 -24.941   5.990  0.00  0.00    -0.045 A 
ATOM      8  C   LIG    1       26.055 -25.515   6.893  0.00  0.00    +0.004 A 
ATOM      9  C   LIG    1       25.960 -26.868   7.234  0.00  0.00    +0.010 A 
ATOM     10  C   LIG    1       24.959 -27.683   6.680  0.00  0.00    +0.001 A 
ATOM     11  C   LIG    1       24.091 -27.099   5.740  0.00  0.00    +0.010 A 
ATOM     12  C   LIG    1       24.182 -25.751   5.396  0.00  0.00    +0.004 A 
BRANCH   7  13
ATOM     13  C   LIG    1       25.241 -23.480   5.628  0.00  0.00    +0.065 C 
BRANCH  13  14
ATOM     14  C   LIG    1       23.954 -22.702   5.928  0.00  0.00    +0.165 C 
BRANCH  14  15
ATOM     15  N   LIG    1       23.619 -21.741   4.847  0.00  0.00    -0.318 NA
ATOM     16  H   LIG    1       22.932 -21.074   5.195  0.00  0.00    +0.119 HD
ATOM     17  H   LIG    1       24.457 -21.200   4.634  0.00  0.00    +0.119 HD
ENDBRANCH  14  15
BRANCH  14  18
ATOM     18  C   LIG    1       24.140 -21.989   7.273  0.00  0.00    +0.324 C 
ATOM     19  O   LIG    1       23.224 -21.547   7.944  0.00  0.00    -0.249 OA
BRANCH  18  20
ATOM     20  O   LIG    1       25.463 -21.958   7.629  0.00  0.00    -0.464 OA
BRANCH  20  22
ATOM     21  C   LIG    1       27.290 -20.386   7.805  0.00  0.00    +0.048 C 
ATOM     22  C   LIG    1       25.890 -20.747   8.267  0.00  0.00    +0.229 C 
ENDBRANCH  20  22
ENDBRANCH  18  20
ENDBRANCH  14  18
ENDBRANCH  13  14
ENDBRANCH   7  13
ENDBRANCH   1  10
BRANCH   3  23
ATOM     23  N   LIG    1       23.654 -31.991   5.349  0.00  0.00    -0.327 N 
ATOM     24  H   LIG    1       24.333 -32.029   4.601  0.00  0.00    +0.145 HD
ATOM     25  H   LIG    1       22.712 -31.717   5.109  0.00  0.00    +0.145 HD
ENDBRANCH   3  23
BRANCH   5  26
ATOM     26  O   LIG    1       24.857 -31.391   9.812  0.00  0.00    -0.459 OA
BRANCH  26  27
ATOM     27  C   LIG    1       23.592 -31.585  10.516  0.00  0.00    +0.311 C 
BRANCH  27  28
ATOM     28  C   LIG    1       23.358 -30.331  11.383  0.00  0.00    +0.027 A 
ATOM     29  C   LIG    1       22.083 -29.895  11.834  0.00  0.00    +0.074 A 
ATOM     30  C   LIG    1       21.972 -28.703  12.582  0.00  0.00    +0.048 A 
ATOM     31  C   LIG    1       23.107 -27.964  12.909  0.00  0.00    +0.043 A 
ATOM     32 CL   LIG    1       22.953 -26.536  13.857  0.00  0.00    -0.084 Cl
ATOM     33  C   LIG    1       24.362 -28.381  12.490  0.00  0.00    +0.020 A 
ATOM     34  C   LIG    1       24.485 -29.551  11.736  0.00  0.00    +0.011 A 
BRANCH  29  35
ATOM     35  N   LIG    1       20.884 -30.631  11.599  0.00  0.00    -0.239 N 
ATOM     36  N   LIG    1       20.173 -30.479  10.459  0.00  0.00    -0.172 NA
ATOM     37  C   LIG    1       19.183 -31.376  10.538  0.00  0.00    +0.060 A 
ATOM     38  C   LIG    1       18.195 -31.509   9.439  0.00  0.00    +0.067 C 
ATOM     39  C   LIG    1       19.222 -32.091  11.750  0.00  0.00    +0.044 A 
ATOM     40  C   LIG    1       20.317 -31.592  12.413  0.00  0.00    +0.115 A 
ENDBRANCH  29  35
ENDBRANCH  27  28
BRANCH  27  41
ATOM     41  C   LIG    1       23.607 -32.885  11.367  0.00  0.00    +0.431 C 
ATOM     42  F   LIG    1       24.718 -33.631  11.169  0.00  0.00    -0.167 F 
ATOM     43  F   LIG    1       22.536 -33.684  11.124  0.00  0.00    -0.167 F 
ATOM     44  F   LIG    1       23.552 -32.616  12.702  0.00  0.00    -0.167 F 
ENDBRANCH  27  41
ENDBRANCH  26  27
ENDBRANCH   5  26
TORSDOF 13
ENDMDL
MODEL 4
REMARK VINA RESULT:      -8.0      2.233      3.374
REMARK  Name = *****
REMARK                            x       y       z     vdW  Elec       q    Type
REMARK                         _______ _______ _______ _____ _____    ______ ____
ROOT
ATOM      1  C   LIG    1       24.705 -29.364   7.100  0.00  0.00    +0.080 A 
ATOM      2  N   LIG    1       24.300 -30.223   6.139  0.00  0.00    -0.214 NA
ATOM      3  C   LIG    1       24.075 -31.487   6.488  0.00  0.00    +0.216 A 
ATOM      4  N   LIG    1       24.185 -31.964   7.726  0.00  0.00    -0.180 NA
ATOM      5  C   LIG    1       24.585 -31.088   8.656  0.00  0.00    +0.221 A 
ATOM      6  C   LIG    1       24.858 -29.766   8.410  0.00  0.00    +0.095 A 
ENDROOT
BRANCH   1  10
ATOM      7  C   LIG    1       25.080 -25.266   5.833  0.00  0.00    -0.045 A 
ATOM      8  C   LIG    1       25.904 -25.762   6.851  0.00  0.00    +0.004 A 
ATOM      9  C   LIG    1       25.807 -27.097   7.260  0.00  0.00    +0.010 A 
ATOM     10  C   LIG    1       24.885 -27.969   6.659  0.00  0.00    +0.001 A 
ATOM     11  C   LIG    1       24.101 -27.464   5.606  0.00  0.00    +0.010 A 
ATOM     12  C   LIG    1       24.195 -26.135   5.195  0.00  0.00    +0.004 A 
BRANCH   7  13
ATOM     13  C   LIG    1       25.174 -23.825   5.396  0.00  0.00    +0.065 C 
BRANCH  13  14
ATOM     14  C   LIG    1       24.514 -22.852   6.381  0.00  0.00    +0.165 C 
BRANCH  14  15
ATOM     15  N   LIG    1       23.047 -23.058   6.472  0.00  0.00    -0.318 NA
ATOM     16  H   LIG    1       22.843 -23.647   7.278  0.00  0.00    +0.119 HD
ATOM     17  H   LIG    1       22.612 -22.155   6.663  0.00  0.00    +0.119 HD
ENDBRANCH  14  15
BRANCH  14  18
ATOM     18  C   LIG    1       24.853 -21.426   5.929  0.00  0.00    +0.324 C 
ATOM     19  O   LIG    1       25.470 -20.623   6.606  0.00  0.00    -0.249 OA
BRANCH  18  20
ATOM     20  O   LIG    1       24.403 -21.200   4.655  0.00  0.00    -0.464 OA
BRANCH  20  22
ATOM     21  C   LIG    1       22.528 -19.714   4.993  0.00  0.00    +0.048 C 
ATOM     22  C   LIG    1       23.920 -19.872   4.409  0.00  0.00    +0.229 C 
ENDBRANCH  20  22
ENDBRANCH  18  20
ENDBRANCH  14  18
ENDBRANCH  13  14
ENDBRANCH   7  13
ENDBRANCH   1  10
BRANCH   3  23
ATOM     23  N   LIG    1       23.618 -32.340   5.507  0.00  0.00    -0.327 N 
ATOM     24  H   LIG    1       23.310 -31.799   4.710  0.00  0.00    +0.145 HD
ATOM     25  H   LIG    1       22.965 -33.001   5.901  0.00  0.00    +0.145 HD
ENDBRANCH   3  23
BRANCH   5  26
ATOM     26  O   LIG    1       24.727 -31.525   9.960  0.00  0.00    -0.459 OA
BRANCH  26  27
ATOM     27  C   LIG    1       23.448 -31.679  10.650  0.00  0.00    +0.311 C 
BRANCH  27  28
ATOM     28  C   LIG    1       23.211 -30.388  11.460  0.00  0.00    +0.027 A 
ATOM     29  C   LIG    1       21.931 -29.907  11.846  0.00  0.00    +0.074 A 
ATOM     30  C   LIG    1       21.820 -28.686  12.544  0.00  0.00    +0.048 A 
ATOM     31  C   LIG    1       22.959 -27.959  12.885  0.00  0.00    +0.043 A 
ATOM     32 CL   LIG    1       22.803 -26.493  13.772  0.00  0.00    -0.084 Cl
ATOM     33  C   LIG    1       24.218 -28.419  12.529  0.00  0.00    +0.020 A 
ATOM     34  C   LIG    1       24.342 -29.619  11.826  0.00  0.00    +0.011 A 
BRANCH  29  35
ATOM     35  N   LIG    1       20.725 -30.626  11.594  0.00  0.00    -0.239 N 
ATOM     36  N   LIG    1       20.065 -30.511  10.419  0.00  0.00    -0.172 NA
ATOM     37  C   LIG    1       19.051 -31.380  10.497  0.00  0.00    +0.060 A 
ATOM     38  C   LIG    1       18.107 -31.542   9.363  0.00  0.00    +0.067 C 
ATOM     39  C   LIG    1       19.023 -32.039  11.741  0.00  0.00    +0.044 A 
ATOM     40  C   LIG    1       20.101 -31.535  12.426  0.00  0.00    +0.115 A 
ENDBRANCH  29  35
ENDBRANCH  27  28
BRANCH  27  41
ATOM     41  C   LIG    1       23.437 -32.942  11.555  0.00  0.00    +0.431 C 
ATOM     42  F   LIG    1       24.530 -33.721  11.385  0.00  0.00    -0.167 F 
ATOM     43  F   LIG    1       22.347 -33.726  11.348  0.00  0.00    -0.167 F 
ATOM     44  F   LIG    1       23.393 -32.617  12.877  0.00  0.00    -0.167 F 
ENDBRANCH  27  41
ENDBRANCH  26  27
ENDBRANCH   5  26
TORSDOF 13
ENDMDL
MODEL 5
REMARK VINA RESULT:      -7.9      2.135      2.969
REMARK  Name = *****
REMARK                            x       y       z     vdW  Elec       q    Type
REMARK                         _______ _______ _______ _____ _____    ______ ____
ROOT
ATOM      1  C   LIG    1       25.257 -28.413   6.870  0.00  0.00    +0.080 A 
ATOM      2  N   LIG    1       25.038 -29.286   5.862  0.00  0.00    -0.214 NA
ATOM      3  C   LIG    1       25.110 -30.586   6.138  0.00  0.00    +0.216 A 
ATOM      4  N   LIG    1       25.345 -31.094   7.346  0.00  0.00    -0.180 NA
ATOM      5  C   LIG    1       25.555 -30.204   8.323  0.00  0.00    +0.221 A 
ATOM      6  C   LIG    1       25.520 -28.843   8.153  0.00  0.00    +0.095 A 
ENDROOT
BRANCH   1  10
ATOM      7  C   LIG    1       24.983 -24.255   5.784  0.00  0.00    -0.045 A 
ATOM      8  C   LIG    1       24.107 -25.188   5.213  0.00  0.00    +0.004 A 
ATOM      9  C   LIG    1       24.171 -26.538   5.571  0.00  0.00    +0.010 A 
ATOM     10  C   LIG    1       25.112 -26.991   6.511  0.00  0.00    +0.001 A 
ATOM     11  C   LIG    1       25.950 -26.032   7.107  0.00  0.00    +0.010 A 
ATOM     12  C   LIG    1       25.889 -24.684   6.754  0.00  0.00    +0.004 A 
BRANCH   7  13
ATOM     13  C   LIG    1       24.925 -22.800   5.392  0.00  0.00    +0.065 C 
BRANCH  13  14
ATOM     14  C   LIG    1       23.700 -22.071   5.958  0.00  0.00    +0.165 C 
BRANCH  14  15
ATOM     15  N   LIG    1       22.897 -21.420   4.893  0.00  0.00    -0.318 NA
ATOM     16  H   LIG    1       22.470 -20.574   5.268  0.00  0.00    +0.119 HD
ATOM     17  H   LIG    1       23.535 -21.114   4.158  0.00  0.00    +0.119 HD
ENDBRANCH  14  15
BRANCH  14  18
ATOM     18  C   LIG    1       24.198 -21.049   6.989  0.00  0.00    +0.324 C 
ATOM     19  O   LIG    1       23.542 -20.663   7.939  0.00  0.00    -0.249 OA
BRANCH  18  20
ATOM     20  O   LIG    1       25.485 -20.668   6.713  0.00  0.00    -0.464 OA
BRANCH  20  22
ATOM     21  C   LIG    1       27.398 -21.499   7.933  0.00  0.00    +0.048 C 
ATOM     22  C   LIG    1       26.310 -20.443   7.864  0.00  0.00    +0.229 C 
ENDBRANCH  20  22
ENDBRANCH  18  20
ENDBRANCH  14  18
ENDBRANCH  13  14
ENDBRANCH   7  13
ENDBRANCH   1  10
BRANCH   3  23
ATOM     23  N   LIG    1       24.839 -31.463   5.111  0.00  0.00    -0.327 N 
ATOM     24  H   LIG    1       25.539 -31.359   4.389  0.00  0.00    +0.145 HD
ATOM     25  H   LIG    1       23.871 -31.383   4.835  0.00  0.00    +0.145 HD
ENDBRANCH   3  23
BRANCH   5  26
ATOM     26  O   LIG    1       25.814 -30.670   9.599  0.00  0.00    -0.459 OA
BRANCH  26  27
ATOM     27  C   LIG    1       24.610 -31.110  10.299  0.00  0.00    +0.311 C 
BRANCH  27  28
ATOM     28  C   LIG    1       24.245 -30.004  11.311  0.00  0.00    +0.027 A 
ATOM     29  C   LIG    1       22.946 -29.814  11.856  0.00  0.00    +0.074 A 
ATOM     30  C   LIG    1       22.705 -28.739  12.738  0.00  0.00    +0.048 A 
ATOM     31  C   LIG    1       23.738 -27.878  13.104  0.00  0.00    +0.043 A 
ATOM     32 CL   LIG    1       23.431 -26.599  14.213  0.00  0.00    -0.084 Cl
ATOM     33  C   LIG    1       25.015 -28.057  12.594  0.00  0.00    +0.020 A 
ATOM     34  C   LIG    1       25.265 -29.108  11.709  0.00  0.00    +0.011 A 
BRANCH  29  35
ATOM     35  N   LIG    1       21.854 -30.691  11.584  0.00  0.00    -0.239 N 
ATOM     36  N   LIG    1       21.507 -31.675  12.444  0.00  0.00    -0.172 NA
ATOM     37  C   LIG    1       20.406 -32.227  11.923  0.00  0.00    +0.060 A 
ATOM     38  C   LIG    1       19.723 -33.349  12.616  0.00  0.00    +0.067 C 
ATOM     39  C   LIG    1       20.053 -31.630  10.698  0.00  0.00    +0.044 A 
ATOM     40  C   LIG    1       20.998 -30.654  10.502  0.00  0.00    +0.115 A 
ENDBRANCH  29  35
ENDBRANCH  27  28
BRANCH  27  41
ATOM     41  C   LIG    1       24.823 -32.484  10.992  0.00  0.00    +0.431 C 
ATOM     42  F   LIG    1       25.865 -33.176  10.479  0.00  0.00    -0.167 F 
ATOM     43  F   LIG    1       23.729 -33.286  10.914  0.00  0.00    -0.167 F 
ATOM     44  F   LIG    1       25.065 -32.346  12.325  0.00  0.00    -0.167 F 
ENDBRANCH  27  41
ENDBRANCH  26  27
ENDBRANCH   5  26
TORSDOF 13
ENDMDL
MODEL 6
REMARK VINA RESULT:      -7.8      4.980     10.526
REMARK  Name = *****
REMARK                            x       y       z     vdW  Elec       q    Type
REMARK                         _______ _______ _______ _____ _____    ______ ____
ROOT
ATOM      1  C   LIG    1       24.711 -25.901   6.548  0.00  0.00    +0.080 A 
ATOM      2  N   LIG    1       23.491 -25.344   6.378  0.00  0.00    -0.214 NA
ATOM      3  C   LIG    1       23.377 -24.030   6.549  0.00  0.00    +0.216 A 
ATOM      4  N   LIG    1       24.386 -23.212   6.841  0.00  0.00    -0.180 NA
ATOM      5  C   LIG    1       25.582 -23.793   7.000  0.00  0.00    +0.221 A 
ATOM      6  C   LIG    1       25.815 -25.138   6.862  0.00  0.00    +0.095 A 
ENDROOT
BRANCH   1  10
ATOM      7  C   LIG    1       24.814 -30.160   5.921  0.00  0.00    -0.045 A 
ATOM      8  C   LIG    1       24.508 -29.302   4.856  0.00  0.00    +0.004 A 
ATOM      9  C   LIG    1       24.490 -27.915   5.040  0.00  0.00    +0.010 A 
ATOM     10  C   LIG    1       24.780 -27.350   6.293  0.00  0.00    +0.001 A 
ATOM     11  C   LIG    1       25.131 -28.226   7.336  0.00  0.00    +0.010 A 
ATOM     12  C   LIG    1       25.151 -29.609   7.158  0.00  0.00    +0.004 A 
BRANCH   7  13
ATOM     13  C   LIG    1       24.823 -31.656   5.730  0.00  0.00    +0.065 C 
BRANCH  13  14
ATOM     14  C   LIG    1       25.847 -32.125   4.689  0.00  0.00    +0.165 C 
BRANCH  14  15
ATOM     15  N   LIG    1       25.196 -32.715   3.492  0.00  0.00    -0.318 NA
ATOM     16  H   LIG    1       25.278 -33.730   3.535  0.00  0.00    +0.119 HD
ATOM     17  H   LIG    1       24.198 -32.509   3.542  0.00  0.00    +0.119 HD
ENDBRANCH  14  15
BRANCH  14  18
ATOM     18  C   LIG    1       26.782 -33.131   5.372  0.00  0.00    +0.324 C 
ATOM     19  O   LIG    1       27.778 -33.600   4.851  0.00  0.00    -0.249 OA
BRANCH  18  20
ATOM     20  O   LIG    1       26.364 -33.393   6.651  0.00  0.00    -0.464 OA
BRANCH  20  22
ATOM     21  C   LIG    1       27.029 -32.392   8.747  0.00  0.00    +0.048 C 
ATOM     22  C   LIG    1       27.398 -33.366   7.643  0.00  0.00    +0.229 C 
ENDBRANCH  20  22
ENDBRANCH  18  20
ENDBRANCH  14  18
ENDBRANCH  13  14
ENDBRANCH   7  13
ENDBRANCH   1  10
BRANCH   3  23
ATOM     23  N   LIG    1       22.138 -23.471   6.327  0.00  0.00    -0.327 N 
ATOM     24  H   LIG    1       22.244 -22.625   5.784  0.00  0.00    +0.145 HD
ATOM     25  H   LIG    1       21.629 -23.404   7.197  0.00  0.00    +0.145 HD
ENDBRANCH   3  23
BRANCH   5  26
ATOM     26  O   LIG    1       26.668 -22.997   7.313  0.00  0.00    -0.459 OA
BRANCH  26  27
ATOM     27  C   LIG    1       26.381 -21.569   7.192  0.00  0.00    +0.311 C 
BRANCH  27  28
ATOM     28  C   LIG    1       27.736 -20.845   7.054  0.00  0.00    +0.027 A 
ATOM     29  C   LIG    1       28.048 -19.918   6.022  0.00  0.00    +0.074 A 
ATOM     30  C   LIG    1       29.337 -19.347   5.957  0.00  0.00    +0.048 A 
ATOM     31  C   LIG    1       30.299 -19.660   6.915  0.00  0.00    +0.043 A 
ATOM     32 CL   LIG    1       31.851 -18.921   6.841  0.00  0.00    -0.084 Cl
ATOM     33  C   LIG    1       30.009 -20.551   7.938  0.00  0.00    +0.020 A 
ATOM     34  C   LIG    1       28.742 -21.135   8.006  0.00  0.00    +0.011 A 
BRANCH  29  35
ATOM     35  N   LIG    1       27.097 -19.495   5.047  0.00  0.00    -0.239 N 
ATOM     36  N   LIG    1       25.945 -20.172   4.843  0.00  0.00    -0.172 NA
ATOM     37  C   LIG    1       25.267 -19.453   3.941  0.00  0.00    +0.060 A 
ATOM     38  C   LIG    1       23.927 -19.890   3.478  0.00  0.00    +0.067 C 
ATOM     39  C   LIG    1       25.995 -18.322   3.523  0.00  0.00    +0.044 A 
ATOM     40  C   LIG    1       27.163 -18.375   4.243  0.00  0.00    +0.115 A 
ENDBRANCH  29  35
ENDBRANCH  27  28
BRANCH  27  41
ATOM     41  C   LIG    1       25.563 -21.047   8.405  0.00  0.00    +0.431 C 
ATOM     42  F   LIG    1       25.391 -21.983   9.366  0.00  0.00    -0.167 F 
ATOM     43  F   LIG    1       24.331 -20.598   8.053  0.00  0.00    -0.167 F 
ATOM     44  F   LIG    1       26.169 -19.983   9.003  0.00  0.00    -0.167 F 
ENDBRANCH  27  41
ENDBRANCH  26  27
ENDBRANCH   5  26
TORSDOF 13
ENDMDL
MODEL 7
REMARK VINA RESULT:      -7.6      2.373      3.489
REMARK  Name = *****
REMARK                            x       y       z     vdW  Elec       q    Type
REMARK                         _______ _______ _______ _____ _____    ______ ____
ROOT
ATOM      1  C   LIG    1       25.235 -29.421   7.415  0.00  0.00    +0.080 A 
ATOM      2  N   LIG    1       25.239 -30.424   6.509  0.00  0.00    -0.214 NA
ATOM      3  C   LIG    1       25.292 -31.673   6.963  0.00  0.00    +0.216 A 
ATOM      4  N   LIG    1       25.305 -32.013   8.250  0.00  0.00    -0.180 NA
ATOM      5  C   LIG    1       25.298 -30.998   9.123  0.00  0.00    +0.221 A 
ATOM      6  C   LIG    1       25.258 -29.673   8.769  0.00  0.00    +0.095 A 
ENDROOT
BRANCH   1  10
ATOM      7  C   LIG    1       25.059 -25.463   5.729  0.00  0.00    -0.045 A 
ATOM      8  C   LIG    1       24.184 -26.458   5.273  0.00  0.00    +0.004 A 
ATOM      9  C   LIG    1       24.216 -27.743   5.825  0.00  0.00    +0.010 A 
ATOM     10  C   LIG    1       25.123 -28.065   6.848  0.00  0.00    +0.001 A 
ATOM     11  C   LIG    1       25.959 -27.039   7.325  0.00  0.00    +0.010 A 
ATOM     12  C   LIG    1       25.930 -25.756   6.778  0.00  0.00    +0.004 A 
BRANCH   7  13
ATOM     13  C   LIG    1       25.035 -24.079   5.129  0.00  0.00    +0.065 C 
BRANCH  13  14
ATOM     14  C   LIG    1       24.472 -23.017   6.082  0.00  0.00    +0.165 C 
BRANCH  14  15
ATOM     15  N   LIG    1       23.063 -23.295   6.458  0.00  0.00    -0.318 NA
ATOM     16  H   LIG    1       22.647 -23.911   5.760  0.00  0.00    +0.119 HD
ATOM     17  H   LIG    1       23.067 -23.820   7.333  0.00  0.00    +0.119 HD
ENDBRANCH  14  15
BRANCH  14  18
ATOM     18  C   LIG    1       24.612 -21.652   5.397  0.00  0.00    +0.324 C 
ATOM     19  O   LIG    1       24.498 -21.474   4.198  0.00  0.00    -0.249 OA
BRANCH  18  20
ATOM     20  O   LIG    1       24.840 -20.666   6.322  0.00  0.00    -0.464 OA
BRANCH  20  22
ATOM     21  C   LIG    1       25.953 -20.612   8.466  0.00  0.00    +0.048 C 
ATOM     22  C   LIG    1       26.122 -20.721   6.961  0.00  0.00    +0.229 C 
ENDBRANCH  20  22
ENDBRANCH  18  20
ENDBRANCH  14  18
ENDBRANCH  13  14
ENDBRANCH   7  13
ENDBRANCH   1  10
BRANCH   3  23
ATOM     23  N   LIG    1       25.248 -32.686   6.029  0.00  0.00    -0.327 N 
ATOM     24  H   LIG    1       26.137 -33.169   6.018  0.00  0.00    +0.145 HD
ATOM     25  H   LIG    1       24.902 -32.329   5.151  0.00  0.00    +0.145 HD
ENDBRANCH   3  23
BRANCH   5  26
ATOM     26  O   LIG    1       25.319 -31.286  10.474  0.00  0.00    -0.459 OA
BRANCH  26  27
ATOM     27  C   LIG    1       23.989 -31.542  11.023  0.00  0.00    +0.311 C 
BRANCH  27  28
ATOM     28  C   LIG    1       23.538 -30.251  11.738  0.00  0.00    +0.027 A 
ATOM     29  C   LIG    1       22.182 -29.895  11.968  0.00  0.00    +0.074 A 
ATOM     30  C   LIG    1       21.874 -28.665  12.588  0.00  0.00    +0.048 A 
ATOM     31  C   LIG    1       22.891 -27.809  13.005  0.00  0.00    +0.043 A 
ATOM     32 CL   LIG    1       22.494 -26.333  13.796  0.00  0.00    -0.084 Cl
ATOM     33  C   LIG    1       24.221 -28.146  12.802  0.00  0.00    +0.020 A 
ATOM     34  C   LIG    1       24.540 -29.353  12.176  0.00  0.00    +0.011 A 
BRANCH  29  35
ATOM     35  N   LIG    1       21.088 -30.747  11.633  0.00  0.00    -0.239 N 
ATOM     36  N   LIG    1       20.545 -31.590  12.540  0.00  0.00    -0.172 NA
ATOM     37  C   LIG    1       19.503 -32.154  11.919  0.00  0.00    +0.060 A 
ATOM     38  C   LIG    1       18.646 -33.139  12.625  0.00  0.00    +0.067 C 
ATOM     39  C   LIG    1       19.386 -31.709  10.589  0.00  0.00    +0.044 A 
ATOM     40  C   LIG    1       20.414 -30.813  10.430  0.00  0.00    +0.115 A 
ENDBRANCH  29  35
ENDBRANCH  27  28
BRANCH  27  41
ATOM     41  C   LIG    1       23.992 -32.766  11.980  0.00  0.00    +0.431 C 
ATOM     42  F   LIG    1       23.922 -32.415  13.284  0.00  0.00    -0.167 F 
ATOM     43  F   LIG    1       25.094 -33.545  11.830  0.00  0.00    -0.167 F 
ATOM     44  F   LIG    1       22.938 -33.595  11.743  0.00  0.00    -0.167 F 
ENDBRANCH  27  41
ENDBRANCH  26  27
ENDBRANCH   5  26
TORSDOF 13
ENDMDL
MODEL 8
REMARK VINA RESULT:      -7.6      1.747      2.484
REMARK  Name = *****
REMARK                            x       y       z     vdW  Elec       q    Type
REMARK                         _______ _______ _______ _____ _____    ______ ____
ROOT
ATOM      1  C   LIG    1       25.292 -26.268   6.603  0.00  0.00    +0.080 A 
ATOM      2  N   LIG    1       24.492 -26.908   5.722  0.00  0.00    -0.214 NA
ATOM      3  C   LIG    1       24.420 -28.234   5.795  0.00  0.00    +0.216 A 
ATOM      4  N   LIG    1       25.053 -28.980   6.697  0.00  0.00    -0.180 NA
ATOM      5  C   LIG    1       25.836 -28.318   7.558  0.00  0.00    +0.221 A 
ATOM      6  C   LIG    1       25.997 -26.955   7.568  0.00  0.00    +0.095 A 
ENDROOT
BRANCH   1  10
ATOM      7  C   LIG    1       25.423 -21.972   6.353  0.00  0.00    -0.045 A 
ATOM      8  C   LIG    1       24.955 -22.723   5.267  0.00  0.00    +0.004 A 
ATOM      9  C   LIG    1       24.887 -24.118   5.341  0.00  0.00    +0.010 A 
ATOM     10  C   LIG    1       25.286 -24.798   6.504  0.00  0.00    +0.001 A 
ATOM     11  C   LIG    1       25.708 -24.023   7.599  0.00  0.00    +0.010 A 
ATOM     12  C   LIG    1       25.776 -22.632   7.530  0.00  0.00    +0.004 A 
BRANCH   7  13
ATOM     13  C   LIG    1       25.508 -20.468   6.273  0.00  0.00    +0.065 C 
BRANCH  13  14
ATOM     14  C   LIG    1       26.947 -19.948   6.174  0.00  0.00    +0.165 C 
BRANCH  14  15
ATOM     15  N   LIG    1       27.648 -20.470   4.975  0.00  0.00    -0.318 NA
ATOM     16  H   LIG    1       28.636 -20.228   5.034  0.00  0.00    +0.119 HD
ATOM     17  H   LIG    1       27.605 -21.490   5.002  0.00  0.00    +0.119 HD
ENDBRANCH  14  15
BRANCH  14  18
ATOM     18  C   LIG    1       27.677 -20.340   7.465  0.00  0.00    +0.324 C 
ATOM     19  O   LIG    1       27.277 -20.074   8.584  0.00  0.00    -0.249 OA
BRANCH  18  20
ATOM     20  O   LIG    1       28.809 -21.059   7.184  0.00  0.00    -0.464 OA
BRANCH  20  22
ATOM     21  C   LIG    1       30.608 -19.462   6.951  0.00  0.00    +0.048 C 
ATOM     22  C   LIG    1       30.007 -20.568   7.800  0.00  0.00    +0.229 C 
ENDBRANCH  20  22
ENDBRANCH  18  20
ENDBRANCH  14  18
ENDBRANCH  13  14
ENDBRANCH   7  13
ENDBRANCH   1  10
BRANCH   3  23
ATOM     23  N   LIG    1       23.565 -28.868   4.920  0.00  0.00    -0.327 N 
ATOM     24  H   LIG    1       22.756 -28.282   4.760  0.00  0.00    +0.145 HD
ATOM     25  H   LIG    1       23.400 -29.816   5.225  0.00  0.00    +0.145 HD
ENDBRANCH   3  23
BRANCH   5  26
ATOM     26  O   LIG    1       26.527 -29.038   8.514  0.00  0.00    -0.459 OA
BRANCH  26  27
ATOM     27  C   LIG    1       25.645 -29.750   9.437  0.00  0.00    +0.311 C 
BRANCH  27  28
ATOM     28  C   LIG    1       25.730 -29.024  10.795  0.00  0.00    +0.027 A 
ATOM     29  C   LIG    1       24.776 -29.164  11.839  0.00  0.00    +0.074 A 
ATOM     30  C   LIG    1       24.919 -28.415  13.027  0.00  0.00    +0.048 A 
ATOM     31  C   LIG    1       26.006 -27.561  13.198  0.00  0.00    +0.043 A 
ATOM     32 CL   LIG    1       26.184 -26.689  14.671  0.00  0.00    -0.084 Cl
ATOM     33  C   LIG    1       26.956 -27.422  12.197  0.00  0.00    +0.020 A 
ATOM     34  C   LIG    1       26.818 -28.146  11.010  0.00  0.00    +0.011 A 
BRANCH  29  35
ATOM     35  N   LIG    1       23.675 -30.068  11.768  0.00  0.00    -0.239 N 
ATOM     36  N   LIG    1       22.545 -29.754  11.095  0.00  0.00    -0.172 NA
ATOM     37  C   LIG    1       21.779 -30.850  11.158  0.00  0.00    +0.060 A 
ATOM     38  C   LIG    1       20.447 -30.879  10.505  0.00  0.00    +0.067 C 
ATOM     39  C   LIG    1       22.393 -31.871  11.907  0.00  0.00    +0.044 A 
ATOM     40  C   LIG    1       23.602 -31.344  12.289  0.00  0.00    +0.115 A 
ENDBRANCH  29  35
ENDBRANCH  27  28
BRANCH  27  41
ATOM     41  C   LIG    1       26.034 -31.250   9.554  0.00  0.00    +0.431 C 
ATOM     42  F   LIG    1       24.999 -32.083   9.304  0.00  0.00    -0.167 F 
ATOM     43  F   LIG    1       26.524 -31.571  10.780  0.00  0.00    -0.167 F 
ATOM     44  F   LIG    1       27.023 -31.585   8.679  0.00  0.00    -0.167 F 
ENDBRANCH  27  41
ENDBRANCH  26  27
ENDBRANCH   5  26
TORSDOF 13
ENDMDL
MODEL 9
REMARK VINA RESULT:      -7.5      1.393      2.036
REMARK  Name = *****
REMARK                            x       y       z     vdW  Elec       q    Type
REMARK                         _______ _______ _______ _____ _____    ______ ____
ROOT
ATOM      1  C   LIG    1       24.853 -26.233   6.522  0.00  0.00    +0.080 A 
ATOM      2  N   LIG    1       24.244 -26.992   5.584  0.00  0.00    -0.214 NA
ATOM      3  C   LIG    1       24.463 -28.304   5.607  0.00  0.00    +0.216 A 
ATOM      4  N   LIG    1       25.213 -28.933   6.510  0.00  0.00    -0.180 NA
ATOM      5  C   LIG    1       25.800 -28.154   7.426  0.00  0.00    +0.221 A 
ATOM      6  C   LIG    1       25.657 -26.791   7.492  0.00  0.00    +0.095 A 
ENDROOT
BRANCH   1  10
ATOM      7  C   LIG    1       23.845 -22.046   6.525  0.00  0.00    -0.045 A 
ATOM      8  C   LIG    1       25.145 -22.454   6.198  0.00  0.00    +0.004 A 
ATOM      9  C   LIG    1       25.482 -23.811   6.173  0.00  0.00    +0.010 A 
ATOM     10  C   LIG    1       24.527 -24.797   6.474  0.00  0.00    +0.001 A 
ATOM     11  C   LIG    1       23.216 -24.369   6.753  0.00  0.00    +0.010 A 
ATOM     12  C   LIG    1       22.875 -23.017   6.778  0.00  0.00    +0.004 A 
BRANCH   7  13
ATOM     13  C   LIG    1       23.480 -20.583   6.564  0.00  0.00    +0.065 C 
BRANCH  13  14
ATOM     14  C   LIG    1       22.460 -20.187   5.490  0.00  0.00    +0.165 C 
BRANCH  14  15
ATOM     15  N   LIG    1       21.975 -21.360   4.721  0.00  0.00    -0.318 NA
ATOM     16  H   LIG    1       21.928 -22.168   5.340  0.00  0.00    +0.119 HD
ATOM     17  H   LIG    1       21.015 -21.172   4.429  0.00  0.00    +0.119 HD
ENDBRANCH  14  15
BRANCH  14  18
ATOM     18  C   LIG    1       23.122 -19.151   4.573  0.00  0.00    +0.324 C 
ATOM     19  O   LIG    1       22.514 -18.284   3.971  0.00  0.00    -0.249 OA
BRANCH  18  20
ATOM     20  O   LIG    1       24.483 -19.312   4.561  0.00  0.00    -0.464 OA
BRANCH  20  22
ATOM     21  C   LIG    1       25.857 -17.784   3.290  0.00  0.00    +0.048 C 
ATOM     22  C   LIG    1       25.106 -19.103   3.286  0.00  0.00    +0.229 C 
ENDBRANCH  20  22
ENDBRANCH  18  20
ENDBRANCH  14  18
ENDBRANCH  13  14
ENDBRANCH   7  13
ENDBRANCH   1  10
BRANCH   3  23
ATOM     23  N   LIG    1       23.799 -29.070   4.674  0.00  0.00    -0.327 N 
ATOM     24  H   LIG    1       23.479 -29.925   5.109  0.00  0.00    +0.145 HD
ATOM     25  H   LIG    1       24.358 -29.156   3.838  0.00  0.00    +0.145 HD
ENDBRANCH   3  23
BRANCH   5  26
ATOM     26  O   LIG    1       26.599 -28.748   8.386  0.00  0.00    -0.459 OA
BRANCH  26  27
ATOM     27  C   LIG    1       25.849 -29.615   9.293  0.00  0.00    +0.311 C 
BRANCH  27  28
ATOM     28  C   LIG    1       25.843 -28.929  10.674  0.00  0.00    +0.027 A 
ATOM     29  C   LIG    1       24.896 -29.201  11.699  0.00  0.00    +0.074 A 
ATOM     30  C   LIG    1       24.947 -28.480  12.912  0.00  0.00    +0.048 A 
ATOM     31  C   LIG    1       25.938 -27.525  13.126  0.00  0.00    +0.043 A 
ATOM     32 CL   LIG    1       26.007 -26.687  14.627  0.00  0.00    -0.084 Cl
ATOM     33  C   LIG    1       26.880 -27.256  12.143  0.00  0.00    +0.020 A 
ATOM     34  C   LIG    1       26.832 -27.951  10.932  0.00  0.00    +0.011 A 
BRANCH  29  35
ATOM     35  N   LIG    1       23.895 -30.210  11.582  0.00  0.00    -0.239 N 
ATOM     36  N   LIG    1       24.022 -31.406  12.202  0.00  0.00    -0.172 NA
ATOM     37  C   LIG    1       22.879 -32.055  11.955  0.00  0.00    +0.060 A 
ATOM     38  C   LIG    1       22.650 -33.417  12.499  0.00  0.00    +0.067 C 
ATOM     39  C   LIG    1       22.016 -31.299  11.138  0.00  0.00    +0.044 A 
ATOM     40  C   LIG    1       22.692 -30.126  10.911  0.00  0.00    +0.115 A 
ENDBRANCH  29  35
ENDBRANCH  27  28
BRANCH  27  41
ATOM     41  C   LIG    1       26.463 -31.041   9.354  0.00  0.00    +0.431 C 
ATOM     42  F   LIG    1       25.532 -32.009   9.507  0.00  0.00    -0.167 F 
ATOM     43  F   LIG    1       27.361 -31.182  10.364  0.00  0.00    -0.167 F 
ATOM     44  F   LIG    1       27.156 -31.343   8.221  0.00  0.00    -0.167 F 
ENDBRANCH  27  41
ENDBRANCH  26  27
ENDBRANCH   5  26
TORSDOF 13
ENDMDL
