MODEL 1
REMARK VINA RESULT:      -8.7      0.000      0.000
REMARK  Name = *****
REMARK                            x       y       z     vdW  Elec       q    Type
REMARK                         _______ _______ _______ _____ _____    ______ ____
ROOT
ATOM      1  C   LIG    1       29.003 -19.850   7.298  0.00  0.00    +0.038 A 
ATOM      2  C   LIG    1       27.670 -20.300   7.412  0.00  0.00    +0.048 A 
ATOM      3  C   LIG    1       26.746 -20.219   6.335  0.00  0.00    +0.057 A 
ATOM      4  N   LIG    1       25.446 -20.851   6.452  0.00  0.00    -0.238 N 
ATOM      5  C   LIG    1       24.337 -20.350   5.654  0.00  0.00    +0.055 A 
ATOM      6  C   LIG    1       24.523 -19.544   4.514  0.00  0.00    +0.035 A 
ATOM      7  S   LIG    1       26.107 -19.153   3.832  0.00  0.00    -0.086 S 
ATOM      8  C   LIG    1       23.426 -19.102   3.746  0.00  0.00    +0.017 A 
ATOM      9  C   LIG    1       22.127 -19.472   4.066  0.00  0.00    +0.001 A 
ATOM     10  C   LIG    1       21.916 -20.282   5.168  0.00  0.00    +0.002 A 
ATOM     11  C   LIG    1       23.002 -20.701   5.950  0.00  0.00    +0.025 A 
ATOM     12  C   LIG    1       25.288 -22.043   7.206  0.00  0.00    +0.225 C 
ATOM     13  O   LIG    1       24.289 -22.354   7.856  0.00  0.00    -0.275 OA
ATOM     14  C   LIG    1       27.155 -19.516   5.199  0.00  0.00    +0.035 A 
ATOM     15  C   LIG    1       28.484 -19.084   5.077  0.00  0.00    +0.019 A 
ATOM     16  C   LIG    1       29.404 -19.275   6.102  0.00  0.00    +0.024 A 
ENDROOT
BRANCH   1  18
ATOM     17  C   LIG    1       31.233 -19.819   8.392  0.00  0.00    +0.405 C 
ATOM     18  N   LIG    1       29.886 -20.085   8.368  0.00  0.00    -0.251 N 
ATOM     19  H   LIG    1       29.538 -20.533   9.202  0.00  0.00    +0.158 HD
ATOM     20  O   LIG    1       31.860 -19.120   7.629  0.00  0.00    -0.226 OA
BRANCH  17  21
ATOM     21  O   LIG    1       31.797 -20.510   9.437  0.00  0.00    -0.450 OA
BRANCH  21  23
ATOM     22  C   LIG    1       31.821 -22.801   8.558  0.00  0.00    +0.048 C 
ATOM     23  C   LIG    1       31.289 -21.845   9.617  0.00  0.00    +0.230 C 
ENDBRANCH  21  23
ENDBRANCH  17  21
ENDBRANCH   1  18
BRANCH  12  24
ATOM     24  C   LIG    1       26.389 -23.082   6.980  0.00  0.00    +0.112 C 
BRANCH  24  25
ATOM     25  C   LIG    1       25.841 -24.514   7.045  0.00  0.00    +0.093 C 
BRANCH  25  26
ATOM     26  N   LIG    1       26.233 -25.320   5.870  0.00  0.00    -0.297 NA
ATOM     27  C   LIG    1       26.597 -26.706   6.263  0.00  0.00    +0.112 C 
ATOM     28  C   LIG    1       25.396 -27.578   6.670  0.00  0.00    +0.175 C 
ATOM     29  O   LIG    1       24.405 -27.619   5.637  0.00  0.00    -0.377 OA
ATOM     30  C   LIG    1       23.974 -26.300   5.287  0.00  0.00    +0.175 C 
ATOM     31  C   LIG    1       25.160 -25.422   4.854  0.00  0.00    +0.112 C 
ENDBRANCH  25  26
ENDBRANCH  24  25
ENDBRANCH  12  24
TORSDOF 6
ENDMDL
MODEL 2
REMARK VINA RESULT:      -8.6      1.565      2.131
REMARK  Name = *****
REMARK                            x       y       z     vdW  Elec       q    Type
REMARK                         _______ _______ _______ _____ _____    ______ ____
ROOT
ATOM      1  C   LIG    1       29.232 -19.382   7.639  0.00  0.00    +0.038 A 
ATOM      2  C   LIG    1       27.904 -19.824   7.822  0.00  0.00    +0.048 A 
ATOM      3  C   LIG    1       27.013 -20.027   6.733  0.00  0.00    +0.057 A 
ATOM      4  N   LIG    1       25.722 -20.646   6.964  0.00  0.00    -0.238 N 
ATOM      5  C   LIG    1       24.630 -20.377   6.040  0.00  0.00    +0.055 A 
ATOM      6  C   LIG    1       24.837 -19.863   4.746  0.00  0.00    +0.035 A 
ATOM      7  S   LIG    1       26.435 -19.607   4.031  0.00  0.00    -0.086 S 
ATOM      8  C   LIG    1       23.757 -19.645   3.866  0.00  0.00    +0.017 A 
ATOM      9  C   LIG    1       22.456 -19.960   4.231  0.00  0.00    +0.001 A 
ATOM     10  C   LIG    1       22.225 -20.489   5.488  0.00  0.00    +0.002 A 
ATOM     11  C   LIG    1       23.292 -20.681   6.377  0.00  0.00    +0.025 A 
ATOM     12  C   LIG    1       25.562 -21.625   7.978  0.00  0.00    +0.225 C 
ATOM     13  O   LIG    1       24.549 -21.797   8.657  0.00  0.00    -0.275 OA
ATOM     14  C   LIG    1       27.445 -19.606   5.473  0.00  0.00    +0.035 A 
ATOM     15  C   LIG    1       28.769 -19.182   5.286  0.00  0.00    +0.019 A 
ATOM     16  C   LIG    1       29.660 -19.100   6.351  0.00  0.00    +0.024 A 
ENDROOT
BRANCH   1  18
ATOM     17  C   LIG    1       30.449 -18.208   9.459  0.00  0.00    +0.405 C 
ATOM     18  N   LIG    1       30.085 -19.331   8.757  0.00  0.00    -0.251 N 
ATOM     19  H   LIG    1       30.526 -20.179   9.076  0.00  0.00    +0.158 HD
ATOM     20  O   LIG    1       29.930 -17.117   9.424  0.00  0.00    -0.226 OA
BRANCH  17  21
ATOM     21  O   LIG    1       31.550 -18.508  10.222  0.00  0.00    -0.450 OA
BRANCH  21  23
ATOM     22  C   LIG    1       31.878 -16.938  12.080  0.00  0.00    +0.048 C 
ATOM     23  C   LIG    1       32.295 -17.363  10.679  0.00  0.00    +0.230 C 
ENDBRANCH  21  23
ENDBRANCH  17  21
ENDBRANCH   1  18
BRANCH  12  24
ATOM     24  C   LIG    1       26.688 -22.661   8.036  0.00  0.00    +0.112 C 
BRANCH  24  25
ATOM     25  C   LIG    1       26.595 -23.668   6.882  0.00  0.00    +0.093 C 
BRANCH  25  26
ATOM     26  N   LIG    1       25.498 -24.640   7.072  0.00  0.00    -0.297 NA
ATOM     27  C   LIG    1       24.481 -24.525   5.996  0.00  0.00    +0.112 C 
ATOM     28  C   LIG    1       24.947 -25.065   4.632  0.00  0.00    +0.175 C 
ATOM     29  O   LIG    1       25.386 -26.425   4.731  0.00  0.00    -0.377 OA
ATOM     30  C   LIG    1       26.424 -26.559   5.708  0.00  0.00    +0.175 C 
ATOM     31  C   LIG    1       25.965 -26.045   7.083  0.00  0.00    +0.112 C 
ENDBRANCH  25  26
ENDBRANCH  24  25
ENDBRANCH  12  24
TORSDOF 6
ENDMDL
MODEL 3
REMARK VINA RESULT:      -7.7      1.809      6.565
REMARK  Name = *****
REMARK                            x       y       z     vdW  Elec       q    Type
REMARK                         _______ _______ _______ _____ _____    ______ ____
ROOT
ATOM      1  C   LIG    1       24.979 -24.472   6.591  0.00  0.00    +0.038 A 
ATOM      2  C   LIG    1       25.620 -23.331   6.062  0.00  0.00    +0.048 A 
ATOM      3  C   LIG    1       24.936 -22.102   5.858  0.00  0.00    +0.057 A 
ATOM      4  N   LIG    1       25.681 -20.918   5.477  0.00  0.00    -0.238 N 
ATOM      5  C   LIG    1       25.000 -19.849   4.761  0.00  0.00    +0.055 A 
ATOM      6  C   LIG    1       23.599 -19.721   4.738  0.00  0.00    +0.035 A 
ATOM      7  S   LIG    1       22.500 -20.744   5.675  0.00  0.00    -0.086 S 
ATOM      8  C   LIG    1       22.974 -18.655   4.059  0.00  0.00    +0.017 A 
ATOM      9  C   LIG    1       23.719 -17.675   3.416  0.00  0.00    +0.001 A 
ATOM     10  C   LIG    1       25.099 -17.763   3.442  0.00  0.00    +0.002 A 
ATOM     11  C   LIG    1       25.723 -18.837   4.092  0.00  0.00    +0.025 A 
ATOM     12  C   LIG    1       27.010 -20.723   5.933  0.00  0.00    +0.225 C 
ATOM     13  O   LIG    1       27.911 -20.165   5.305  0.00  0.00    -0.275 OA
ATOM     14  C   LIG    1       23.551 -22.108   6.041  0.00  0.00    +0.035 A 
ATOM     15  C   LIG    1       22.915 -23.235   6.582  0.00  0.00    +0.019 A 
ATOM     16  C   LIG    1       23.626 -24.393   6.881  0.00  0.00    +0.024 A 
ENDROOT
BRANCH   1  18
ATOM     17  C   LIG    1       26.164 -26.571   5.990  0.00  0.00    +0.405 C 
ATOM     18  N   LIG    1       25.758 -25.608   6.880  0.00  0.00    -0.251 N 
ATOM     19  H   LIG    1       26.027 -25.788   7.835  0.00  0.00    +0.158 HD
ATOM     20  O   LIG    1       26.157 -26.508   4.782  0.00  0.00    -0.226 OA
BRANCH  17  21
ATOM     21  O   LIG    1       26.576 -27.674   6.696  0.00  0.00    -0.450 OA
BRANCH  21  23
ATOM     22  C   LIG    1       24.493 -28.972   6.669  0.00  0.00    +0.048 C 
ATOM     23  C   LIG    1       25.555 -28.280   7.512  0.00  0.00    +0.230 C 
ENDBRANCH  21  23
ENDBRANCH  17  21
ENDBRANCH   1  18
BRANCH  12  24
ATOM     24  C   LIG    1       27.223 -21.057   7.412  0.00  0.00    +0.112 C 
BRANCH  24  25
ATOM     25  C   LIG    1       28.425 -20.304   7.998  0.00  0.00    +0.093 C 
BRANCH  25  26
ATOM     26  N   LIG    1       29.710 -20.772   7.437  0.00  0.00    -0.297 NA
ATOM     27  C   LIG    1       30.594 -19.632   7.085  0.00  0.00    +0.112 C 
ATOM     28  C   LIG    1       31.198 -18.908   8.302  0.00  0.00    +0.175 C 
ATOM     29  O   LIG    1       31.907 -19.818   9.152  0.00  0.00    -0.377 OA
ATOM     30  C   LIG    1       31.059 -20.892   9.574  0.00  0.00    +0.175 C 
ATOM     31  C   LIG    1       30.466 -21.640   8.368  0.00  0.00    +0.112 C 
ENDBRANCH  25  26
ENDBRANCH  24  25
ENDBRANCH  12  24
TORSDOF 6
ENDMDL
MODEL 4
REMARK VINA RESULT:      -7.3      4.975      9.362
REMARK  Name = *****
REMARK                            x       y       z     vdW  Elec       q    Type
REMARK                         _______ _______ _______ _____ _____    ______ ____
ROOT
ATOM      1  C   LIG    1       25.434 -26.622   6.086  0.00  0.00    +0.038 A 
ATOM      2  C   LIG    1       24.978 -27.553   7.044  0.00  0.00    +0.048 A 
ATOM      3  C   LIG    1       24.977 -28.954   6.803  0.00  0.00    +0.057 A 
ATOM      4  N   LIG    1       24.662 -29.871   7.881  0.00  0.00    -0.238 N 
ATOM      5  C   LIG    1       24.136 -31.190   7.562  0.00  0.00    +0.055 A 
ATOM      6  C   LIG    1       24.260 -31.770   6.286  0.00  0.00    +0.035 A 
ATOM      7  S   LIG    1       25.176 -31.043   4.958  0.00  0.00    -0.086 S 
ATOM      8  C   LIG    1       23.766 -33.063   6.020  0.00  0.00    +0.017 A 
ATOM      9  C   LIG    1       23.169 -33.824   7.016  0.00  0.00    +0.001 A 
ATOM     10  C   LIG    1       23.054 -33.289   8.286  0.00  0.00    +0.002 A 
ATOM     11  C   LIG    1       23.519 -31.992   8.547  0.00  0.00    +0.025 A 
ATOM     12  C   LIG    1       25.010 -29.557   9.221  0.00  0.00    +0.225 C 
ATOM     13  O   LIG    1       24.366 -29.871  10.222  0.00  0.00    -0.275 OA
ATOM     14  C   LIG    1       25.288 -29.375   5.508  0.00  0.00    +0.035 A 
ATOM     15  C   LIG    1       25.758 -28.454   4.560  0.00  0.00    +0.019 A 
ATOM     16  C   LIG    1       25.858 -27.098   4.856  0.00  0.00    +0.024 A 
ENDROOT
BRANCH   1  18
ATOM     17  C   LIG    1       24.479 -24.378   6.558  0.00  0.00    +0.405 C 
ATOM     18  N   LIG    1       25.521 -25.267   6.454  0.00  0.00    -0.251 N 
ATOM     19  H   LIG    1       26.428 -24.861   6.622  0.00  0.00    +0.158 HD
ATOM     20  O   LIG    1       23.297 -24.631   6.608  0.00  0.00    -0.226 OA
BRANCH  17  21
ATOM     21  O   LIG    1       24.991 -23.104   6.575  0.00  0.00    -0.450 OA
BRANCH  21  23
ATOM     22  C   LIG    1       25.974 -21.798   8.406  0.00  0.00    +0.048 C 
ATOM     23  C   LIG    1       26.154 -22.934   7.407  0.00  0.00    +0.230 C 
ENDBRANCH  21  23
ENDBRANCH  17  21
ENDBRANCH   1  18
BRANCH  12  24
ATOM     24  C   LIG    1       26.416 -28.974   9.386  0.00  0.00    +0.112 C 
BRANCH  24  25
ATOM     25  C   LIG    1       27.222 -29.725  10.454  0.00  0.00    +0.093 C 
BRANCH  25  26
ATOM     26  N   LIG    1       27.971 -28.811  11.340  0.00  0.00    -0.297 NA
ATOM     27  C   LIG    1       27.129 -27.665  11.770  0.00  0.00    +0.112 C 
ATOM     28  C   LIG    1       26.042 -28.035  12.795  0.00  0.00    +0.175 C 
ATOM     29  O   LIG    1       26.605 -28.673  13.948  0.00  0.00    -0.377 OA
ATOM     30  C   LIG    1       27.361 -29.830  13.574  0.00  0.00    +0.175 C 
ATOM     31  C   LIG    1       28.468 -29.473  12.568  0.00  0.00    +0.112 C 
ENDBRANCH  25  26
ENDBRANCH  24  25
ENDBRANCH  12  24
TORSDOF 6
ENDMDL
MODEL 5
REMARK VINA RESULT:      -6.4      5.463     10.006
REMARK  Name = *****
REMARK                            x       y       z     vdW  Elec       q    Type
REMARK                         _______ _______ _______ _____ _____    ______ ____
ROOT
ATOM      1  C   LIG    1       25.190 -29.892  10.281  0.00  0.00    +0.038 A 
ATOM      2  C   LIG    1       25.539 -29.877   8.913  0.00  0.00    +0.048 A 
ATOM      3  C   LIG    1       24.897 -30.708   7.956  0.00  0.00    +0.057 A 
ATOM      4  N   LIG    1       25.174 -30.528   6.544  0.00  0.00    -0.238 N 
ATOM      5  C   LIG    1       24.983 -31.648   5.634  0.00  0.00    +0.055 A 
ATOM      6  C   LIG    1       24.202 -32.772   5.963  0.00  0.00    +0.035 A 
ATOM      7  S   LIG    1       23.252 -32.910   7.449  0.00  0.00    -0.086 S 
ATOM      8  C   LIG    1       24.012 -33.824   5.044  0.00  0.00    +0.017 A 
ATOM      9  C   LIG    1       24.562 -33.775   3.770  0.00  0.00    +0.001 A 
ATOM     10  C   LIG    1       25.315 -32.672   3.411  0.00  0.00    +0.002 A 
ATOM     11  C   LIG    1       25.529 -31.636   4.331  0.00  0.00    +0.025 A 
ATOM     12  C   LIG    1       25.470 -29.242   6.025  0.00  0.00    +0.225 C 
ATOM     13  O   LIG    1       26.240 -29.003   5.093  0.00  0.00    -0.275 OA
ATOM     14  C   LIG    1       24.015 -31.675   8.445  0.00  0.00    +0.035 A 
ATOM     15  C   LIG    1       23.654 -31.680   9.800  0.00  0.00    +0.019 A 
ATOM     16  C   LIG    1       24.212 -30.780  10.701  0.00  0.00    +0.024 A 
ENDROOT
BRANCH   1  18
ATOM     17  C   LIG    1       26.968 -29.092  11.821  0.00  0.00    +0.405 C 
ATOM     18  N   LIG    1       25.785 -28.947  11.137  0.00  0.00    -0.251 N 
ATOM     19  H   LIG    1       25.302 -28.083  11.326  0.00  0.00    +0.158 HD
ATOM     20  O   LIG    1       27.831 -29.917  11.633  0.00  0.00    -0.226 OA
BRANCH  17  21
ATOM     21  O   LIG    1       27.021 -28.139  12.808  0.00  0.00    -0.450 OA
BRANCH  21  23
ATOM     22  C   LIG    1       26.941 -25.713  13.171  0.00  0.00    +0.048 C 
ATOM     23  C   LIG    1       26.300 -26.927  12.513  0.00  0.00    +0.230 C 
ENDBRANCH  21  23
ENDBRANCH  17  21
ENDBRANCH   1  18
BRANCH  12  24
ATOM     24  C   LIG    1       24.567 -28.125   6.557  0.00  0.00    +0.112 C 
BRANCH  24  25
ATOM     25  C   LIG    1       25.374 -26.878   6.944  0.00  0.00    +0.093 C 
BRANCH  25  26
ATOM     26  N   LIG    1       25.401 -25.869   5.865  0.00  0.00    -0.297 NA
ATOM     27  C   LIG    1       24.035 -25.378   5.550  0.00  0.00    +0.112 C 
ATOM     28  C   LIG    1       23.436 -24.455   6.626  0.00  0.00    +0.175 C 
ATOM     29  O   LIG    1       24.294 -23.339   6.894  0.00  0.00    -0.377 OA
ATOM     30  C   LIG    1       25.602 -23.779   7.277  0.00  0.00    +0.175 C 
ATOM     31  C   LIG    1       26.224 -24.684   6.201  0.00  0.00    +0.112 C 
ENDBRANCH  25  26
ENDBRANCH  24  25
ENDBRANCH  12  24
TORSDOF 6
ENDMDL
MODEL 6
REMARK VINA RESULT:      -6.2      5.961     10.542
REMARK  Name = *****
REMARK                            x       y       z     vdW  Elec       q    Type
REMARK                         _______ _______ _______ _____ _____    ______ ____
ROOT
ATOM      1  C   LIG    1       25.167 -29.127   6.042  0.00  0.00    +0.038 A 
ATOM      2  C   LIG    1       24.600 -29.255   7.329  0.00  0.00    +0.048 A 
ATOM      3  C   LIG    1       24.164 -30.505   7.846  0.00  0.00    +0.057 A 
ATOM      4  N   LIG    1       23.752 -30.607   9.233  0.00  0.00    -0.238 N 
ATOM      5  C   LIG    1       22.830 -31.663   9.625  0.00  0.00    +0.055 A 
ATOM      6  C   LIG    1       22.602 -32.806   8.836  0.00  0.00    +0.035 A 
ATOM      7  S   LIG    1       23.494 -33.173   7.353  0.00  0.00    -0.086 S 
ATOM      8  C   LIG    1       21.725 -33.825   9.262  0.00  0.00    +0.017 A 
ATOM      9  C   LIG    1       21.080 -33.752  10.489  0.00  0.00    +0.001 A 
ATOM     10  C   LIG    1       21.302 -32.651  11.295  0.00  0.00    +0.002 A 
ATOM     11  C   LIG    1       22.152 -31.623  10.863  0.00  0.00    +0.025 A 
ATOM     12  C   LIG    1       24.358 -29.797  10.228  0.00  0.00    +0.225 C 
ATOM     13  O   LIG    1       23.797 -29.346  11.227  0.00  0.00    -0.275 OA
ATOM     14  C   LIG    1       24.157 -31.589   6.965  0.00  0.00    +0.035 A 
ATOM     15  C   LIG    1       24.734 -31.468   5.692  0.00  0.00    +0.019 A 
ATOM     16  C   LIG    1       25.260 -30.260   5.248  0.00  0.00    +0.024 A 
ENDROOT
BRANCH   1  18
ATOM     17  C   LIG    1       26.085 -26.864   6.497  0.00  0.00    +0.405 C 
ATOM     18  N   LIG    1       25.690 -27.878   5.659  0.00  0.00    -0.251 N 
ATOM     19  H   LIG    1       25.755 -27.653   4.679  0.00  0.00    +0.158 HD
ATOM     20  O   LIG    1       26.299 -26.931   7.685  0.00  0.00    -0.226 OA
BRANCH  17  21
ATOM     21  O   LIG    1       26.183 -25.706   5.765  0.00  0.00    -0.450 OA
BRANCH  21  23
ATOM     22  C   LIG    1       24.255 -24.371   6.490  0.00  0.00    +0.048 C 
ATOM     23  C   LIG    1       25.770 -24.517   6.465  0.00  0.00    +0.230 C 
ENDBRANCH  21  23
ENDBRANCH  17  21
ENDBRANCH   1  18
BRANCH  12  24
ATOM     24  C   LIG    1       25.881 -29.692  10.111  0.00  0.00    +0.112 C 
BRANCH  24  25
ATOM     25  C   LIG    1       26.578 -30.037  11.433  0.00  0.00    +0.093 C 
BRANCH  25  26
ATOM     26  N   LIG    1       27.624 -29.057  11.791  0.00  0.00    -0.297 NA
ATOM     27  C   LIG    1       27.104 -27.667  11.736  0.00  0.00    +0.112 C 
ATOM     28  C   LIG    1       26.144 -27.311  12.885  0.00  0.00    +0.175 C 
ATOM     29  O   LIG    1       26.748 -27.545  14.163  0.00  0.00    -0.377 OA
ATOM     30  C   LIG    1       27.193 -28.901  14.279  0.00  0.00    +0.175 C 
ATOM     31  C   LIG    1       28.173 -29.265  13.151  0.00  0.00    +0.112 C 
ENDBRANCH  25  26
ENDBRANCH  24  25
ENDBRANCH  12  24
TORSDOF 6
ENDMDL
MODEL 7
REMARK VINA RESULT:      -6.2      8.905     11.852
REMARK  Name = *****
REMARK                            x       y       z     vdW  Elec       q    Type
REMARK                         _______ _______ _______ _____ _____    ______ ____
ROOT
ATOM      1  C   LIG    1       23.219 -31.152  11.390  0.00  0.00    +0.038 A 
ATOM      2  C   LIG    1       22.794 -29.855  11.748  0.00  0.00    +0.048 A 
ATOM      3  C   LIG    1       21.739 -29.629  12.673  0.00  0.00    +0.057 A 
ATOM      4  N   LIG    1       21.461 -28.283  13.135  0.00  0.00    -0.238 N 
ATOM      5  C   LIG    1       20.125 -27.957  13.613  0.00  0.00    +0.055 A 
ATOM      6  C   LIG    1       19.196 -28.939  14.003  0.00  0.00    +0.035 A 
ATOM      7  S   LIG    1       19.567 -30.666  14.094  0.00  0.00    -0.086 S 
ATOM      8  C   LIG    1       17.921 -28.586  14.491  0.00  0.00    +0.017 A 
ATOM      9  C   LIG    1       17.549 -27.256  14.635  0.00  0.00    +0.001 A 
ATOM     10  C   LIG    1       18.450 -26.269  14.280  0.00  0.00    +0.002 A 
ATOM     11  C   LIG    1       19.709 -26.616  13.769  0.00  0.00    +0.025 A 
ATOM     12  C   LIG    1       22.509 -27.337  13.276  0.00  0.00    +0.225 C 
ATOM     13  O   LIG    1       22.412 -26.124  13.084  0.00  0.00    -0.275 OA
ATOM     14  C   LIG    1       21.013 -30.747  13.093  0.00  0.00    +0.035 A 
ATOM     15  C   LIG    1       21.443 -32.037  12.752  0.00  0.00    +0.019 A 
ATOM     16  C   LIG    1       22.551 -32.238  11.935  0.00  0.00    +0.024 A 
ENDROOT
BRANCH   1  18
ATOM     17  C   LIG    1       25.663 -31.326  10.980  0.00  0.00    +0.405 C 
ATOM     18  N   LIG    1       24.353 -31.285  10.568  0.00  0.00    -0.251 N 
ATOM     19  H   LIG    1       24.234 -31.312   9.567  0.00  0.00    +0.158 HD
ATOM     20  O   LIG    1       26.077 -31.511  12.101  0.00  0.00    -0.226 OA
BRANCH  17  21
ATOM     21  O   LIG    1       26.470 -31.093   9.893  0.00  0.00    -0.450 OA
BRANCH  21  23
ATOM     22  C   LIG    1       26.640 -28.653   9.694  0.00  0.00    +0.048 C 
ATOM     23  C   LIG    1       27.348 -29.959  10.029  0.00  0.00    +0.230 C 
ENDBRANCH  21  23
ENDBRANCH  17  21
ENDBRANCH   1  18
BRANCH  12  24
ATOM     24  C   LIG    1       23.776 -27.894  13.930  0.00  0.00    +0.112 C 
BRANCH  24  25
ATOM     25  C   LIG    1       24.994 -26.999  13.665  0.00  0.00    +0.093 C 
BRANCH  25  26
ATOM     26  N   LIG    1       25.621 -26.518  14.914  0.00  0.00    -0.297 NA
ATOM     27  C   LIG    1       27.083 -26.319  14.742  0.00  0.00    +0.112 C 
ATOM     28  C   LIG    1       27.452 -25.093  13.888  0.00  0.00    +0.175 C 
ATOM     29  O   LIG    1       26.865 -23.895  14.411  0.00  0.00    -0.377 OA
ATOM     30  C   LIG    1       25.444 -24.026  14.517  0.00  0.00    +0.175 C 
ATOM     31  C   LIG    1       25.058 -25.233  15.388  0.00  0.00    +0.112 C 
ENDBRANCH  25  26
ENDBRANCH  24  25
ENDBRANCH  12  24
TORSDOF 6
ENDMDL
MODEL 8
REMARK VINA RESULT:      -6.2      8.734      9.988
REMARK  Name = *****
REMARK                            x       y       z     vdW  Elec       q    Type
REMARK                         _______ _______ _______ _____ _____    ______ ____
ROOT
ATOM      1  C   LIG    1       27.166 -28.416  12.455  0.00  0.00    +0.038 A 
ATOM      2  C   LIG    1       26.046 -29.235  12.197  0.00  0.00    +0.048 A 
ATOM      3  C   LIG    1       24.712 -28.776  12.374  0.00  0.00    +0.057 A 
ATOM      4  N   LIG    1       23.603 -29.598  11.930  0.00  0.00    -0.238 N 
ATOM      5  C   LIG    1       22.300 -29.432  12.558  0.00  0.00    +0.055 A 
ATOM      6  C   LIG    1       21.952 -28.287  13.298  0.00  0.00    +0.035 A 
ATOM      7  S   LIG    1       22.986 -26.859  13.447  0.00  0.00    -0.086 S 
ATOM      8  C   LIG    1       20.669 -28.145  13.865  0.00  0.00    +0.017 A 
ATOM      9  C   LIG    1       19.693 -29.116  13.687  0.00  0.00    +0.001 A 
ATOM     10  C   LIG    1       19.999 -30.242  12.945  0.00  0.00    +0.002 A 
ATOM     11  C   LIG    1       21.282 -30.399  12.402  0.00  0.00    +0.025 A 
ATOM     12  C   LIG    1       23.735 -30.437  10.794  0.00  0.00    +0.225 C 
ATOM     13  O   LIG    1       23.190 -31.531  10.642  0.00  0.00    -0.275 OA
ATOM     14  C   LIG    1       24.545 -27.529  12.982  0.00  0.00    +0.035 A 
ATOM     15  C   LIG    1       25.656 -26.707  13.223  0.00  0.00    +0.019 A 
ATOM     16  C   LIG    1       26.948 -27.134  12.935  0.00  0.00    +0.024 A 
ENDROOT
BRANCH   1  18
ATOM     17  C   LIG    1       29.253 -29.677  12.929  0.00  0.00    +0.405 C 
ATOM     18  N   LIG    1       28.446 -28.904  12.131  0.00  0.00    -0.251 N 
ATOM     19  H   LIG    1       28.862 -28.644  11.250  0.00  0.00    +0.158 HD
ATOM     20  O   LIG    1       28.939 -30.287  13.924  0.00  0.00    -0.226 OA
BRANCH  17  21
ATOM     21  O   LIG    1       30.531 -29.638  12.426  0.00  0.00    -0.450 OA
BRANCH  21  23
ATOM     22  C   LIG    1       32.829 -28.936  12.924  0.00  0.00    +0.048 C 
ATOM     23  C   LIG    1       31.569 -29.629  13.424  0.00  0.00    +0.230 C 
ENDBRANCH  21  23
ENDBRANCH  17  21
ENDBRANCH   1  18
BRANCH  12  24
ATOM     24  C   LIG    1       24.446 -29.781   9.607  0.00  0.00    +0.112 C 
BRANCH  24  25
ATOM     25  C   LIG    1       24.765 -30.799   8.503  0.00  0.00    +0.093 C 
BRANCH  25  26
ATOM     26  N   LIG    1       23.837 -30.695   7.357  0.00  0.00    -0.297 NA
ATOM     27  C   LIG    1       24.148 -29.512   6.515  0.00  0.00    +0.112 C 
ATOM     28  C   LIG    1       25.432 -29.658   5.678  0.00  0.00    +0.175 C 
ATOM     29  O   LIG    1       25.389 -30.830   4.856  0.00  0.00    -0.377 OA
ATOM     30  C   LIG    1       25.167 -32.003   5.647  0.00  0.00    +0.175 C 
ATOM     31  C   LIG    1       23.875 -31.882   6.473  0.00  0.00    +0.112 C 
ENDBRANCH  25  26
ENDBRANCH  24  25
ENDBRANCH  12  24
TORSDOF 6
ENDMDL
MODEL 9
REMARK VINA RESULT:      -6.0     10.021     12.801
REMARK  Name = *****
REMARK                            x       y       z     vdW  Elec       q    Type
REMARK                         _______ _______ _______ _____ _____    ______ ____
ROOT
ATOM      1  C   LIG    1       20.692 -27.782  14.022  0.00  0.00    +0.038 A 
ATOM      2  C   LIG    1       20.985 -28.521  12.855  0.00  0.00    +0.048 A 
ATOM      3  C   LIG    1       22.313 -28.871  12.491  0.00  0.00    +0.057 A 
ATOM      4  N   LIG    1       22.541 -29.775  11.381  0.00  0.00    -0.238 N 
ATOM      5  C   LIG    1       23.809 -29.720  10.668  0.00  0.00    +0.055 A 
ATOM      6  C   LIG    1       24.960 -29.115  11.208  0.00  0.00    +0.035 A 
ATOM      7  S   LIG    1       25.055 -28.473  12.854  0.00  0.00    -0.086 S 
ATOM      8  C   LIG    1       26.181 -29.108  10.502  0.00  0.00    +0.017 A 
ATOM      9  C   LIG    1       26.300 -29.725   9.264  0.00  0.00    +0.001 A 
ATOM     10  C   LIG    1       25.191 -30.347   8.719  0.00  0.00    +0.002 A 
ATOM     11  C   LIG    1       23.968 -30.332   9.405  0.00  0.00    +0.025 A 
ATOM     12  C   LIG    1       21.615 -30.809  11.090  0.00  0.00    +0.225 C 
ATOM     13  O   LIG    1       21.344 -31.236   9.966  0.00  0.00    -0.275 OA
ATOM     14  C   LIG    1       23.347 -28.308  13.244  0.00  0.00    +0.035 A 
ATOM     15  C   LIG    1       23.058 -27.587  14.412  0.00  0.00    +0.019 A 
ATOM     16  C   LIG    1       21.747 -27.353  14.812  0.00  0.00    +0.024 A 
ENDROOT
BRANCH   1  18
ATOM     17  C   LIG    1       18.564 -26.501  14.069  0.00  0.00    +0.405 C 
ATOM     18  N   LIG    1       19.343 -27.589  14.376  0.00  0.00    -0.251 N 
ATOM     19  H   LIG    1       18.883 -28.279  14.949  0.00  0.00    +0.158 HD
ATOM     20  O   LIG    1       18.787 -25.642  13.247  0.00  0.00    -0.226 OA
BRANCH  17  21
ATOM     21  O   LIG    1       17.456 -26.514  14.881  0.00  0.00    -0.450 OA
BRANCH  21  23
ATOM     22  C   LIG    1       15.775 -28.171  14.210  0.00  0.00    +0.048 C 
ATOM     23  C   LIG    1       16.208 -26.711  14.191  0.00  0.00    +0.230 C 
ENDBRANCH  21  23
ENDBRANCH  17  21
ENDBRANCH   1  18
BRANCH  12  24
ATOM     24  C   LIG    1       21.108 -31.565  12.321  0.00  0.00    +0.112 C 
BRANCH  24  25
ATOM     25  C   LIG    1       19.726 -32.186  12.078  0.00  0.00    +0.093 C 
BRANCH  25  26
ATOM     26  N   LIG    1       18.638 -31.190  12.169  0.00  0.00    -0.297 NA
ATOM     27  C   LIG    1       17.437 -31.631  11.415  0.00  0.00    +0.112 C 
ATOM     28  C   LIG    1       16.665 -32.782  12.084  0.00  0.00    +0.175 C 
ATOM     29  O   LIG    1       16.290 -32.450  13.427  0.00  0.00    -0.377 OA
ATOM     30  C   LIG    1       17.438 -32.093  14.205  0.00  0.00    +0.175 C 
ATOM     31  C   LIG    1       18.208 -30.928  13.562  0.00  0.00    +0.112 C 
ENDBRANCH  25  26
ENDBRANCH  24  25
ENDBRANCH  12  24
TORSDOF 6
ENDMDL
