MODEL 1
REMARK VINA RESULT:      -7.7      0.000      0.000
REMARK  Name = *****
REMARK                            x       y       z     vdW  Elec       q    Type
REMARK                         _______ _______ _______ _____ _____    ______ ____
ROOT
ATOM      1  C   LIG    1       25.675 -28.952   7.986  0.00  0.00    +0.162 A 
ATOM      2  C   LIG    1       25.246 -28.524   6.706  0.00  0.00    +0.164 A 
ATOM      3  C   LIG    1       24.562 -29.417   5.865  0.00  0.00    +0.075 A 
ATOM      4  C   LIG    1       24.227 -30.690   6.320  0.00  0.00    +0.055 A 
ATOM      5  N   LIG    1       23.515 -31.610   5.534  0.00  0.00    -0.345 N 
ATOM      6  H   LIG    1       23.598 -31.513   4.528  0.00  0.00    +0.167 HD
ATOM      7  C   LIG    1       23.361 -32.868   6.054  0.00  0.00    +0.199 A 
ATOM      8  N   LIG    1       23.488 -33.215   7.297  0.00  0.00    -0.218 NA
ATOM      9  C   LIG    1       23.717 -32.177   8.174  0.00  0.00    +0.164 A 
ATOM     10  N   LIG    1       23.120 -32.299   9.330  0.00  0.00    -0.225 NA
ATOM     11  C   LIG    1       24.496 -31.020   7.655  0.00  0.00    +0.046 A 
ATOM     12  C   LIG    1       25.323 -30.225   8.439  0.00  0.00    +0.063 A 
ENDROOT
BRANCH  10  13
ATOM     13  C   LIG    1       23.016 -31.353  10.363  0.00  0.00    +0.101 A 
ATOM     14  C   LIG    1       24.038 -31.298  11.328  0.00  0.00    +0.150 A 
ATOM     15  F   LIG    1       25.075 -32.146  11.256  0.00  0.00    -0.203 F 
ATOM     16  C   LIG    1       24.011 -30.394  12.392  0.00  0.00    +0.055 A 
ATOM     17  C   LIG    1       22.958 -29.495  12.496  0.00  0.00    +0.021 A 
ATOM     18 BR   LIG    1       22.932 -28.217  13.886  0.00  0.00    -0.050 Br
ATOM     19  C   LIG    1       21.906 -29.551  11.591  0.00  0.00    +0.017 A 
ATOM     20  C   LIG    1       21.911 -30.518  10.579  0.00  0.00    +0.032 A 
ENDBRANCH  10  13
BRANCH   1  22
ATOM     21  C   LIG    1       26.678 -28.379  10.087  0.00  0.00    +0.277 C 
ATOM     22  O   LIG    1       26.397 -28.051   8.729  0.00  0.00    -0.491 OA
ENDBRANCH   1  22
BRANCH   2  23
ATOM     23  O   LIG    1       25.446 -27.198   6.394  0.00  0.00    -0.488 OA
BRANCH  23  24
ATOM     24  C   LIG    1       24.284 -26.405   6.146  0.00  0.00    +0.232 C 
BRANCH  24  25
ATOM     25  C   LIG    1       24.456 -25.011   6.776  0.00  0.00    +0.029 C 
ATOM     26  C   LIG    1       23.227 -24.134   6.488  0.00  0.00    +0.022 C 
ATOM     27  C   LIG    1       23.427 -22.694   6.969  0.00  0.00    +0.084 C 
ATOM     28  N   LIG    1       24.649 -22.062   6.463  0.00  0.00    -0.305 NA
ATOM     29  C   LIG    1       24.556 -21.716   5.046  0.00  0.00    +0.105 C 
ATOM     30  C   LIG    1       25.831 -22.878   6.764  0.00  0.00    +0.084 C 
ATOM     31  C   LIG    1       25.735 -24.325   6.280  0.00  0.00    +0.022 C 
ENDBRANCH  24  25
ENDBRANCH  23  24
ENDBRANCH   2  23
TORSDOF 5
ENDMDL
MODEL 2
REMARK VINA RESULT:      -7.0      3.334      4.885
REMARK  Name = *****
REMARK                            x       y       z     vdW  Elec       q    Type
REMARK                         _______ _______ _______ _____ _____    ______ ____
ROOT
ATOM      1  C   LIG    1       24.809 -28.634   6.940  0.00  0.00    +0.162 A 
ATOM      2  C   LIG    1       25.625 -27.516   7.239  0.00  0.00    +0.164 A 
ATOM      3  C   LIG    1       26.389 -27.503   8.417  0.00  0.00    +0.075 A 
ATOM      4  C   LIG    1       26.416 -28.624   9.245  0.00  0.00    +0.055 A 
ATOM      5  N   LIG    1       27.189 -28.679  10.416  0.00  0.00    -0.345 N 
ATOM      6  H   LIG    1       27.398 -27.796  10.868  0.00  0.00    +0.167 HD
ATOM      7  C   LIG    1       27.028 -29.788  11.203  0.00  0.00    +0.199 A 
ATOM      8  N   LIG    1       26.521 -30.927  10.844  0.00  0.00    -0.218 NA
ATOM      9  C   LIG    1       26.200 -31.030   9.508  0.00  0.00    +0.164 A 
ATOM     10  N   LIG    1       26.437 -32.202   8.980  0.00  0.00    -0.225 NA
ATOM     11  C   LIG    1       25.752 -29.785   8.828  0.00  0.00    +0.046 A 
ATOM     12  C   LIG    1       24.854 -29.758   7.768  0.00  0.00    +0.063 A 
ENDROOT
BRANCH  10  13
ATOM     13  C   LIG    1       26.378 -32.579   7.628  0.00  0.00    +0.101 A 
ATOM     14  C   LIG    1       25.147 -33.016   7.106  0.00  0.00    +0.150 A 
ATOM     15  F   LIG    1       24.067 -33.081   7.899  0.00  0.00    -0.203 F 
ATOM     16  C   LIG    1       25.001 -33.416   5.776  0.00  0.00    +0.055 A 
ATOM     17  C   LIG    1       26.095 -33.357   4.922  0.00  0.00    +0.021 A 
ATOM     18 BR   LIG    1       25.908 -33.825   3.102  0.00  0.00    -0.050 Br
ATOM     19  C   LIG    1       27.337 -32.976   5.412  0.00  0.00    +0.017 A 
ATOM     20  C   LIG    1       27.482 -32.657   6.767  0.00  0.00    +0.032 A 
ENDBRANCH  10  13
BRANCH   1  22
ATOM     21  C   LIG    1       24.419 -29.334   4.680  0.00  0.00    +0.277 C 
ATOM     22  O   LIG    1       24.037 -28.551   5.808  0.00  0.00    -0.491 OA
ENDBRANCH   1  22
BRANCH   2  23
ATOM     23  O   LIG    1       25.693 -26.524   6.286  0.00  0.00    -0.488 OA
BRANCH  23  24
ATOM     24  C   LIG    1       24.529 -25.715   6.104  0.00  0.00    +0.232 C 
BRANCH  24  25
ATOM     25  C   LIG    1       24.639 -24.437   6.954  0.00  0.00    +0.029 C 
ATOM     26  C   LIG    1       23.474 -23.484   6.647  0.00  0.00    +0.022 C 
ATOM     27  C   LIG    1       23.633 -22.138   7.361  0.00  0.00    +0.084 C 
ATOM     28  N   LIG    1       24.921 -21.483   7.117  0.00  0.00    -0.305 NA
ATOM     29  C   LIG    1       25.022 -20.928   5.769  0.00  0.00    +0.105 C 
ATOM     30  C   LIG    1       26.039 -22.377   7.441  0.00  0.00    +0.084 C 
ATOM     31  C   LIG    1       25.983 -23.733   6.735  0.00  0.00    +0.022 C 
ENDBRANCH  24  25
ENDBRANCH  23  24
ENDBRANCH   2  23
TORSDOF 5
ENDMDL
MODEL 3
REMARK VINA RESULT:      -7.0      3.467      6.314
REMARK  Name = *****
REMARK                            x       y       z     vdW  Elec       q    Type
REMARK                         _______ _______ _______ _____ _____    ______ ____
ROOT
ATOM      1  C   LIG    1       25.159 -30.098   9.115  0.00  0.00    +0.162 A 
ATOM      2  C   LIG    1       26.264 -30.894   9.503  0.00  0.00    +0.164 A 
ATOM      3  C   LIG    1       26.874 -31.745   8.568  0.00  0.00    +0.075 A 
ATOM      4  C   LIG    1       26.453 -31.742   7.239  0.00  0.00    +0.055 A 
ATOM      5  N   LIG    1       27.050 -32.547   6.255  0.00  0.00    -0.345 N 
ATOM      6  H   LIG    1       27.493 -33.402   6.572  0.00  0.00    +0.167 HD
ATOM      7  C   LIG    1       26.460 -32.540   5.020  0.00  0.00    +0.199 A 
ATOM      8  N   LIG    1       25.643 -31.646   4.554  0.00  0.00    -0.218 NA
ATOM      9  C   LIG    1       25.435 -30.560   5.376  0.00  0.00    +0.164 A 
ATOM     10  N   LIG    1       25.323 -29.418   4.750  0.00  0.00    -0.225 NA
ATOM     11  C   LIG    1       25.487 -30.808   6.842  0.00  0.00    +0.046 A 
ATOM     12  C   LIG    1       24.753 -30.090   7.779  0.00  0.00    +0.063 A 
ENDROOT
BRANCH  10  13
ATOM     13  C   LIG    1       25.272 -28.124   5.296  0.00  0.00    +0.101 A 
ATOM     14  C   LIG    1       26.419 -27.314   5.211  0.00  0.00    +0.150 A 
ATOM     15  F   LIG    1       27.533 -27.786   4.632  0.00  0.00    -0.203 F 
ATOM     16  C   LIG    1       26.457 -26.019   5.733  0.00  0.00    +0.055 A 
ATOM     17  C   LIG    1       25.321 -25.492   6.335  0.00  0.00    +0.021 A 
ATOM     18 BR   LIG    1       25.325 -23.721   6.987  0.00  0.00    -0.050 Br
ATOM     19  C   LIG    1       24.186 -26.279   6.481  0.00  0.00    +0.017 A 
ATOM     20  C   LIG    1       24.193 -27.601   6.023  0.00  0.00    +0.032 A 
ENDBRANCH  10  13
BRANCH   1  22
ATOM     21  C   LIG    1       23.477 -29.912  10.814  0.00  0.00    +0.277 C 
ATOM     22  O   LIG    1       24.568 -29.341  10.096  0.00  0.00    -0.491 OA
ENDBRANCH   1  22
BRANCH   2  23
ATOM     23  O   LIG    1       26.745 -30.710  10.780  0.00  0.00    -0.488 OA
BRANCH  23  24
ATOM     24  C   LIG    1       27.792 -29.753  10.950  0.00  0.00    +0.232 C 
BRANCH  24  25
ATOM     25  C   LIG    1       27.515 -28.885  12.190  0.00  0.00    +0.029 C 
ATOM     26  C   LIG    1       26.519 -29.585  13.127  0.00  0.00    +0.022 C 
ATOM     27  C   LIG    1       26.104 -28.686  14.295  0.00  0.00    +0.084 C 
ATOM     28  N   LIG    1       25.598 -27.372  13.885  0.00  0.00    -0.305 NA
ATOM     29  C   LIG    1       24.264 -27.445  13.294  0.00  0.00    +0.105 C 
ATOM     30  C   LIG    1       26.560 -26.683  13.016  0.00  0.00    +0.084 C 
ATOM     31  C   LIG    1       26.998 -27.496  11.796  0.00  0.00    +0.022 C 
ENDBRANCH  24  25
ENDBRANCH  23  24
ENDBRANCH   2  23
TORSDOF 5
ENDMDL
MODEL 4
REMARK VINA RESULT:      -6.8      2.027      2.463
REMARK  Name = *****
REMARK                            x       y       z     vdW  Elec       q    Type
REMARK                         _______ _______ _______ _____ _____    ______ ____
ROOT
ATOM      1  C   LIG    1       25.534 -29.431   7.711  0.00  0.00    +0.162 A 
ATOM      2  C   LIG    1       25.106 -28.875   6.482  0.00  0.00    +0.164 A 
ATOM      3  C   LIG    1       25.132 -29.656   5.315  0.00  0.00    +0.075 A 
ATOM      4  C   LIG    1       25.491 -31.001   5.381  0.00  0.00    +0.055 A 
ATOM      5  N   LIG    1       25.500 -31.837   4.252  0.00  0.00    -0.345 N 
ATOM      6  H   LIG    1       25.643 -31.389   3.354  0.00  0.00    +0.167 HD
ATOM      7  C   LIG    1       25.992 -33.102   4.433  0.00  0.00    +0.199 A 
ATOM      8  N   LIG    1       26.130 -33.727   5.561  0.00  0.00    -0.218 NA
ATOM      9  C   LIG    1       25.644 -33.060   6.664  0.00  0.00    +0.164 A 
ATOM     10  N   LIG    1       25.070 -33.825   7.554  0.00  0.00    -0.225 NA
ATOM     11  C   LIG    1       25.725 -31.574   6.638  0.00  0.00    +0.046 A 
ATOM     12  C   LIG    1       25.879 -30.784   7.771  0.00  0.00    +0.063 A 
ENDROOT
BRANCH  10  13
ATOM     13  C   LIG    1       24.338 -33.444   8.691  0.00  0.00    +0.101 A 
ATOM     14  C   LIG    1       22.991 -33.072   8.530  0.00  0.00    +0.150 A 
ATOM     15  F   LIG    1       22.437 -33.071   7.308  0.00  0.00    -0.203 F 
ATOM     16  C   LIG    1       22.194 -32.674   9.605  0.00  0.00    +0.055 A 
ATOM     17  C   LIG    1       22.730 -32.667  10.886  0.00  0.00    +0.021 A 
ATOM     18 BR   LIG    1       21.654 -32.200  12.366  0.00  0.00    -0.050 Br
ATOM     19  C   LIG    1       24.069 -32.982  11.079  0.00  0.00    +0.017 A 
ATOM     20  C   LIG    1       24.873 -33.300   9.979  0.00  0.00    +0.032 A 
ENDBRANCH  10  13
BRANCH   1  22
ATOM     21  C   LIG    1       26.660 -28.670   9.687  0.00  0.00    +0.277 C 
ATOM     22  O   LIG    1       25.548 -28.592   8.798  0.00  0.00    -0.491 OA
ENDBRANCH   1  22
BRANCH   2  23
ATOM     23  O   LIG    1       24.590 -27.600   6.523  0.00  0.00    -0.488 OA
BRANCH  23  24
ATOM     24  C   LIG    1       25.455 -26.533   6.129  0.00  0.00    +0.232 C 
BRANCH  24  25
ATOM     25  C   LIG    1       25.026 -25.225   6.817  0.00  0.00    +0.029 C 
ATOM     26  C   LIG    1       23.675 -24.745   6.266  0.00  0.00    +0.022 C 
ATOM     27  C   LIG    1       23.290 -23.368   6.817  0.00  0.00    +0.084 C 
ATOM     28  N   LIG    1       24.322 -22.344   6.635  0.00  0.00    -0.305 NA
ATOM     29  C   LIG    1       24.434 -21.902   5.246  0.00  0.00    +0.105 C 
ATOM     30  C   LIG    1       25.608 -22.783   7.189  0.00  0.00    +0.084 C 
ATOM     31  C   LIG    1       26.092 -24.134   6.658  0.00  0.00    +0.022 C 
ENDBRANCH  24  25
ENDBRANCH  23  24
ENDBRANCH   2  23
TORSDOF 5
ENDMDL
MODEL 5
REMARK VINA RESULT:      -6.8      2.676      4.226
REMARK  Name = *****
REMARK                            x       y       z     vdW  Elec       q    Type
REMARK                         _______ _______ _______ _____ _____    ______ ____
ROOT
ATOM      1  C   LIG    1       25.554 -29.607  10.691  0.00  0.00    +0.162 A 
ATOM      2  C   LIG    1       24.965 -29.676   9.406  0.00  0.00    +0.164 A 
ATOM      3  C   LIG    1       23.684 -30.231   9.253  0.00  0.00    +0.075 A 
ATOM      4  C   LIG    1       22.956 -30.629  10.372  0.00  0.00    +0.055 A 
ATOM      5  N   LIG    1       21.658 -31.158  10.281  0.00  0.00    -0.345 N 
ATOM      6  H   LIG    1       21.414 -31.620   9.413  0.00  0.00    +0.167 HD
ATOM      7  C   LIG    1       21.106 -31.625  11.444  0.00  0.00    +0.199 A 
ATOM      8  N   LIG    1       21.480 -31.338  12.652  0.00  0.00    -0.218 NA
ATOM      9  C   LIG    1       22.483 -30.398  12.745  0.00  0.00    +0.164 A 
ATOM     10  N   LIG    1       22.360 -29.568  13.748  0.00  0.00    -0.225 NA
ATOM     11  C   LIG    1       23.484 -30.373  11.645  0.00  0.00    +0.046 A 
ATOM     12  C   LIG    1       24.812 -29.995  11.809  0.00  0.00    +0.063 A 
ENDROOT
BRANCH  10  13
ATOM     13  C   LIG    1       23.109 -28.412  14.022  0.00  0.00    +0.101 A 
ATOM     14  C   LIG    1       22.737 -27.207  13.399  0.00  0.00    +0.150 A 
ATOM     15  F   LIG    1       21.695 -27.183  12.552  0.00  0.00    -0.203 F 
ATOM     16  C   LIG    1       23.430 -26.013  13.609  0.00  0.00    +0.055 A 
ATOM     17  C   LIG    1       24.509 -25.996  14.483  0.00  0.00    +0.021 A 
ATOM     18 BR   LIG    1       25.421 -24.381  14.838  0.00  0.00    -0.050 Br
ATOM     19  C   LIG    1       24.937 -27.175  15.080  0.00  0.00    +0.017 A 
ATOM     20  C   LIG    1       24.280 -28.377  14.793  0.00  0.00    +0.032 A 
ENDBRANCH  10  13
BRANCH   1  22
ATOM     21  C   LIG    1       27.041 -27.884  11.444  0.00  0.00    +0.277 C 
ATOM     22  O   LIG    1       26.835 -29.116  10.759  0.00  0.00    -0.491 OA
ENDBRANCH   1  22
BRANCH   2  23
ATOM     23  O   LIG    1       25.663 -29.096   8.371  0.00  0.00    -0.488 OA
BRANCH  23  24
ATOM     24  C   LIG    1       25.048 -29.113   7.081  0.00  0.00    +0.232 C 
BRANCH  24  25
ATOM     25  C   LIG    1       25.432 -27.844   6.298  0.00  0.00    +0.029 C 
ATOM     26  C   LIG    1       25.922 -26.748   7.256  0.00  0.00    +0.022 C 
ATOM     27  C   LIG    1       26.168 -25.422   6.530  0.00  0.00    +0.084 C 
ATOM     28  N   LIG    1       25.023 -24.953   5.743  0.00  0.00    -0.305 NA
ATOM     29  C   LIG    1       23.938 -24.445   6.579  0.00  0.00    +0.105 C 
ATOM     30  C   LIG    1       24.570 -25.984   4.801  0.00  0.00    +0.084 C 
ATOM     31  C   LIG    1       24.260 -27.334   5.450  0.00  0.00    +0.022 C 
ENDBRANCH  24  25
ENDBRANCH  23  24
ENDBRANCH   2  23
TORSDOF 5
ENDMDL
MODEL 6
REMARK VINA RESULT:      -6.5      4.631      8.093
REMARK  Name = *****
REMARK                            x       y       z     vdW  Elec       q    Type
REMARK                         _______ _______ _______ _____ _____    ______ ____
ROOT
ATOM      1  C   LIG    1       22.888 -29.243  12.235  0.00  0.00    +0.162 A 
ATOM      2  C   LIG    1       22.306 -28.064  12.758  0.00  0.00    +0.164 A 
ATOM      3  C   LIG    1       23.127 -27.055  13.289  0.00  0.00    +0.075 A 
ATOM      4  C   LIG    1       24.513 -27.174  13.218  0.00  0.00    +0.055 A 
ATOM      5  N   LIG    1       25.382 -26.181  13.701  0.00  0.00    -0.345 N 
ATOM      6  H   LIG    1       25.030 -25.589  14.445  0.00  0.00    +0.167 HD
ATOM      7  C   LIG    1       26.719 -26.478  13.684  0.00  0.00    +0.199 A 
ATOM      8  N   LIG    1       27.301 -27.399  12.981  0.00  0.00    -0.218 NA
ATOM      9  C   LIG    1       26.478 -28.074  12.106  0.00  0.00    +0.164 A 
ATOM     10  N   LIG    1       27.030 -28.373  10.960  0.00  0.00    -0.225 NA
ATOM     11  C   LIG    1       25.062 -28.260  12.525  0.00  0.00    +0.046 A 
ATOM     12  C   LIG    1       24.278 -29.347  12.155  0.00  0.00    +0.063 A 
ENDROOT
BRANCH  10  13
ATOM     13  C   LIG    1       26.423 -28.903   9.809  0.00  0.00    +0.101 A 
ATOM     14  C   LIG    1       26.278 -30.298   9.708  0.00  0.00    +0.150 A 
ATOM     15  F   LIG    1       26.730 -31.093  10.691  0.00  0.00    -0.203 F 
ATOM     16  C   LIG    1       25.692 -30.909   8.597  0.00  0.00    +0.055 A 
ATOM     17  C   LIG    1       25.207 -30.120   7.562  0.00  0.00    +0.021 A 
ATOM     18 BR   LIG    1       24.349 -30.915   6.080  0.00  0.00    -0.050 Br
ATOM     19  C   LIG    1       25.374 -28.741   7.604  0.00  0.00    +0.017 A 
ATOM     20  C   LIG    1       26.037 -28.155   8.688  0.00  0.00    +0.032 A 
ENDBRANCH  10  13
BRANCH   1  22
ATOM     21  C   LIG    1       22.168 -30.681  10.456  0.00  0.00    +0.277 C 
ATOM     22  O   LIG    1       22.024 -30.216  11.796  0.00  0.00    -0.491 OA
ENDBRANCH   1  22
BRANCH   2  23
ATOM     23  O   LIG    1       20.942 -27.933  12.627  0.00  0.00    -0.488 OA
BRANCH  23  24
ATOM     24  C   LIG    1       20.364 -26.691  13.037  0.00  0.00    +0.232 C 
BRANCH  24  25
ATOM     25  C   LIG    1       19.378 -26.927  14.195  0.00  0.00    +0.029 C 
ATOM     26  C   LIG    1       19.154 -28.431  14.415  0.00  0.00    +0.022 C 
ATOM     27  C   LIG    1       18.064 -28.700  15.457  0.00  0.00    +0.084 C 
ATOM     28  N   LIG    1       16.795 -28.020  15.181  0.00  0.00    -0.305 NA
ATOM     29  C   LIG    1       16.066 -28.623  14.068  0.00  0.00    +0.105 C 
ATOM     30  C   LIG    1       16.997 -26.577  15.002  0.00  0.00    +0.084 C 
ATOM     31  C   LIG    1       18.042 -26.215  13.945  0.00  0.00    +0.022 C 
ENDBRANCH  24  25
ENDBRANCH  23  24
ENDBRANCH   2  23
TORSDOF 5
ENDMDL
MODEL 7
REMARK VINA RESULT:      -6.4      1.623      2.449
REMARK  Name = *****
REMARK                            x       y       z     vdW  Elec       q    Type
REMARK                         _______ _______ _______ _____ _____    ______ ____
ROOT
ATOM      1  C   LIG    1       25.980 -29.095   9.781  0.00  0.00    +0.162 A 
ATOM      2  C   LIG    1       25.603 -29.014   8.419  0.00  0.00    +0.164 A 
ATOM      3  C   LIG    1       24.726 -29.968   7.878  0.00  0.00    +0.075 A 
ATOM      4  C   LIG    1       24.156 -30.938   8.700  0.00  0.00    +0.055 A 
ATOM      5  N   LIG    1       23.246 -31.895   8.220  0.00  0.00    -0.345 N 
ATOM      6  H   LIG    1       23.314 -32.137   7.238  0.00  0.00    +0.167 HD
ATOM      7  C   LIG    1       22.858 -32.867   9.103  0.00  0.00    +0.199 A 
ATOM      8  N   LIG    1       22.954 -32.823  10.396  0.00  0.00    -0.218 NA
ATOM      9  C   LIG    1       23.417 -31.631  10.909  0.00  0.00    +0.164 A 
ATOM     10  N   LIG    1       22.845 -31.260  12.024  0.00  0.00    -0.225 NA
ATOM     11  C   LIG    1       24.396 -30.879  10.079  0.00  0.00    +0.046 A 
ATOM     12  C   LIG    1       25.392 -30.062  10.600  0.00  0.00    +0.063 A 
ENDROOT
BRANCH  10  13
ATOM     13  C   LIG    1       22.969 -30.037  12.704  0.00  0.00    +0.101 A 
ATOM     14  C   LIG    1       23.792 -29.982  13.843  0.00  0.00    +0.150 A 
ATOM     15  F   LIG    1       24.427 -31.086  14.267  0.00  0.00    -0.203 F 
ATOM     16  C   LIG    1       23.966 -28.810  14.582  0.00  0.00    +0.055 A 
ATOM     17  C   LIG    1       23.331 -27.645  14.172  0.00  0.00    +0.021 A 
ATOM     18 BR   LIG    1       23.604 -26.030  15.112  0.00  0.00    -0.050 Br
ATOM     19  C   LIG    1       22.473 -27.670  13.080  0.00  0.00    +0.017 A 
ATOM     20  C   LIG    1       22.248 -28.873  12.401  0.00  0.00    +0.032 A 
ENDBRANCH  10  13
BRANCH   1  22
ATOM     21  C   LIG    1       26.935 -27.895  11.624  0.00  0.00    +0.277 C 
ATOM     22  O   LIG    1       26.893 -28.172  10.227  0.00  0.00    -0.491 OA
ENDBRANCH   1  22
BRANCH   2  23
ATOM     23  O   LIG    1       26.058 -27.923   7.713  0.00  0.00    -0.488 OA
BRANCH  23  24
ATOM     24  C   LIG    1       25.471 -27.687   6.431  0.00  0.00    +0.232 C 
BRANCH  24  25
ATOM     25  C   LIG    1       25.705 -26.226   6.007  0.00  0.00    +0.029 C 
ATOM     26  C   LIG    1       25.831 -25.319   7.241  0.00  0.00    +0.022 C 
ATOM     27  C   LIG    1       25.912 -23.839   6.857  0.00  0.00    +0.084 C 
ATOM     28  N   LIG    1       24.820 -23.388   5.989  0.00  0.00    -0.305 NA
ATOM     29  C   LIG    1       23.550 -23.270   6.700  0.00  0.00    +0.105 C 
ATOM     30  C   LIG    1       24.716 -24.230   4.790  0.00  0.00    +0.084 C 
ATOM     31  C   LIG    1       24.587 -25.726   5.083  0.00  0.00    +0.022 C 
ENDBRANCH  24  25
ENDBRANCH  23  24
ENDBRANCH   2  23
TORSDOF 5
ENDMDL
MODEL 8
REMARK VINA RESULT:      -6.2      5.306     10.130
REMARK  Name = *****
REMARK                            x       y       z     vdW  Elec       q    Type
REMARK                         _______ _______ _______ _____ _____    ______ ____
ROOT
ATOM      1  C   LIG    1       24.686 -21.560   7.338  0.00  0.00    +0.162 A 
ATOM      2  C   LIG    1       23.991 -22.487   6.525  0.00  0.00    +0.164 A 
ATOM      3  C   LIG    1       23.797 -22.214   5.161  0.00  0.00    +0.075 A 
ATOM      4  C   LIG    1       24.365 -21.077   4.588  0.00  0.00    +0.055 A 
ATOM      5  N   LIG    1       24.232 -20.772   3.224  0.00  0.00    -0.345 N 
ATOM      6  H   LIG    1       23.414 -21.138   2.751  0.00  0.00    +0.167 HD
ATOM      7  C   LIG    1       24.731 -19.564   2.817  0.00  0.00    +0.199 A 
ATOM      8  N   LIG    1       25.595 -18.829   3.446  0.00  0.00    -0.218 NA
ATOM      9  C   LIG    1       26.110 -19.386   4.596  0.00  0.00    +0.164 A 
ATOM     10  N   LIG    1       27.378 -19.140   4.799  0.00  0.00    -0.225 NA
ATOM     11  C   LIG    1       25.207 -20.277   5.372  0.00  0.00    +0.046 A 
ATOM     12  C   LIG    1       25.264 -20.431   6.753  0.00  0.00    +0.063 A 
ENDROOT
BRANCH  10  13
ATOM     13  C   LIG    1       28.228 -19.689   5.773  0.00  0.00    +0.101 A 
ATOM     14  C   LIG    1       29.335 -18.934   6.201  0.00  0.00    +0.150 A 
ATOM     15  F   LIG    1       29.567 -17.723   5.671  0.00  0.00    -0.203 F 
ATOM     16  C   LIG    1       30.234 -19.406   7.160  0.00  0.00    +0.055 A 
ATOM     17  C   LIG    1       30.024 -20.652   7.737  0.00  0.00    +0.021 A 
ATOM     18 BR   LIG    1       31.186 -21.285   9.084  0.00  0.00    -0.050 Br
ATOM     19  C   LIG    1       28.971 -21.448   7.305  0.00  0.00    +0.017 A 
ATOM     20  C   LIG    1       28.128 -20.990   6.286  0.00  0.00    +0.032 A 
ENDBRANCH  10  13
BRANCH   1  22
ATOM     21  C   LIG    1       26.070 -22.152   9.204  0.00  0.00    +0.277 C 
ATOM     22  O   LIG    1       24.780 -21.858   8.675  0.00  0.00    -0.491 OA
ENDBRANCH   1  22
BRANCH   2  23
ATOM     23  O   LIG    1       23.620 -23.675   7.115  0.00  0.00    -0.488 OA
BRANCH  23  24
ATOM     24  C   LIG    1       23.412 -24.794   6.251  0.00  0.00    +0.232 C 
BRANCH  24  25
ATOM     25  C   LIG    1       24.655 -25.701   6.257  0.00  0.00    +0.029 C 
ATOM     26  C   LIG    1       25.137 -25.964   4.822  0.00  0.00    +0.022 C 
ATOM     27  C   LIG    1       26.278 -26.985   4.780  0.00  0.00    +0.084 C 
ATOM     28  N   LIG    1       25.978 -28.243   5.469  0.00  0.00    -0.305 NA
ATOM     29  C   LIG    1       25.031 -29.075   4.729  0.00  0.00    +0.105 C 
ATOM     30  C   LIG    1       25.549 -28.001   6.852  0.00  0.00    +0.084 C 
ATOM     31  C   LIG    1       24.380 -27.023   6.984  0.00  0.00    +0.022 C 
ENDBRANCH  24  25
ENDBRANCH  23  24
ENDBRANCH   2  23
TORSDOF 5
ENDMDL
MODEL 9
REMARK VINA RESULT:      -6.2      4.918     10.284
REMARK  Name = *****
REMARK                            x       y       z     vdW  Elec       q    Type
REMARK                         _______ _______ _______ _____ _____    ______ ____
ROOT
ATOM      1  C   LIG    1       25.448 -22.336   7.342  0.00  0.00    +0.162 A 
ATOM      2  C   LIG    1       25.058 -23.508   6.652  0.00  0.00    +0.164 A 
ATOM      3  C   LIG    1       24.557 -23.415   5.343  0.00  0.00    +0.075 A 
ATOM      4  C   LIG    1       24.528 -22.183   4.692  0.00  0.00    +0.055 A 
ATOM      5  N   LIG    1       24.071 -22.037   3.372  0.00  0.00    -0.345 N 
ATOM      6  H   LIG    1       23.401 -22.722   3.042  0.00  0.00    +0.167 HD
ATOM      7  C   LIG    1       23.978 -20.756   2.896  0.00  0.00    +0.199 A 
ATOM      8  N   LIG    1       24.567 -19.705   3.375  0.00  0.00    -0.218 NA
ATOM      9  C   LIG    1       25.437 -19.946   4.417  0.00  0.00    +0.164 A 
ATOM     10  N   LIG    1       26.518 -19.211   4.404  0.00  0.00    -0.225 NA
ATOM     11  C   LIG    1       25.097 -21.072   5.328  0.00  0.00    +0.046 A 
ATOM     12  C   LIG    1       25.429 -21.108   6.677  0.00  0.00    +0.063 A 
ENDROOT
BRANCH  10  13
ATOM     13  C   LIG    1       27.659 -19.323   5.215  0.00  0.00    +0.101 A 
ATOM     14  C   LIG    1       28.605 -18.282   5.190  0.00  0.00    +0.150 A 
ATOM     15  F   LIG    1       28.414 -17.220   4.393  0.00  0.00    -0.203 F 
ATOM     16  C   LIG    1       29.771 -18.316   5.959  0.00  0.00    +0.055 A 
ATOM     17  C   LIG    1       30.002 -19.396   6.801  0.00  0.00    +0.021 A 
ATOM     18 BR   LIG    1       31.535 -19.433   7.902  0.00  0.00    -0.050 Br
ATOM     19  C   LIG    1       29.115 -20.465   6.817  0.00  0.00    +0.017 A 
ATOM     20  C   LIG    1       27.994 -20.450   5.979  0.00  0.00    +0.032 A 
ENDBRANCH  10  13
BRANCH   1  22
ATOM     21  C   LIG    1       25.998 -21.323   9.445  0.00  0.00    +0.277 C 
ATOM     22  O   LIG    1       25.863 -22.493   8.642  0.00  0.00    -0.491 OA
ENDBRANCH   1  22
BRANCH   2  23
ATOM     23  O   LIG    1       25.287 -24.708   7.286  0.00  0.00    -0.488 OA
BRANCH  23  24
ATOM     24  C   LIG    1       25.817 -25.773   6.494  0.00  0.00    +0.232 C 
BRANCH  24  25
ATOM     25  C   LIG    1       24.965 -27.042   6.681  0.00  0.00    +0.029 C 
ATOM     26  C   LIG    1       25.726 -28.083   7.516  0.00  0.00    +0.022 C 
ATOM     27  C   LIG    1       24.972 -29.415   7.593  0.00  0.00    +0.084 C 
ATOM     28  N   LIG    1       24.599 -29.965   6.287  0.00  0.00    -0.305 NA
ATOM     29  C   LIG    1       25.745 -30.505   5.558  0.00  0.00    +0.105 C 
ATOM     30  C   LIG    1       23.843 -28.986   5.496  0.00  0.00    +0.084 C 
ATOM     31  C   LIG    1       24.544 -27.636   5.331  0.00  0.00    +0.022 C 
ENDBRANCH  24  25
ENDBRANCH  23  24
ENDBRANCH   2  23
TORSDOF 5
ENDMDL
