MODEL 1
REMARK VINA RESULT:      -9.8      0.000      0.000
REMARK  Name = *****
REMARK                            x       y       z     vdW  Elec       q    Type
REMARK                         _______ _______ _______ _____ _____    ______ ____
ROOT
ATOM      1  C   LIG    1       25.902 -23.711   6.382  0.00  0.00    +0.041 A 
ATOM      2  C   LIG    1       24.541 -23.405   6.064  0.00  0.00    +0.003 A 
ATOM      3  C   LIG    1       23.620 -24.487   6.115  0.00  0.00    +0.010 A 
ATOM      4  C   LIG    1       23.988 -25.784   6.473  0.00  0.00    +0.001 A 
ATOM      5  C   LIG    1       25.309 -26.062   6.758  0.00  0.00    +0.002 A 
ATOM      6  C   LIG    1       26.252 -25.040   6.698  0.00  0.00    +0.024 A 
ENDROOT
BRANCH   2   7
ATOM      7  C   LIG    1       23.995 -22.050   5.694  0.00  0.00    -0.016 A 
ATOM      8  C   LIG    1       24.220 -21.507   4.405  0.00  0.00    +0.010 A 
ATOM      9  C   LIG    1       23.740 -20.245   4.024  0.00  0.00    +0.020 A 
ATOM     10  C   LIG    1       22.977 -19.505   4.913  0.00  0.00    +0.041 A 
ATOM     11 CL   LIG    1       22.339 -17.980   4.437  0.00  0.00    -0.084 Cl
ATOM     12  C   LIG    1       22.742 -19.993   6.192  0.00  0.00    +0.020 A 
ATOM     13  C   LIG    1       23.285 -21.228   6.587  0.00  0.00    +0.010 A 
ENDBRANCH   2   7
BRANCH   1  16
ATOM     14  O   LIG    1       26.788 -21.934   8.624  0.00  0.00    -0.270 OA
ATOM     15  C   LIG    1       27.273 -21.901   7.502  0.00  0.00    +0.251 C 
ATOM     16  N   LIG    1       26.898 -22.693   6.422  0.00  0.00    -0.281 N 
ATOM     17  H   LIG    1       27.347 -22.501   5.537  0.00  0.00    +0.155 HD
BRANCH  15  18
ATOM     18  C   LIG    1       28.410 -20.960   7.306  0.00  0.00    +0.074 A 
ATOM     19  C   LIG    1       28.496 -19.952   6.354  0.00  0.00    +0.141 A 
ATOM     20 CL   LIG    1       27.239 -19.533   5.255  0.00  0.00    -0.061 Cl
ATOM     21  N   LIG    1       29.568 -19.137   6.199  0.00  0.00    -0.243 NA
ATOM     22  C   LIG    1       30.599 -19.302   7.052  0.00  0.00    +0.112 A 
ATOM     23  C   LIG    1       30.611 -20.250   8.057  0.00  0.00    +0.020 A 
ATOM     24  C   LIG    1       29.506 -21.089   8.179  0.00  0.00    +0.017 A 
ENDBRANCH  15  18
ENDBRANCH   1  16
TORSDOF 3
ENDMDL
MODEL 2
REMARK VINA RESULT:      -8.2      2.156      4.320
REMARK  Name = *****
REMARK                            x       y       z     vdW  Elec       q    Type
REMARK                         _______ _______ _______ _____ _____    ______ ____
ROOT
ATOM      1  C   LIG    1       25.550 -20.381   4.925  0.00  0.00    +0.041 A 
ATOM      2  C   LIG    1       24.728 -21.552   4.877  0.00  0.00    +0.003 A 
ATOM      3  C   LIG    1       23.499 -21.435   4.173  0.00  0.00    +0.010 A 
ATOM      4  C   LIG    1       23.094 -20.262   3.534  0.00  0.00    +0.001 A 
ATOM      5  C   LIG    1       23.893 -19.139   3.608  0.00  0.00    +0.002 A 
ATOM      6  C   LIG    1       25.096 -19.198   4.306  0.00  0.00    +0.024 A 
ENDROOT
BRANCH   2   7
ATOM      7  C   LIG    1       25.048 -22.890   5.490  0.00  0.00    -0.016 A 
ATOM      8  C   LIG    1       24.912 -24.083   4.738  0.00  0.00    +0.010 A 
ATOM      9  C   LIG    1       25.189 -25.349   5.274  0.00  0.00    +0.020 A 
ATOM     10  C   LIG    1       25.655 -25.456   6.575  0.00  0.00    +0.041 A 
ATOM     11 CL   LIG    1       26.047 -27.000   7.224  0.00  0.00    -0.084 Cl
ATOM     12  C   LIG    1       25.791 -24.314   7.354  0.00  0.00    +0.020 A 
ATOM     13  C   LIG    1       25.447 -23.056   6.829  0.00  0.00    +0.010 A 
ENDBRANCH   2   7
BRANCH   1  16
ATOM     14  O   LIG    1       26.321 -20.082   7.803  0.00  0.00    -0.270 OA
ATOM     15  C   LIG    1       27.126 -20.264   6.902  0.00  0.00    +0.251 C 
ATOM     16  N   LIG    1       26.830 -20.401   5.550  0.00  0.00    -0.281 N 
ATOM     17  H   LIG    1       27.612 -20.478   4.916  0.00  0.00    +0.155 HD
BRANCH  15  18
ATOM     18  C   LIG    1       28.550 -20.408   7.313  0.00  0.00    +0.074 A 
ATOM     19  C   LIG    1       29.617 -19.628   6.888  0.00  0.00    +0.141 A 
ATOM     20 CL   LIG    1       29.480 -18.261   5.851  0.00  0.00    -0.061 Cl
ATOM     21  N   LIG    1       30.904 -19.818   7.273  0.00  0.00    -0.243 NA
ATOM     22  C   LIG    1       31.146 -20.810   8.154  0.00  0.00    +0.112 A 
ATOM     23  C   LIG    1       30.159 -21.628   8.668  0.00  0.00    +0.020 A 
ATOM     24  C   LIG    1       28.849 -21.426   8.238  0.00  0.00    +0.017 A 
ENDBRANCH  15  18
ENDBRANCH   1  16
TORSDOF 3
ENDMDL
MODEL 3
REMARK VINA RESULT:      -7.7      2.876      6.072
REMARK  Name = *****
REMARK                            x       y       z     vdW  Elec       q    Type
REMARK                         _______ _______ _______ _____ _____    ______ ____
ROOT
ATOM      1  C   LIG    1       23.527 -21.652   5.213  0.00  0.00    +0.041 A 
ATOM      2  C   LIG    1       24.222 -20.431   5.483  0.00  0.00    +0.003 A 
ATOM      3  C   LIG    1       23.502 -19.228   5.252  0.00  0.00    +0.010 A 
ATOM      4  C   LIG    1       22.180 -19.204   4.806  0.00  0.00    +0.001 A 
ATOM      5  C   LIG    1       21.534 -20.393   4.534  0.00  0.00    +0.002 A 
ATOM      6  C   LIG    1       22.206 -21.597   4.722  0.00  0.00    +0.024 A 
ENDROOT
BRANCH   2   7
ATOM      7  C   LIG    1       25.633 -20.304   5.996  0.00  0.00    -0.016 A 
ATOM      8  C   LIG    1       25.925 -20.494   7.369  0.00  0.00    +0.010 A 
ATOM      9  C   LIG    1       27.222 -20.374   7.889  0.00  0.00    +0.020 A 
ATOM     10  C   LIG    1       28.279 -20.100   7.036  0.00  0.00    +0.041 A 
ATOM     11 CL   LIG    1       29.881 -20.002   7.656  0.00  0.00    -0.084 Cl
ATOM     12  C   LIG    1       28.039 -19.893   5.684  0.00  0.00    +0.020 A 
ATOM     13  C   LIG    1       26.726 -19.948   5.185  0.00  0.00    +0.010 A 
ENDBRANCH   2   7
BRANCH   1  16
ATOM     14  O   LIG    1       22.539 -24.007   6.777  0.00  0.00    -0.270 OA
ATOM     15  C   LIG    1       23.616 -23.982   6.199  0.00  0.00    +0.251 C 
ATOM     16  N   LIG    1       24.131 -22.918   5.467  0.00  0.00    -0.281 N 
ATOM     17  H   LIG    1       25.067 -23.024   5.104  0.00  0.00    +0.155 HD
BRANCH  15  18
ATOM     18  C   LIG    1       24.415 -25.239   6.244  0.00  0.00    +0.074 A 
ATOM     19  C   LIG    1       25.752 -25.357   6.600  0.00  0.00    +0.141 A 
ATOM     20 CL   LIG    1       26.737 -24.058   7.153  0.00  0.00    -0.061 Cl
ATOM     21  N   LIG    1       26.442 -26.524   6.599  0.00  0.00    -0.243 NA
ATOM     22  C   LIG    1       25.767 -27.641   6.262  0.00  0.00    +0.112 A 
ATOM     23  C   LIG    1       24.429 -27.649   5.922  0.00  0.00    +0.020 A 
ATOM     24  C   LIG    1       23.749 -26.432   5.909  0.00  0.00    +0.017 A 
ENDBRANCH  15  18
ENDBRANCH   1  16
TORSDOF 3
ENDMDL
MODEL 4
REMARK VINA RESULT:      -7.7      2.524      4.556
REMARK  Name = *****
REMARK                            x       y       z     vdW  Elec       q    Type
REMARK                         _______ _______ _______ _____ _____    ______ ____
ROOT
ATOM      1  C   LIG    1       25.667 -20.458   5.018  0.00  0.00    +0.041 A 
ATOM      2  C   LIG    1       24.841 -21.612   4.837  0.00  0.00    +0.003 A 
ATOM      3  C   LIG    1       23.703 -21.453   4.001  0.00  0.00    +0.010 A 
ATOM      4  C   LIG    1       23.390 -20.254   3.359  0.00  0.00    +0.001 A 
ATOM      5  C   LIG    1       24.189 -19.147   3.562  0.00  0.00    +0.002 A 
ATOM      6  C   LIG    1       25.302 -19.248   4.391  0.00  0.00    +0.024 A 
ENDROOT
BRANCH   2   7
ATOM      7  C   LIG    1       25.071 -22.975   5.438  0.00  0.00    -0.016 A 
ATOM      8  C   LIG    1       24.912 -24.147   4.658  0.00  0.00    +0.010 A 
ATOM      9  C   LIG    1       25.105 -25.433   5.182  0.00  0.00    +0.020 A 
ATOM     10  C   LIG    1       25.509 -25.584   6.499  0.00  0.00    +0.041 A 
ATOM     11 CL   LIG    1       25.799 -27.156   7.135  0.00  0.00    -0.084 Cl
ATOM     12  C   LIG    1       25.665 -24.464   7.304  0.00  0.00    +0.020 A 
ATOM     13  C   LIG    1       25.403 -23.182   6.789  0.00  0.00    +0.010 A 
ENDBRANCH   2   7
BRANCH   1  16
ATOM     14  O   LIG    1       28.135 -18.765   4.921  0.00  0.00    -0.270 OA
ATOM     15  C   LIG    1       27.982 -19.695   5.699  0.00  0.00    +0.251 C 
ATOM     16  N   LIG    1       26.865 -20.519   5.785  0.00  0.00    -0.281 N 
ATOM     17  H   LIG    1       26.916 -21.290   6.436  0.00  0.00    +0.155 HD
BRANCH  15  18
ATOM     18  C   LIG    1       29.080 -19.916   6.681  0.00  0.00    +0.074 A 
ATOM     19  C   LIG    1       29.029 -20.718   7.813  0.00  0.00    +0.141 A 
ATOM     20 CL   LIG    1       27.687 -21.701   8.258  0.00  0.00    -0.061 Cl
ATOM     21  N   LIG    1       30.051 -20.865   8.692  0.00  0.00    -0.243 NA
ATOM     22  C   LIG    1       31.199 -20.212   8.421  0.00  0.00    +0.112 A 
ATOM     23  C   LIG    1       31.375 -19.412   7.309  0.00  0.00    +0.020 A 
ATOM     24  C   LIG    1       30.301 -19.260   6.434  0.00  0.00    +0.017 A 
ENDBRANCH  15  18
ENDBRANCH   1  16
TORSDOF 3
ENDMDL
MODEL 5
REMARK VINA RESULT:      -7.3      2.192      5.153
REMARK  Name = *****
REMARK                            x       y       z     vdW  Elec       q    Type
REMARK                         _______ _______ _______ _____ _____    ______ ____
ROOT
ATOM      1  C   LIG    1       24.671 -23.686   5.879  0.00  0.00    +0.041 A 
ATOM      2  C   LIG    1       25.786 -23.726   6.775  0.00  0.00    +0.003 A 
ATOM      3  C   LIG    1       26.162 -25.007   7.261  0.00  0.00    +0.010 A 
ATOM      4  C   LIG    1       25.513 -26.185   6.888  0.00  0.00    +0.001 A 
ATOM      5  C   LIG    1       24.429 -26.123   6.037  0.00  0.00    +0.002 A 
ATOM      6  C   LIG    1       24.008 -24.888   5.553  0.00  0.00    +0.024 A 
ENDROOT
BRANCH   2   7
ATOM      7  C   LIG    1       26.599 -22.545   7.239  0.00  0.00    -0.016 A 
ATOM      8  C   LIG    1       27.933 -22.365   6.798  0.00  0.00    +0.010 A 
ATOM      9  C   LIG    1       28.726 -21.287   7.215  0.00  0.00    +0.020 A 
ATOM     10  C   LIG    1       28.190 -20.326   8.057  0.00  0.00    +0.041 A 
ATOM     11 CL   LIG    1       29.138 -18.971   8.532  0.00  0.00    -0.084 Cl
ATOM     12  C   LIG    1       26.890 -20.468   8.525  0.00  0.00    +0.020 A 
ATOM     13  C   LIG    1       26.125 -21.588   8.155  0.00  0.00    +0.010 A 
ENDBRANCH   2   7
BRANCH   1  16
ATOM     14  O   LIG    1       22.966 -21.475   6.962  0.00  0.00    -0.270 OA
ATOM     15  C   LIG    1       23.455 -21.466   5.841  0.00  0.00    +0.251 C 
ATOM     16  N   LIG    1       24.246 -22.464   5.282  0.00  0.00    -0.281 N 
ATOM     17  H   LIG    1       24.520 -22.343   4.318  0.00  0.00    +0.155 HD
BRANCH  15  18
ATOM     18  C   LIG    1       23.222 -20.237   5.033  0.00  0.00    +0.074 A 
ATOM     19  C   LIG    1       24.188 -19.464   4.404  0.00  0.00    +0.141 A 
ATOM     20 CL   LIG    1       25.868 -19.839   4.361  0.00  0.00    -0.061 Cl
ATOM     21  N   LIG    1       23.925 -18.336   3.700  0.00  0.00    -0.243 NA
ATOM     22  C   LIG    1       22.634 -17.967   3.582  0.00  0.00    +0.112 A 
ATOM     23  C   LIG    1       21.587 -18.675   4.139  0.00  0.00    +0.020 A 
ATOM     24  C   LIG    1       21.887 -19.818   4.876  0.00  0.00    +0.017 A 
ENDBRANCH  15  18
ENDBRANCH   1  16
TORSDOF 3
ENDMDL
MODEL 6
REMARK VINA RESULT:      -7.0      5.624      7.902
REMARK  Name = *****
REMARK                            x       y       z     vdW  Elec       q    Type
REMARK                         _______ _______ _______ _____ _____    ______ ____
ROOT
ATOM      1  C   LIG    1       25.445 -30.035   7.738  0.00  0.00    +0.041 A 
ATOM      2  C   LIG    1       25.361 -29.258   6.540  0.00  0.00    +0.003 A 
ATOM      3  C   LIG    1       25.390 -29.979   5.315  0.00  0.00    +0.010 A 
ATOM      4  C   LIG    1       25.472 -31.370   5.250  0.00  0.00    +0.001 A 
ATOM      5  C   LIG    1       25.570 -32.099   6.417  0.00  0.00    +0.002 A 
ATOM      6  C   LIG    1       25.570 -31.437   7.641  0.00  0.00    +0.024 A 
ENDROOT
BRANCH   2   7
ATOM      7  C   LIG    1       25.237 -27.759   6.457  0.00  0.00    -0.016 A 
ATOM      8  C   LIG    1       24.216 -27.159   5.680  0.00  0.00    +0.010 A 
ATOM      9  C   LIG    1       24.072 -25.768   5.567  0.00  0.00    +0.020 A 
ATOM     10  C   LIG    1       24.926 -24.932   6.269  0.00  0.00    +0.041 A 
ATOM     11 CL   LIG    1       24.725 -23.226   6.179  0.00  0.00    -0.084 Cl
ATOM     12  C   LIG    1       25.950 -25.476   7.032  0.00  0.00    +0.020 A 
ATOM     13  C   LIG    1       26.128 -26.869   7.084  0.00  0.00    +0.010 A 
ENDBRANCH   2   7
BRANCH   1  16
ATOM     14  O   LIG    1       27.527 -29.667   9.859  0.00  0.00    -0.270 OA
ATOM     15  C   LIG    1       26.374 -29.274   9.966  0.00  0.00    +0.251 C 
ATOM     16  N   LIG    1       25.364 -29.424   9.022  0.00  0.00    -0.281 N 
ATOM     17  H   LIG    1       24.442 -29.106   9.286  0.00  0.00    +0.155 HD
BRANCH  15  18
ATOM     18  C   LIG    1       26.053 -28.516  11.207  0.00  0.00    +0.074 A 
ATOM     19  C   LIG    1       24.982 -28.743  12.061  0.00  0.00    +0.141 A 
ATOM     20 CL   LIG    1       23.849 -30.028  11.893  0.00  0.00    -0.061 Cl
ATOM     21  N   LIG    1       24.717 -28.005  13.167  0.00  0.00    -0.243 NA
ATOM     22  C   LIG    1       25.576 -27.009  13.466  0.00  0.00    +0.112 A 
ATOM     23  C   LIG    1       26.691 -26.713  12.708  0.00  0.00    +0.020 A 
ATOM     24  C   LIG    1       26.927 -27.473  11.564  0.00  0.00    +0.017 A 
ENDBRANCH  15  18
ENDBRANCH   1  16
TORSDOF 3
ENDMDL
MODEL 7
REMARK VINA RESULT:      -6.9      2.818      6.289
REMARK  Name = *****
REMARK                            x       y       z     vdW  Elec       q    Type
REMARK                         _______ _______ _______ _____ _____    ______ ____
ROOT
ATOM      1  C   LIG    1       24.835 -21.158   4.473  0.00  0.00    +0.041 A 
ATOM      2  C   LIG    1       25.661 -20.051   4.849  0.00  0.00    +0.003 A 
ATOM      3  C   LIG    1       25.299 -18.783   4.321  0.00  0.00    +0.010 A 
ATOM      4  C   LIG    1       24.192 -18.588   3.494  0.00  0.00    +0.001 A 
ATOM      5  C   LIG    1       23.419 -19.671   3.128  0.00  0.00    +0.002 A 
ATOM      6  C   LIG    1       23.748 -20.938   3.602  0.00  0.00    +0.024 A 
ENDROOT
BRANCH   2   7
ATOM      7  C   LIG    1       26.863 -20.105   5.755  0.00  0.00    -0.016 A 
ATOM      8  C   LIG    1       26.737 -20.523   7.103  0.00  0.00    +0.010 A 
ATOM      9  C   LIG    1       27.828 -20.576   7.982  0.00  0.00    +0.020 A 
ATOM     10  C   LIG    1       29.095 -20.252   7.523  0.00  0.00    +0.041 A 
ATOM     11 CL   LIG    1       30.448 -20.365   8.579  0.00  0.00    -0.084 Cl
ATOM     12  C   LIG    1       29.265 -19.825   6.212  0.00  0.00    +0.020 A 
ATOM     13  C   LIG    1       28.154 -19.710   5.358  0.00  0.00    +0.010 A 
ENDBRANCH   2   7
BRANCH   1  16
ATOM     14  O   LIG    1       23.104 -22.922   6.164  0.00  0.00    -0.270 OA
ATOM     15  C   LIG    1       24.216 -23.242   5.770  0.00  0.00    +0.251 C 
ATOM     16  N   LIG    1       25.067 -22.464   4.992  0.00  0.00    -0.281 N 
ATOM     17  H   LIG    1       25.986 -22.840   4.804  0.00  0.00    +0.155 HD
BRANCH  15  18
ATOM     18  C   LIG    1       24.665 -24.619   6.117  0.00  0.00    +0.074 A 
ATOM     19  C   LIG    1       25.623 -24.965   7.059  0.00  0.00    +0.141 A 
ATOM     20 CL   LIG    1       26.430 -23.848   8.093  0.00  0.00    -0.061 Cl
ATOM     21  N   LIG    1       26.016 -26.236   7.319  0.00  0.00    -0.243 NA
ATOM     22  C   LIG    1       25.405 -27.224   6.635  0.00  0.00    +0.112 A 
ATOM     23  C   LIG    1       24.416 -27.001   5.697  0.00  0.00    +0.020 A 
ATOM     24  C   LIG    1       24.048 -25.684   5.434  0.00  0.00    +0.017 A 
ENDBRANCH  15  18
ENDBRANCH   1  16
TORSDOF 3
ENDMDL
