MODEL 1
REMARK VINA RESULT:      -7.3      0.000      0.000
REMARK  Name = *****
REMARK                            x       y       z     vdW  Elec       q    Type
REMARK                         _______ _______ _______ _____ _____    ______ ____
ROOT
ATOM      1  C   LIG    1       24.425 -20.578   5.581  0.00  0.00    -0.006 C 
ATOM      2  C   LIG    1       24.376 -21.357   6.894  0.00  0.00    +0.106 C 
ATOM      3  S   LIG    1       25.876 -21.186   7.936  0.00  0.00    -0.131 S 
ATOM      4  C   LIG    1       26.960 -21.478   6.524  0.00  0.00    +0.169 C 
ATOM      5  N   LIG    1       26.756 -20.330   5.653  0.00  0.00    -0.249 N 
ATOM      6  C   LIG    1       28.026 -19.876   5.696  0.00  0.00    +0.244 C 
ATOM      7  O   LIG    1       28.512 -18.879   5.240  0.00  0.00    -0.273 OA
ATOM      8  CA  LIG    1       28.465 -21.083   6.564  0.00  0.00    +0.191 C 
ATOM      9  CA  LIG    1       25.564 -20.026   5.066  0.00  0.00    +0.124 C 
ENDROOT
BRANCH   8  10
ATOM     10  N   LIG    1       29.140 -20.773   7.842  0.00  0.00    -0.296 N 
ATOM     11  H   LIG    1       28.670 -20.923   8.732  0.00  0.00    +0.150 HD
ATOM     12  C   LIG    1       30.403 -20.199   7.847  0.00  0.00    +0.268 C 
ATOM     13  O   LIG    1       31.012 -19.982   6.809  0.00  0.00    -0.268 OA
BRANCH  12  14
ATOM     14  C   LIG    1       30.962 -19.832   9.241  0.00  0.00    +0.190 C 
ATOM     15  N   LIG    1       31.135 -20.687  10.213  0.00  0.00    -0.078 NA
BRANCH  14  16
ATOM     16  C   LIG    1       31.335 -18.450   9.546  0.00  0.00    +0.107 A 
ATOM     17  N   LIG    1       31.085 -17.890  10.796  0.00  0.00    -0.223 NA
ATOM     18  C   LIG    1       31.557 -16.669  10.856  0.00  0.00    +0.156 A 
ATOM     19  S   LIG    1       32.233 -16.071   9.398  0.00  0.00    -0.060 S 
ATOM     20  C   LIG    1       31.938 -17.583   8.652  0.00  0.00    +0.078 A 
BRANCH  18  21
ATOM     21  N   LIG    1       31.528 -15.923  11.970  0.00  0.00    -0.338 N 
ATOM     22  H   LIG    1       31.426 -16.432  12.841  0.00  0.00    +0.144 HD
ATOM     23  H   LIG    1       32.165 -15.136  12.027  0.00  0.00    +0.144 HD
ENDBRANCH  18  21
ENDBRANCH  14  16
BRANCH  15  24
ATOM     24  O   LIG    1       30.748 -21.984   9.858  0.00  0.00    -0.396 OA
ATOM     25  C   LIG    1       31.766 -22.561   9.048  0.00  0.00    +0.313 C 
ENDBRANCH  15  24
ENDBRANCH  12  14
ENDBRANCH   8  10
BRANCH   9  26
ATOM     26  C   LIG    1       25.529 -19.149   3.835  0.00  0.00    +0.351 C 
ATOM     27  O   LIG    1       25.556 -17.929   3.866  0.00  0.00    -0.244 OA
BRANCH  26  28
ATOM     28  OXT LIG    1       25.476 -19.785   2.648  0.00  0.00    -0.476 OA
ATOM     29  HXT LIG    1       26.104 -20.525   2.489  0.00  0.00    +0.295 HD
ENDBRANCH  26  28
ENDBRANCH   9  26
BRANCH   1  30
ATOM     30  C   LIG    1       23.053 -20.486   4.941  0.00  0.00    +0.193 C 
BRANCH  30  32
ATOM     31  C   LIG    1       22.020 -18.442   4.373  0.00  0.00    +0.194 C 
ATOM     32  O   LIG    1       22.428 -19.300   5.435  0.00  0.00    -0.379 OA
ENDBRANCH  30  32
ENDBRANCH   1  30
TORSDOF 9
ENDMDL
MODEL 2
REMARK VINA RESULT:      -6.1     10.102     11.356
REMARK  Name = *****
REMARK                            x       y       z     vdW  Elec       q    Type
REMARK                         _______ _______ _______ _____ _____    ______ ____
ROOT
ATOM      1  C   LIG    1       24.060 -32.195   7.196  0.00  0.00    -0.006 C 
ATOM      2  C   LIG    1       24.083 -33.030   8.475  0.00  0.00    +0.106 C 
ATOM      3  S   LIG    1       24.637 -32.119   9.967  0.00  0.00    -0.131 S 
ATOM      4  C   LIG    1       26.046 -31.418   9.086  0.00  0.00    +0.169 C 
ATOM      5  N   LIG    1       25.461 -30.538   8.086  0.00  0.00    -0.249 N 
ATOM      6  C   LIG    1       26.016 -29.395   8.541  0.00  0.00    +0.244 C 
ATOM      7  O   LIG    1       25.856 -28.259   8.191  0.00  0.00    -0.273 OA
ATOM      8  CA  LIG    1       26.801 -30.170   9.630  0.00  0.00    +0.191 C 
ATOM      9  CA  LIG    1       24.653 -30.970   7.077  0.00  0.00    +0.124 C 
ENDROOT
BRANCH   8  10
ATOM     10  N   LIG    1       26.623 -29.717  11.027  0.00  0.00    -0.296 N 
ATOM     11  H   LIG    1       25.696 -29.654  11.441  0.00  0.00    +0.150 HD
ATOM     12  C   LIG    1       27.714 -29.297  11.772  0.00  0.00    +0.268 C 
ATOM     13  O   LIG    1       28.850 -29.337  11.323  0.00  0.00    -0.268 OA
BRANCH  12  14
ATOM     14  C   LIG    1       27.388 -28.755  13.183  0.00  0.00    +0.190 C 
ATOM     15  N   LIG    1       27.877 -29.245  14.290  0.00  0.00    -0.078 NA
BRANCH  14  16
ATOM     16  C   LIG    1       26.477 -27.621  13.346  0.00  0.00    +0.107 A 
ATOM     17  N   LIG    1       25.101 -27.768  13.187  0.00  0.00    -0.223 NA
ATOM     18  C   LIG    1       24.486 -26.639  13.439  0.00  0.00    +0.156 A 
ATOM     19  S   LIG    1       25.510 -25.305  13.775  0.00  0.00    -0.060 S 
ATOM     20  C   LIG    1       26.873 -26.331  13.647  0.00  0.00    +0.078 A 
BRANCH  18  21
ATOM     21  N   LIG    1       23.151 -26.513  13.443  0.00  0.00    -0.338 N 
ATOM     22  H   LIG    1       22.793 -25.589  13.225  0.00  0.00    +0.144 HD
ATOM     23  H   LIG    1       22.604 -27.268  13.045  0.00  0.00    +0.144 HD
ENDBRANCH  18  21
ENDBRANCH  14  16
BRANCH  15  24
ATOM     24  O   LIG    1       28.729 -30.332  14.063  0.00  0.00    -0.396 OA
ATOM     25  C   LIG    1       29.999 -30.045  14.636  0.00  0.00    +0.313 C 
ENDBRANCH  15  24
ENDBRANCH  12  14
ENDBRANCH   8  10
BRANCH   9  26
ATOM     26  C   LIG    1       24.481 -30.128   5.832  0.00  0.00    +0.351 C 
ATOM     27  O   LIG    1       25.376 -29.899   5.034  0.00  0.00    -0.244 OA
BRANCH  26  28
ATOM     28  OXT LIG    1       23.250 -29.623   5.618  0.00  0.00    -0.476 OA
ATOM     29  HXT LIG    1       23.019 -28.766   6.039  0.00  0.00    +0.295 HD
ENDBRANCH  26  28
ENDBRANCH   9  26
BRANCH   1  30
ATOM     30  C   LIG    1       23.285 -32.893   6.095  0.00  0.00    +0.193 C 
BRANCH  30  32
ATOM     31  C   LIG    1       24.427 -33.475   4.113  0.00  0.00    +0.194 C 
ATOM     32  O   LIG    1       24.171 -33.824   5.471  0.00  0.00    -0.379 OA
ENDBRANCH  30  32
ENDBRANCH   1  30
TORSDOF 9
ENDMDL
MODEL 3
REMARK VINA RESULT:      -6.0     10.746     13.092
REMARK  Name = *****
REMARK                            x       y       z     vdW  Elec       q    Type
REMARK                         _______ _______ _______ _____ _____    ______ ____
ROOT
ATOM      1  C   LIG    1       19.812 -29.753  13.420  0.00  0.00    -0.006 C 
ATOM      2  C   LIG    1       20.874 -28.840  14.029  0.00  0.00    +0.106 C 
ATOM      3  S   LIG    1       22.373 -28.622  12.995  0.00  0.00    -0.131 S 
ATOM      4  C   LIG    1       22.492 -30.397  12.693  0.00  0.00    +0.169 C 
ATOM      5  N   LIG    1       21.314 -30.720  11.901  0.00  0.00    -0.249 N 
ATOM      6  C   LIG    1       21.977 -31.156  10.809  0.00  0.00    +0.244 C 
ATOM      7  O   LIG    1       21.568 -31.496   9.734  0.00  0.00    -0.273 OA
ATOM      8  CA  LIG    1       23.342 -30.962  11.518  0.00  0.00    +0.191 C 
ATOM      9  CA  LIG    1       20.036 -30.571  12.348  0.00  0.00    +0.124 C 
ENDROOT
BRANCH   8  10
ATOM     10  N   LIG    1       24.340 -30.121  10.822  0.00  0.00    -0.296 N 
ATOM     11  H   LIG    1       24.369 -29.115  10.970  0.00  0.00    +0.150 HD
ATOM     12  C   LIG    1       25.205 -30.682   9.895  0.00  0.00    +0.268 C 
ATOM     13  O   LIG    1       25.207 -31.883   9.665  0.00  0.00    -0.268 OA
BRANCH  12  14
ATOM     14  C   LIG    1       26.134 -29.686   9.163  0.00  0.00    +0.190 C 
ATOM     15  N   LIG    1       27.366 -29.434   9.515  0.00  0.00    -0.078 NA
BRANCH  14  16
ATOM     16  C   LIG    1       25.651 -28.948   7.995  0.00  0.00    +0.107 A 
ATOM     17  N   LIG    1       24.786 -29.534   7.073  0.00  0.00    -0.223 NA
ATOM     18  C   LIG    1       24.444 -28.669   6.150  0.00  0.00    +0.156 A 
ATOM     19  S   LIG    1       25.211 -27.139   6.258  0.00  0.00    -0.060 S 
ATOM     20  C   LIG    1       26.003 -27.646   7.687  0.00  0.00    +0.078 A 
BRANCH  18  21
ATOM     21  N   LIG    1       23.556 -28.939   5.182  0.00  0.00    -0.338 N 
ATOM     22  H   LIG    1       22.647 -28.499   5.281  0.00  0.00    +0.144 HD
ATOM     23  H   LIG    1       23.894 -28.970   4.227  0.00  0.00    +0.144 HD
ENDBRANCH  18  21
ENDBRANCH  14  16
BRANCH  15  24
ATOM     24  O   LIG    1       27.758 -30.162  10.644  0.00  0.00    -0.396 OA
ATOM     25  C   LIG    1       28.199 -29.251  11.646  0.00  0.00    +0.313 C 
ENDBRANCH  15  24
ENDBRANCH  12  14
ENDBRANCH   8  10
BRANCH   9  26
ATOM     26  C   LIG    1       18.912 -31.349  11.701  0.00  0.00    +0.351 C 
ATOM     27  O   LIG    1       18.399 -32.342  12.193  0.00  0.00    -0.244 OA
BRANCH  26  28
ATOM     28  OXT LIG    1       18.468 -30.885  10.516  0.00  0.00    -0.476 OA
ATOM     29  HXT LIG    1       19.002 -30.200  10.056  0.00  0.00    +0.295 HD
ENDBRANCH  26  28
ENDBRANCH   9  26
BRANCH   1  30
ATOM     30  C   LIG    1       18.487 -29.622  14.147  0.00  0.00    +0.193 C 
BRANCH  30  32
ATOM     31  C   LIG    1       16.980 -27.829  14.433  0.00  0.00    +0.194 C 
ATOM     32  O   LIG    1       18.338 -28.251  14.520  0.00  0.00    -0.379 OA
ENDBRANCH  30  32
ENDBRANCH   1  30
TORSDOF 9
ENDMDL
MODEL 4
REMARK VINA RESULT:      -6.0      3.304      8.263
REMARK  Name = *****
REMARK                            x       y       z     vdW  Elec       q    Type
REMARK                         _______ _______ _______ _____ _____    ______ ____
ROOT
ATOM      1  C   LIG    1       30.315 -20.296   8.003  0.00  0.00    -0.006 C 
ATOM      2  C   LIG    1       29.727 -21.416   8.858  0.00  0.00    +0.106 C 
ATOM      3  S   LIG    1       28.218 -22.191   8.161  0.00  0.00    -0.131 S 
ATOM      4  C   LIG    1       27.486 -20.582   7.803  0.00  0.00    +0.169 C 
ATOM      5  N   LIG    1       28.339 -20.005   6.775  0.00  0.00    -0.249 N 
ATOM      6  C   LIG    1       27.390 -19.913   5.820  0.00  0.00    +0.244 C 
ATOM      7  O   LIG    1       27.472 -19.585   4.669  0.00  0.00    -0.273 OA
ATOM      8  CA  LIG    1       26.307 -20.434   6.799  0.00  0.00    +0.191 C 
ATOM      9  CA  LIG    1       29.656 -19.708   6.961  0.00  0.00    +0.124 C 
ENDROOT
BRANCH   8  10
ATOM     10  N   LIG    1       25.524 -21.610   6.361  0.00  0.00    -0.296 N 
ATOM     11  H   LIG    1       25.557 -21.928   5.395  0.00  0.00    +0.150 HD
ATOM     12  C   LIG    1       24.672 -22.255   7.244  0.00  0.00    +0.268 C 
ATOM     13  O   LIG    1       24.580 -21.909   8.413  0.00  0.00    -0.268 OA
BRANCH  12  14
ATOM     14  C   LIG    1       23.835 -23.407   6.642  0.00  0.00    +0.190 C 
ATOM     15  N   LIG    1       22.611 -23.278   6.205  0.00  0.00    -0.078 NA
BRANCH  14  16
ATOM     16  C   LIG    1       24.402 -24.752   6.534  0.00  0.00    +0.107 A 
ATOM     17  N   LIG    1       23.656 -25.816   6.034  0.00  0.00    -0.223 NA
ATOM     18  C   LIG    1       24.385 -26.902   5.975  0.00  0.00    +0.156 A 
ATOM     19  S   LIG    1       25.972 -26.756   6.609  0.00  0.00    -0.060 S 
ATOM     20  C   LIG    1       25.686 -25.097   6.918  0.00  0.00    +0.078 A 
BRANCH  18  21
ATOM     21  N   LIG    1       23.945 -28.058   5.456  0.00  0.00    -0.338 N 
ATOM     22  H   LIG    1       23.380 -27.979   4.617  0.00  0.00    +0.144 HD
ATOM     23  H   LIG    1       24.584 -28.845   5.447  0.00  0.00    +0.144 HD
ENDBRANCH  18  21
ENDBRANCH  14  16
BRANCH  15  24
ATOM     24  O   LIG    1       22.128 -21.972   6.350  0.00  0.00    -0.396 OA
ATOM     25  C   LIG    1       22.130 -21.339   5.076  0.00  0.00    +0.313 C 
ENDBRANCH  15  24
ENDBRANCH  12  14
ENDBRANCH   8  10
BRANCH   9  26
ATOM     26  C   LIG    1       30.339 -18.700   6.063  0.00  0.00    +0.351 C 
ATOM     27  O   LIG    1       31.503 -18.782   5.707  0.00  0.00    -0.244 OA
BRANCH  26  28
ATOM     28  OXT LIG    1       29.582 -17.667   5.640  0.00  0.00    -0.476 OA
ATOM     29  HXT LIG    1       29.412 -16.929   6.267  0.00  0.00    +0.295 HD
ENDBRANCH  26  28
ENDBRANCH   9  26
BRANCH   1  30
ATOM     30  C   LIG    1       31.720 -19.937   8.453  0.00  0.00    +0.193 C 
BRANCH  30  32
ATOM     31  C   LIG    1       31.875 -17.752   9.329  0.00  0.00    +0.194 C 
ATOM     32  O   LIG    1       31.601 -19.120   9.619  0.00  0.00    -0.379 OA
ENDBRANCH  30  32
ENDBRANCH   1  30
TORSDOF 9
ENDMDL
MODEL 5
REMARK VINA RESULT:      -5.8      3.310      7.922
REMARK  Name = *****
REMARK                            x       y       z     vdW  Elec       q    Type
REMARK                         _______ _______ _______ _____ _____    ______ ____
ROOT
ATOM      1  C   LIG    1       30.716 -18.834   7.445  0.00  0.00    -0.006 C 
ATOM      2  C   LIG    1       30.113 -18.359   6.124  0.00  0.00    +0.106 C 
ATOM      3  S   LIG    1       28.450 -19.040   5.760  0.00  0.00    -0.131 S 
ATOM      4  C   LIG    1       28.977 -20.711   6.190  0.00  0.00    +0.169 C 
ATOM      5  N   LIG    1       29.253 -20.658   7.617  0.00  0.00    -0.249 N 
ATOM      6  C   LIG    1       28.324 -21.565   7.988  0.00  0.00    +0.244 C 
ATOM      7  O   LIG    1       27.975 -21.920   9.079  0.00  0.00    -0.273 OA
ATOM      8  CA  LIG    1       27.942 -21.828   6.509  0.00  0.00    +0.191 C 
ATOM      9  CA  LIG    1       30.223 -19.879   8.173  0.00  0.00    +0.124 C 
ENDROOT
BRANCH   8  10
ATOM     10  N   LIG    1       26.515 -21.674   6.153  0.00  0.00    -0.296 N 
ATOM     11  H   LIG    1       26.161 -20.795   5.781  0.00  0.00    +0.150 HD
ATOM     12  C   LIG    1       25.617 -22.703   6.393  0.00  0.00    +0.268 C 
ATOM     13  O   LIG    1       25.980 -23.776   6.851  0.00  0.00    -0.268 OA
BRANCH  12  14
ATOM     14  C   LIG    1       24.138 -22.386   6.069  0.00  0.00    +0.190 C 
ATOM     15  N   LIG    1       23.141 -23.189   6.325  0.00  0.00    -0.078 NA
BRANCH  14  16
ATOM     16  C   LIG    1       23.777 -21.119   5.432  0.00  0.00    +0.107 A 
ATOM     17  N   LIG    1       24.695 -20.403   4.667  0.00  0.00    -0.223 NA
ATOM     18  C   LIG    1       24.133 -19.339   4.151  0.00  0.00    +0.156 A 
ATOM     19  S   LIG    1       22.508 -19.062   4.627  0.00  0.00    -0.060 S 
ATOM     20  C   LIG    1       22.537 -20.514   5.533  0.00  0.00    +0.078 A 
BRANCH  18  21
ATOM     21  N   LIG    1       24.762 -18.511   3.303  0.00  0.00    -0.338 N 
ATOM     22  H   LIG    1       25.315 -18.957   2.579  0.00  0.00    +0.144 HD
ATOM     23  H   LIG    1       24.262 -17.688   2.989  0.00  0.00    +0.144 HD
ENDBRANCH  18  21
ENDBRANCH  14  16
BRANCH  15  24
ATOM     24  O   LIG    1       23.557 -24.384   6.922  0.00  0.00    -0.396 OA
ATOM     25  C   LIG    1       23.662 -25.386   5.916  0.00  0.00    +0.313 C 
ENDBRANCH  15  24
ENDBRANCH  12  14
ENDBRANCH   8  10
BRANCH   9  26
ATOM     26  C   LIG    1       30.774 -20.218   9.541  0.00  0.00    +0.351 C 
ATOM     27  O   LIG    1       31.210 -21.316   9.848  0.00  0.00    -0.244 OA
BRANCH  26  28
ATOM     28  OXT LIG    1       30.779 -19.221  10.447  0.00  0.00    -0.476 OA
ATOM     29  HXT LIG    1       30.679 -19.455  11.397  0.00  0.00    +0.295 HD
ENDBRANCH  26  28
ENDBRANCH   9  26
BRANCH   1  30
ATOM     30  C   LIG    1       31.911 -17.989   7.842  0.00  0.00    +0.193 C 
BRANCH  30  32
ATOM     31  C   LIG    1       32.493 -16.340   9.427  0.00  0.00    +0.194 C 
ATOM     32  O   LIG    1       31.433 -16.942   8.689  0.00  0.00    -0.379 OA
ENDBRANCH  30  32
ENDBRANCH   1  30
TORSDOF 9
ENDMDL
MODEL 6
REMARK VINA RESULT:      -5.8      9.277     12.465
REMARK  Name = *****
REMARK                            x       y       z     vdW  Elec       q    Type
REMARK                         _______ _______ _______ _____ _____    ______ ____
ROOT
ATOM      1  C   LIG    1       26.615 -28.104  13.363  0.00  0.00    -0.006 C 
ATOM      2  C   LIG    1       27.499 -28.009  12.121  0.00  0.00    +0.106 C 
ATOM      3  S   LIG    1       26.612 -28.268  10.536  0.00  0.00    -0.131 S 
ATOM      4  C   LIG    1       25.774 -29.730  11.178  0.00  0.00    +0.169 C 
ATOM      5  N   LIG    1       24.899 -29.228  12.227  0.00  0.00    -0.249 N 
ATOM      6  C   LIG    1       23.738 -29.620  11.660  0.00  0.00    +0.244 C 
ATOM      7  O   LIG    1       22.603 -29.424  11.995  0.00  0.00    -0.273 OA
ATOM      8  CA  LIG    1       24.498 -30.298  10.492  0.00  0.00    +0.191 C 
ATOM      9  CA  LIG    1       25.346 -28.611  13.357  0.00  0.00    +0.124 C 
ENDROOT
BRANCH   8  10
ATOM     10  N   LIG    1       24.118 -29.885   9.123  0.00  0.00    -0.296 N 
ATOM     11  H   LIG    1       23.282 -29.329   8.959  0.00  0.00    +0.150 HD
ATOM     12  C   LIG    1       24.856 -30.315   8.031  0.00  0.00    +0.268 C 
ATOM     13  O   LIG    1       25.862 -30.996   8.165  0.00  0.00    -0.268 OA
BRANCH  12  14
ATOM     14  C   LIG    1       24.303 -29.899   6.648  0.00  0.00    +0.190 C 
ATOM     15  N   LIG    1       23.516 -30.641   5.917  0.00  0.00    -0.078 NA
BRANCH  14  16
ATOM     16  C   LIG    1       24.655 -28.600   6.072  0.00  0.00    +0.107 A 
ATOM     17  N   LIG    1       23.883 -27.466   6.313  0.00  0.00    -0.223 NA
ATOM     18  C   LIG    1       24.421 -26.414   5.748  0.00  0.00    +0.156 A 
ATOM     19  S   LIG    1       25.821 -26.724   4.805  0.00  0.00    -0.060 S 
ATOM     20  C   LIG    1       25.741 -28.375   5.246  0.00  0.00    +0.078 A 
BRANCH  18  21
ATOM     21  N   LIG    1       23.933 -25.173   5.886  0.00  0.00    -0.338 N 
ATOM     22  H   LIG    1       23.544 -24.755   5.048  0.00  0.00    +0.144 HD
ATOM     23  H   LIG    1       23.411 -24.963   6.729  0.00  0.00    +0.144 HD
ENDBRANCH  18  21
ENDBRANCH  14  16
BRANCH  15  24
ATOM     24  O   LIG    1       23.231 -31.872   6.520  0.00  0.00    -0.396 OA
ATOM     25  C   LIG    1       23.579 -32.915   5.617  0.00  0.00    +0.313 C 
ENDBRANCH  15  24
ENDBRANCH  12  14
ENDBRANCH   8  10
BRANCH   9  26
ATOM     26  C   LIG    1       24.467 -28.555  14.586  0.00  0.00    +0.351 C 
ATOM     27  O   LIG    1       24.254 -29.509  15.316  0.00  0.00    -0.244 OA
BRANCH  26  28
ATOM     28  OXT LIG    1       23.910 -27.360  14.868  0.00  0.00    -0.476 OA
ATOM     29  HXT LIG    1       23.652 -26.779  14.119  0.00  0.00    +0.295 HD
ENDBRANCH  26  28
ENDBRANCH   9  26
BRANCH   1  30
ATOM     30  C   LIG    1       27.321 -27.554  14.588  0.00  0.00    +0.193 C 
BRANCH  30  32
ATOM     31  C   LIG    1       27.928 -25.274  14.618  0.00  0.00    +0.194 C 
ATOM     32  O   LIG    1       26.868 -26.212  14.777  0.00  0.00    -0.379 OA
ENDBRANCH  30  32
ENDBRANCH   1  30
TORSDOF 9
ENDMDL
MODEL 7
REMARK VINA RESULT:      -5.7     10.291     13.342
REMARK  Name = *****
REMARK                            x       y       z     vdW  Elec       q    Type
REMARK                         _______ _______ _______ _____ _____    ______ ____
ROOT
ATOM      1  C   LIG    1       25.602 -28.064  13.025  0.00  0.00    -0.006 C 
ATOM      2  C   LIG    1       26.946 -27.974  12.304  0.00  0.00    +0.106 C 
ATOM      3  S   LIG    1       26.908 -28.526  10.556  0.00  0.00    -0.131 S 
ATOM      4  C   LIG    1       25.989 -30.018  10.986  0.00  0.00    +0.169 C 
ATOM      5  N   LIG    1       24.694 -29.538  11.444  0.00  0.00    -0.249 N 
ATOM      6  C   LIG    1       23.957 -30.152  10.494  0.00  0.00    +0.244 C 
ATOM      7  O   LIG    1       22.784 -30.088  10.256  0.00  0.00    -0.273 OA
ATOM      8  CA  LIG    1       25.220 -30.833   9.908  0.00  0.00    +0.191 C 
ATOM      9  CA  LIG    1       24.523 -28.747  12.540  0.00  0.00    +0.124 C 
ENDROOT
BRANCH   8  10
ATOM     10  N   LIG    1       25.477 -30.628   8.465  0.00  0.00    -0.296 N 
ATOM     11  H   LIG    1       26.007 -29.824   8.139  0.00  0.00    +0.150 HD
ATOM     12  C   LIG    1       24.933 -31.491   7.526  0.00  0.00    +0.268 C 
ATOM     13  O   LIG    1       24.275 -32.466   7.858  0.00  0.00    -0.268 OA
BRANCH  12  14
ATOM     14  C   LIG    1       25.191 -31.116   6.049  0.00  0.00    +0.190 C 
ATOM     15  N   LIG    1       24.820 -29.990   5.500  0.00  0.00    -0.078 NA
BRANCH  14  16
ATOM     16  C   LIG    1       25.889 -32.047   5.161  0.00  0.00    +0.107 A 
ATOM     17  N   LIG    1       25.550 -32.159   3.815  0.00  0.00    -0.223 NA
ATOM     18  C   LIG    1       26.344 -33.006   3.210  0.00  0.00    +0.156 A 
ATOM     19  S   LIG    1       27.477 -33.803   4.223  0.00  0.00    -0.060 S 
ATOM     20  C   LIG    1       26.910 -32.893   5.556  0.00  0.00    +0.078 A 
BRANCH  18  21
ATOM     21  N   LIG    1       26.298 -33.246   1.891  0.00  0.00    -0.338 N 
ATOM     22  H   LIG    1       27.075 -32.886   1.348  0.00  0.00    +0.144 HD
ATOM     23  H   LIG    1       25.975 -34.159   1.589  0.00  0.00    +0.144 HD
ENDBRANCH  18  21
ENDBRANCH  14  16
BRANCH  15  24
ATOM     24  O   LIG    1       24.148 -29.154   6.399  0.00  0.00    -0.396 OA
ATOM     25  C   LIG    1       24.607 -27.819   6.212  0.00  0.00    +0.313 C 
ENDBRANCH  15  24
ENDBRANCH  12  14
ENDBRANCH   8  10
BRANCH   9  26
ATOM     26  C   LIG    1       23.177 -28.688  13.228  0.00  0.00    +0.351 C 
ATOM     27  O   LIG    1       22.806 -29.489  14.070  0.00  0.00    -0.244 OA
BRANCH  26  28
ATOM     28  OXT LIG    1       22.368 -27.669  12.873  0.00  0.00    -0.476 OA
ATOM     29  HXT LIG    1       22.771 -26.785  12.727  0.00  0.00    +0.295 HD
ENDBRANCH  26  28
ENDBRANCH   9  26
BRANCH   1  30
ATOM     30  C   LIG    1       25.623 -27.290  14.330  0.00  0.00    +0.193 C 
BRANCH  30  32
ATOM     31  C   LIG    1       24.841 -25.133  13.780  0.00  0.00    +0.194 C 
ATOM     32  O   LIG    1       25.988 -25.944  14.023  0.00  0.00    -0.379 OA
ENDBRANCH  30  32
ENDBRANCH   1  30
TORSDOF 9
ENDMDL
MODEL 8
REMARK VINA RESULT:      -5.7     10.121     11.738
REMARK  Name = *****
REMARK                            x       y       z     vdW  Elec       q    Type
REMARK                         _______ _______ _______ _____ _____    ______ ____
ROOT
ATOM      1  C   LIG    1       25.408 -28.755   6.849  0.00  0.00    -0.006 C 
ATOM      2  C   LIG    1       26.015 -27.794   7.869  0.00  0.00    +0.106 C 
ATOM      3  S   LIG    1       26.588 -28.592   9.418  0.00  0.00    -0.131 S 
ATOM      4  C   LIG    1       25.055 -29.531   9.569  0.00  0.00    +0.169 C 
ATOM      5  N   LIG    1       25.065 -30.446   8.437  0.00  0.00    -0.249 N 
ATOM      6  C   LIG    1       25.062 -31.586   9.160  0.00  0.00    +0.244 C 
ATOM      7  O   LIG    1       25.155 -32.729   8.810  0.00  0.00    -0.273 OA
ATOM      8  CA  LIG    1       24.962 -30.786  10.484  0.00  0.00    +0.191 C 
ATOM      9  CA  LIG    1       25.050 -30.041   7.135  0.00  0.00    +0.124 C 
ENDROOT
BRANCH   8  10
ATOM     10  N   LIG    1       25.992 -31.064  11.508  0.00  0.00    -0.296 N 
ATOM     11  H   LIG    1       26.822 -31.605  11.280  0.00  0.00    +0.150 HD
ATOM     12  C   LIG    1       25.805 -30.654  12.820  0.00  0.00    +0.268 C 
ATOM     13  O   LIG    1       24.820 -30.013  13.156  0.00  0.00    -0.268 OA
BRANCH  12  14
ATOM     14  C   LIG    1       26.904 -31.089  13.816  0.00  0.00    +0.190 C 
ATOM     15  N   LIG    1       27.033 -32.300  14.288  0.00  0.00    -0.078 NA
BRANCH  14  16
ATOM     16  C   LIG    1       27.889 -30.119  14.298  0.00  0.00    +0.107 A 
ATOM     17  N   LIG    1       29.211 -30.150  13.863  0.00  0.00    -0.223 NA
ATOM     18  C   LIG    1       29.889 -29.156  14.380  0.00  0.00    +0.156 A 
ATOM     19  S   LIG    1       29.027 -28.183  15.500  0.00  0.00    -0.060 S 
ATOM     20  C   LIG    1       27.622 -29.118  15.216  0.00  0.00    +0.078 A 
BRANCH  18  21
ATOM     21  N   LIG    1       31.167 -28.894  14.067  0.00  0.00    -0.338 N 
ATOM     22  H   LIG    1       31.838 -29.009  14.818  0.00  0.00    +0.144 HD
ATOM     23  H   LIG    1       31.505 -29.207  13.164  0.00  0.00    +0.144 HD
ENDBRANCH  18  21
ENDBRANCH  14  16
BRANCH  15  24
ATOM     24  O   LIG    1       26.053 -33.171  13.797  0.00  0.00    -0.396 OA
ATOM     25  C   LIG    1       25.371 -33.760  14.898  0.00  0.00    +0.313 C 
ENDBRANCH  15  24
ENDBRANCH  12  14
ENDBRANCH   8  10
BRANCH   9  26
ATOM     26  C   LIG    1       24.582 -30.990   6.054  0.00  0.00    +0.351 C 
ATOM     27  O   LIG    1       25.313 -31.778   5.476  0.00  0.00    -0.244 OA
BRANCH  26  28
ATOM     28  OXT LIG    1       23.272 -30.943   5.743  0.00  0.00    -0.476 OA
ATOM     29  HXT LIG    1       22.796 -31.792   5.605  0.00  0.00    +0.295 HD
ENDBRANCH  26  28
ENDBRANCH   9  26
BRANCH   1  30
ATOM     30  C   LIG    1       25.272 -28.101   5.486  0.00  0.00    +0.193 C 
BRANCH  30  32
ATOM     31  C   LIG    1       24.985 -25.811   4.995  0.00  0.00    +0.194 C 
ATOM     32  O   LIG    1       24.435 -26.954   5.644  0.00  0.00    -0.379 OA
ENDBRANCH  30  32
ENDBRANCH   1  30
TORSDOF 9
ENDMDL
MODEL 9
REMARK VINA RESULT:      -5.6      7.165      9.430
REMARK  Name = *****
REMARK                            x       y       z     vdW  Elec       q    Type
REMARK                         _______ _______ _______ _____ _____    ______ ____
ROOT
ATOM      1  C   LIG    1       25.722 -30.460   8.794  0.00  0.00    -0.006 C 
ATOM      2  C   LIG    1       26.692 -29.607   9.609  0.00  0.00    +0.106 C 
ATOM      3  S   LIG    1       26.555 -27.803   9.307  0.00  0.00    -0.131 S 
ATOM      4  C   LIG    1       26.538 -28.044   7.520  0.00  0.00    +0.169 C 
ATOM      5  N   LIG    1       25.293 -28.747   7.250  0.00  0.00    -0.249 N 
ATOM      6  C   LIG    1       24.746 -27.796   6.465  0.00  0.00    +0.244 C 
ATOM      7  O   LIG    1       23.654 -27.726   5.973  0.00  0.00    -0.273 OA
ATOM      8  CA  LIG    1       26.030 -26.933   6.558  0.00  0.00    +0.191 C 
ATOM      9  CA  LIG    1       25.005 -29.990   7.730  0.00  0.00    +0.124 C 
ENDROOT
BRANCH   8  10
ATOM     10  N   LIG    1       25.861 -25.538   7.022  0.00  0.00    -0.296 N 
ATOM     11  H   LIG    1       25.902 -25.309   8.012  0.00  0.00    +0.150 HD
ATOM     12  C   LIG    1       25.567 -24.529   6.117  0.00  0.00    +0.268 C 
ATOM     13  O   LIG    1       25.490 -24.747   4.917  0.00  0.00    -0.268 OA
BRANCH  12  14
ATOM     14  C   LIG    1       25.317 -23.134   6.734  0.00  0.00    +0.190 C 
ATOM     15  N   LIG    1       24.180 -22.750   7.249  0.00  0.00    -0.078 NA
BRANCH  14  16
ATOM     16  C   LIG    1       26.389 -22.138   6.767  0.00  0.00    +0.107 A 
ATOM     17  N   LIG    1       27.552 -22.347   7.503  0.00  0.00    -0.223 NA
ATOM     18  C   LIG    1       28.388 -21.353   7.334  0.00  0.00    +0.156 A 
ATOM     19  S   LIG    1       27.804 -20.057   6.376  0.00  0.00    -0.060 S 
ATOM     20  C   LIG    1       26.352 -20.922   6.107  0.00  0.00    +0.078 A 
BRANCH  18  21
ATOM     21  N   LIG    1       29.622 -21.331   7.861  0.00  0.00    -0.338 N 
ATOM     22  H   LIG    1       30.330 -20.858   7.310  0.00  0.00    +0.144 HD
ATOM     23  H   LIG    1       29.706 -21.173   8.858  0.00  0.00    +0.144 HD
ENDBRANCH  18  21
ENDBRANCH  14  16
BRANCH  15  24
ATOM     24  O   LIG    1       23.197 -23.744   7.174  0.00  0.00    -0.396 OA
ATOM     25  C   LIG    1       22.099 -23.245   6.419  0.00  0.00    +0.313 C 
ENDBRANCH  15  24
ENDBRANCH  12  14
ENDBRANCH   8  10
BRANCH   9  26
ATOM     26  C   LIG    1       23.957 -30.840   7.047  0.00  0.00    +0.351 C 
ATOM     27  O   LIG    1       23.232 -31.629   7.631  0.00  0.00    -0.244 OA
BRANCH  26  28
ATOM     28  OXT LIG    1       23.837 -30.684   5.713  0.00  0.00    -0.476 OA
ATOM     29  HXT LIG    1       24.313 -31.314   5.127  0.00  0.00    +0.295 HD
ENDBRANCH  26  28
ENDBRANCH   9  26
BRANCH   1  30
ATOM     30  C   LIG    1       25.650 -31.878   9.328  0.00  0.00    +0.193 C 
BRANCH  30  32
ATOM     31  C   LIG    1       27.367 -33.335   8.624  0.00  0.00    +0.194 C 
ATOM     32  O   LIG    1       26.990 -32.320   9.551  0.00  0.00    -0.379 OA
ENDBRANCH  30  32
ENDBRANCH   1  30
TORSDOF 9
ENDMDL
