MODEL 1
REMARK VINA RESULT:      -5.3      0.000      0.000
REMARK  Name = *****
REMARK                            x       y       z     vdW  Elec       q    Type
REMARK                         _______ _______ _______ _____ _____    ______ ____
ROOT
ATOM      1  C   LIG    1       25.376 -32.283   7.600  0.00  0.00    +0.173 A 
ATOM      2  C   LIG    1       24.617 -31.384   6.779  0.00  0.00    +0.206 A 
ATOM      3  C   LIG    1       24.758 -29.941   7.008  0.00  0.00    +0.187 A 
ATOM      4  C   LIG    1       25.688 -29.454   7.958  0.00  0.00    +0.085 A 
ATOM      5  C   LIG    1       26.171 -30.396   8.856  0.00  0.00    +0.094 A 
ATOM      6  C   LIG    1       26.971 -30.190  10.029  0.00  0.00    +0.342 C 
ATOM      7  O   LIG    1       26.972 -31.304  10.750  0.00  0.00    -0.451 OA
ATOM      8  C   LIG    1       25.982 -32.262  10.193  0.00  0.00    +0.233 C 
ATOM      9  O   LIG    1       27.668 -29.125  10.268  0.00  0.00    -0.245 OA
ATOM     10  C   LIG    1       25.869 -31.737   8.791  0.00  0.00    +0.056 A 
ENDROOT
BRANCH   8  11
ATOM     11  C   LIG    1       24.656 -32.149  11.152  0.00  0.00    +0.136 C 
ATOM     12  N   LIG    1       24.215 -33.497  11.666  0.00  0.00    -0.295 NA
ATOM     13  C   LIG    1       22.776 -33.706  11.511  0.00  0.00    +0.105 C 
ATOM     14  C   LIG    1       24.585 -33.824  13.058  0.00  0.00    +0.089 C 
ATOM     15  C   LIG    1       25.664 -32.968  13.676  0.00  0.00    +0.051 C 
ATOM     16  C   LIG    1       25.403 -31.518  13.469  0.00  0.00    -0.034 A 
ATOM     17  C   LIG    1       25.812 -30.600  14.429  0.00  0.00    +0.053 A 
ATOM     18  C   LIG    1       25.558 -29.276  14.193  0.00  0.00    +0.170 A 
ATOM     19  O   LIG    1       26.017 -28.256  14.964  0.00  0.00    -0.453 OA
ATOM     20  C   LIG    1       25.422 -27.135  14.296  0.00  0.00    +0.467 C 
ATOM     21  O   LIG    1       24.585 -27.518  13.190  0.00  0.00    -0.449 OA
ATOM     22  C   LIG    1       24.795 -28.865  13.126  0.00  0.00    +0.208 A 
ATOM     23  C   LIG    1       24.352 -29.764  12.156  0.00  0.00    +0.170 A 
ATOM     24  C   LIG    1       24.778 -31.104  12.269  0.00  0.00    +0.022 A 
BRANCH  23  25
ATOM     25  O   LIG    1       23.487 -29.483  11.136  0.00  0.00    -0.491 OA
ATOM     26  C   LIG    1       22.112 -29.758  11.370  0.00  0.00    +0.277 C 
ENDBRANCH  23  25
ENDBRANCH   8  11
BRANCH   4  27
ATOM     27  N   LIG    1       25.913 -28.096   8.292  0.00  0.00    -0.354 N 
ATOM     28  H   LIG    1       25.686 -27.898   9.264  0.00  0.00    +0.142 HD
ATOM     29  H   LIG    1       26.902 -27.854   8.169  0.00  0.00    +0.142 HD
ENDBRANCH   4  27
BRANCH   1  30
ATOM     30  O   LIG    1       25.916 -33.533   7.394  0.00  0.00    -0.488 OA
BRANCH  30  32
ATOM     31  C   LIG    1       28.003 -33.448   5.818  0.00  0.00    +0.048 C 
ATOM     32  C   LIG    1       27.280 -33.824   7.119  0.00  0.00    +0.226 C 
ENDBRANCH  30  32
ENDBRANCH   1  30
BRANCH   2  33
ATOM     33  O   LIG    1       23.360 -31.711   6.166  0.00  0.00    -0.485 OA
BRANCH  33  34
ATOM     34  C   LIG    1       23.179 -33.046   5.720  0.00  0.00    +0.226 C 
ATOM     35  C   LIG    1       23.966 -33.471   4.449  0.00  0.00    +0.048 C 
ENDBRANCH  33  34
ENDBRANCH   2  33
BRANCH   3  36
ATOM     36  O   LIG    1       23.899 -29.142   6.271  0.00  0.00    -0.487 OA
BRANCH  36  37
ATOM     37  C   LIG    1       24.415 -28.357   5.191  0.00  0.00    +0.226 C 
ATOM     38  C   LIG    1       24.361 -26.864   5.507  0.00  0.00    +0.048 C 
ENDBRANCH  36  37
ENDBRANCH   3  36
TORSDOF 9
ENDMDL
MODEL 2
REMARK VINA RESULT:      -5.3      2.184      7.235
REMARK  Name = *****
REMARK                            x       y       z     vdW  Elec       q    Type
REMARK                         _______ _______ _______ _____ _____    ______ ____
ROOT
ATOM      1  C   LIG    1       23.815 -29.437  12.367  0.00  0.00    +0.173 A 
ATOM      2  C   LIG    1       24.667 -29.444  13.522  0.00  0.00    +0.206 A 
ATOM      3  C   LIG    1       26.099 -29.181  13.336  0.00  0.00    +0.187 A 
ATOM      4  C   LIG    1       26.605 -28.843  12.057  0.00  0.00    +0.085 A 
ATOM      5  C   LIG    1       25.758 -29.112  10.992  0.00  0.00    +0.094 A 
ATOM      6  C   LIG    1       26.039 -29.054   9.586  0.00  0.00    +0.342 C 
ATOM      7  O   LIG    1       25.057 -29.654   8.926  0.00  0.00    -0.451 OA
ATOM      8  C   LIG    1       24.155 -30.343   9.886  0.00  0.00    +0.233 C 
ATOM      9  O   LIG    1       27.033 -28.413   9.058  0.00  0.00    -0.245 OA
ATOM     10  C   LIG    1       24.471 -29.576  11.138  0.00  0.00    +0.056 A 
ENDROOT
BRANCH   8  11
ATOM     11  C   LIG    1       24.578 -31.928   9.843  0.00  0.00    +0.136 C 
ATOM     12  N   LIG    1       23.807 -32.744  10.851  0.00  0.00    -0.295 NA
ATOM     13  C   LIG    1       24.675 -33.630  11.627  0.00  0.00    +0.105 C 
ATOM     14  C   LIG    1       22.679 -33.540  10.329  0.00  0.00    +0.089 C 
ATOM     15  C   LIG    1       22.184 -33.167   8.952  0.00  0.00    +0.051 C 
ATOM     16  C   LIG    1       23.304 -33.039   7.980  0.00  0.00    -0.034 A 
ATOM     17  C   LIG    1       23.099 -33.362   6.644  0.00  0.00    +0.053 A 
ATOM     18  C   LIG    1       24.155 -33.221   5.785  0.00  0.00    +0.170 A 
ATOM     19  O   LIG    1       24.073 -33.361   4.436  0.00  0.00    -0.453 OA
ATOM     20  C   LIG    1       25.444 -33.160   4.069  0.00  0.00    +0.467 C 
ATOM     21  O   LIG    1       26.309 -32.964   5.203  0.00  0.00    -0.449 OA
ATOM     22  C   LIG    1       25.418 -32.918   6.236  0.00  0.00    +0.208 A 
ATOM     23  C   LIG    1       25.661 -32.609   7.574  0.00  0.00    +0.170 A 
ATOM     24  C   LIG    1       24.549 -32.546   8.439  0.00  0.00    +0.022 A 
BRANCH  23  25
ATOM     25  O   LIG    1       26.890 -32.424   8.145  0.00  0.00    -0.491 OA
ATOM     26  C   LIG    1       27.645 -33.595   8.429  0.00  0.00    +0.277 C 
ENDBRANCH  23  25
ENDBRANCH   8  11
BRANCH   4  27
ATOM     27  N   LIG    1       27.959 -28.585  11.733  0.00  0.00    -0.354 N 
ATOM     28  H   LIG    1       28.565 -28.632  12.549  0.00  0.00    +0.142 HD
ATOM     29  H   LIG    1       28.310 -29.284  11.070  0.00  0.00    +0.142 HD
ENDBRANCH   4  27
BRANCH   1  30
ATOM     30  O   LIG    1       22.492 -29.118  12.163  0.00  0.00    -0.488 OA
BRANCH  30  32
ATOM     31  C   LIG    1       22.229 -26.731  13.201  0.00  0.00    +0.048 C 
ATOM     32  C   LIG    1       21.740 -28.151  12.884  0.00  0.00    +0.226 C 
ENDBRANCH  30  32
ENDBRANCH   1  30
BRANCH   2  33
ATOM     33  O   LIG    1       24.409 -30.202  14.714  0.00  0.00    -0.485 OA
BRANCH  33  34
ATOM     34  C   LIG    1       23.826 -31.486  14.558  0.00  0.00    +0.226 C 
ATOM     35  C   LIG    1       24.538 -32.668  15.271  0.00  0.00    +0.048 C 
ENDBRANCH  33  34
ENDBRANCH   2  33
BRANCH   3  36
ATOM     36  O   LIG    1       26.876 -29.335  14.473  0.00  0.00    -0.487 OA
BRANCH  36  37
ATOM     37  C   LIG    1       27.740 -30.471  14.589  0.00  0.00    +0.226 C 
ATOM     38  C   LIG    1       29.188 -30.053  14.830  0.00  0.00    +0.048 C 
ENDBRANCH  36  37
ENDBRANCH   3  36
TORSDOF 9
ENDMDL
MODEL 3
REMARK VINA RESULT:      -5.3      3.496      7.062
REMARK  Name = *****
REMARK                            x       y       z     vdW  Elec       q    Type
REMARK                         _______ _______ _______ _____ _____    ______ ____
ROOT
ATOM      1  C   LIG    1       23.834 -28.639  12.541  0.00  0.00    +0.173 A 
ATOM      2  C   LIG    1       25.098 -29.039  13.090  0.00  0.00    +0.206 A 
ATOM      3  C   LIG    1       25.916 -29.997  12.336  0.00  0.00    +0.187 A 
ATOM      4  C   LIG    1       25.499 -30.444  11.058  0.00  0.00    +0.085 A 
ATOM      5  C   LIG    1       24.169 -30.200  10.746  0.00  0.00    +0.094 A 
ATOM      6  C   LIG    1       23.407 -30.678   9.628  0.00  0.00    +0.342 C 
ATOM      7  O   LIG    1       22.120 -30.450   9.855  0.00  0.00    -0.451 OA
ATOM      8  C   LIG    1       21.933 -29.990  11.256  0.00  0.00    +0.233 C 
ATOM      9  O   LIG    1       23.919 -31.144   8.533  0.00  0.00    -0.245 OA
ATOM     10  C   LIG    1       23.315 -29.485  11.553  0.00  0.00    +0.056 A 
ENDROOT
BRANCH   8  11
ATOM     11  C   LIG    1       21.409 -31.300  12.093  0.00  0.00    +0.136 C 
ATOM     12  N   LIG    1       22.491 -31.874  12.975  0.00  0.00    -0.295 NA
ATOM     13  C   LIG    1       22.600 -33.327  12.845  0.00  0.00    +0.105 C 
ATOM     14  C   LIG    1       22.414 -31.542  14.412  0.00  0.00    +0.089 C 
ATOM     15  C   LIG    1       21.517 -30.383  14.778  0.00  0.00    +0.051 C 
ATOM     16  C   LIG    1       20.180 -30.498  14.135  0.00  0.00    -0.034 A 
ATOM     17  C   LIG    1       19.057 -30.002  14.787  0.00  0.00    +0.053 A 
ATOM     18  C   LIG    1       17.849 -30.121  14.155  0.00  0.00    +0.170 A 
ATOM     19  O   LIG    1       16.691 -29.565  14.597  0.00  0.00    -0.453 OA
ATOM     20  C   LIG    1       15.775 -30.044  13.604  0.00  0.00    +0.467 C 
ATOM     21  O   LIG    1       16.394 -30.913  12.638  0.00  0.00    -0.449 OA
ATOM     22  C   LIG    1       17.711 -30.838  12.989  0.00  0.00    +0.208 A 
ATOM     23  C   LIG    1       18.815 -31.366  12.322  0.00  0.00    +0.170 A 
ATOM     24  C   LIG    1       20.092 -31.077  12.847  0.00  0.00    +0.022 A 
BRANCH  23  25
ATOM     25  O   LIG    1       18.775 -32.197  11.237  0.00  0.00    -0.491 OA
ATOM     26  C   LIG    1       18.441 -31.603   9.989  0.00  0.00    +0.277 C 
ENDBRANCH  23  25
ENDBRANCH   8  11
BRANCH   4  27
ATOM     27  N   LIG    1       26.176 -31.376  10.235  0.00  0.00    -0.354 N 
ATOM     28  H   LIG    1       26.335 -31.015   9.297  0.00  0.00    +0.142 HD
ATOM     29  H   LIG    1       27.100 -31.595  10.622  0.00  0.00    +0.142 HD
ENDBRANCH   4  27
BRANCH   1  30
ATOM     30  O   LIG    1       23.086 -27.486  12.617  0.00  0.00    -0.488 OA
BRANCH  30  32
ATOM     31  C   LIG    1       20.643 -26.798  13.251  0.00  0.00    +0.048 C 
ATOM     32  C   LIG    1       22.087 -27.195  13.586  0.00  0.00    +0.226 C 
ENDBRANCH  30  32
ENDBRANCH   1  30
BRANCH   2  33
ATOM     33  O   LIG    1       25.404 -29.058  14.493  0.00  0.00    -0.485 OA
BRANCH  33  34
ATOM     34  C   LIG    1       25.679 -27.814  15.118  0.00  0.00    +0.226 C 
ATOM     35  C   LIG    1       26.466 -26.770  14.279  0.00  0.00    +0.048 C 
ENDBRANCH  33  34
ENDBRANCH   2  33
BRANCH   3  36
ATOM     36  O   LIG    1       27.057 -30.435  12.987  0.00  0.00    -0.487 OA
BRANCH  36  37
ATOM     37  C   LIG    1       28.275 -29.695  12.854  0.00  0.00    +0.226 C 
ATOM     38  C   LIG    1       29.012 -29.583  14.186  0.00  0.00    +0.048 C 
ENDBRANCH  36  37
ENDBRANCH   3  36
TORSDOF 9
ENDMDL
MODEL 4
REMARK VINA RESULT:      -4.9      2.005      4.238
REMARK  Name = *****
REMARK                            x       y       z     vdW  Elec       q    Type
REMARK                         _______ _______ _______ _____ _____    ______ ____
ROOT
ATOM      1  C   LIG    1       24.219 -30.105   7.707  0.00  0.00    +0.173 A 
ATOM      2  C   LIG    1       24.661 -31.271   6.996  0.00  0.00    +0.206 A 
ATOM      3  C   LIG    1       24.020 -32.557   7.299  0.00  0.00    +0.187 A 
ATOM      4  C   LIG    1       22.936 -32.621   8.207  0.00  0.00    +0.085 A 
ATOM      5  C   LIG    1       22.765 -31.503   9.011  0.00  0.00    +0.094 A 
ATOM      6  C   LIG    1       21.888 -31.330  10.133  0.00  0.00    +0.342 C 
ATOM      7  O   LIG    1       22.237 -30.229  10.786  0.00  0.00    -0.451 OA
ATOM      8  C   LIG    1       23.521 -29.712  10.246  0.00  0.00    +0.233 C 
ATOM      9  O   LIG    1       20.857 -32.072  10.384  0.00  0.00    -0.245 OA
ATOM     10  C   LIG    1       23.512 -30.354   8.889  0.00  0.00    +0.056 A 
ENDROOT
BRANCH   8  11
ATOM     11  C   LIG    1       24.680 -30.192  11.303  0.00  0.00    +0.136 C 
ATOM     12  N   LIG    1       25.645 -31.167  10.676  0.00  0.00    -0.295 NA
ATOM     13  C   LIG    1       25.885 -32.334  11.526  0.00  0.00    +0.105 C 
ATOM     14  C   LIG    1       26.952 -30.623  10.256  0.00  0.00    +0.089 C 
ATOM     15  C   LIG    1       27.039 -29.120  10.143  0.00  0.00    +0.051 C 
ATOM     16  C   LIG    1       26.487 -28.444  11.349  0.00  0.00    -0.034 A 
ATOM     17  C   LIG    1       27.025 -27.232  11.766  0.00  0.00    +0.053 A 
ATOM     18  C   LIG    1       26.482 -26.643  12.876  0.00  0.00    +0.170 A 
ATOM     19  O   LIG    1       26.803 -25.400  13.321  0.00  0.00    -0.453 OA
ATOM     20  C   LIG    1       25.993 -25.329  14.502  0.00  0.00    +0.467 C 
ATOM     21  O   LIG    1       25.261 -26.542  14.758  0.00  0.00    -0.449 OA
ATOM     22  C   LIG    1       25.541 -27.284  13.648  0.00  0.00    +0.208 A 
ATOM     23  C   LIG    1       24.997 -28.510  13.267  0.00  0.00    +0.170 A 
ATOM     24  C   LIG    1       25.392 -29.038  12.020  0.00  0.00    +0.022 A 
BRANCH  23  25
ATOM     25  O   LIG    1       24.161 -29.285  14.021  0.00  0.00    -0.491 OA
ATOM     26  C   LIG    1       22.803 -28.870  14.102  0.00  0.00    +0.277 C 
ENDBRANCH  23  25
ENDBRANCH   8  11
BRANCH   4  27
ATOM     27  N   LIG    1       22.242 -33.790   8.604  0.00  0.00    -0.354 N 
ATOM     28  H   LIG    1       22.208 -33.892   9.615  0.00  0.00    +0.142 HD
ATOM     29  H   LIG    1       21.269 -33.758   8.282  0.00  0.00    +0.142 HD
ENDBRANCH   4  27
BRANCH   1  30
ATOM     30  O   LIG    1       24.152 -28.767   7.389  0.00  0.00    -0.488 OA
BRANCH  30  32
ATOM     31  C   LIG    1       25.485 -26.846   6.215  0.00  0.00    +0.048 C 
ATOM     32  C   LIG    1       24.681 -28.153   6.221  0.00  0.00    +0.226 C 
ENDBRANCH  30  32
ENDBRANCH   1  30
BRANCH   2  33
ATOM     33  O   LIG    1       25.980 -31.441   6.457  0.00  0.00    -0.485 OA
BRANCH  33  34
ATOM     34  C   LIG    1       26.930 -32.127   7.257  0.00  0.00    +0.226 C 
ATOM     35  C   LIG    1       27.912 -33.076   6.517  0.00  0.00    +0.048 C 
ENDBRANCH  33  34
ENDBRANCH   2  33
BRANCH   3  36
ATOM     36  O   LIG    1       24.587 -33.656   6.674  0.00  0.00    -0.487 OA
BRANCH  36  37
ATOM     37  C   LIG    1       24.443 -33.816   5.258  0.00  0.00    +0.226 C 
ATOM     38  C   LIG    1       22.974 -33.825   4.842  0.00  0.00    +0.048 C 
ENDBRANCH  36  37
ENDBRANCH   3  36
TORSDOF 9
ENDMDL
MODEL 5
REMARK VINA RESULT:      -4.7      3.589      7.070
REMARK  Name = *****
REMARK                            x       y       z     vdW  Elec       q    Type
REMARK                         _______ _______ _______ _____ _____    ______ ____
ROOT
ATOM      1  C   LIG    1       24.844 -30.228  11.477  0.00  0.00    +0.173 A 
ATOM      2  C   LIG    1       25.692 -31.215  12.083  0.00  0.00    +0.206 A 
ATOM      3  C   LIG    1       25.077 -32.449  12.587  0.00  0.00    +0.187 A 
ATOM      4  C   LIG    1       23.695 -32.691  12.396  0.00  0.00    +0.085 A 
ATOM      5  C   LIG    1       22.941 -31.583  12.036  0.00  0.00    +0.094 A 
ATOM      6  C   LIG    1       21.514 -31.459  11.946  0.00  0.00    +0.342 C 
ATOM      7  O   LIG    1       21.199 -30.174  11.849  0.00  0.00    -0.451 OA
ATOM      8  C   LIG    1       22.408 -29.342  12.085  0.00  0.00    +0.233 C 
ATOM      9  O   LIG    1       20.692 -32.456  11.857  0.00  0.00    -0.245 OA
ATOM     10  C   LIG    1       23.481 -30.345  11.773  0.00  0.00    +0.056 A 
ENDROOT
BRANCH   8  11
ATOM     11  C   LIG    1       22.295 -28.813  13.634  0.00  0.00    +0.136 C 
ATOM     12  N   LIG    1       23.508 -28.017  14.048  0.00  0.00    -0.295 NA
ATOM     13  C   LIG    1       24.028 -28.435  15.350  0.00  0.00    +0.105 C 
ATOM     14  C   LIG    1       23.360 -26.548  14.057  0.00  0.00    +0.089 C 
ATOM     15  C   LIG    1       22.173 -25.996  13.303  0.00  0.00    +0.051 C 
ATOM     16  C   LIG    1       20.916 -26.710  13.656  0.00  0.00    -0.034 A 
ATOM     17  C   LIG    1       19.707 -26.024  13.645  0.00  0.00    +0.053 A 
ATOM     18  C   LIG    1       18.576 -26.722  13.969  0.00  0.00    +0.170 A 
ATOM     19  O   LIG    1       17.313 -26.230  13.868  0.00  0.00    -0.453 OA
ATOM     20  C   LIG    1       16.559 -27.341  14.370  0.00  0.00    +0.467 C 
ATOM     21  O   LIG    1       17.388 -28.434  14.808  0.00  0.00    -0.449 OA
ATOM     22  C   LIG    1       18.632 -28.014  14.437  0.00  0.00    +0.208 A 
ATOM     23  C   LIG    1       19.832 -28.723  14.480  0.00  0.00    +0.170 A 
ATOM     24  C   LIG    1       20.980 -28.091  13.956  0.00  0.00    +0.022 A 
BRANCH  23  25
ATOM     25  O   LIG    1       20.017 -29.955  15.044  0.00  0.00    -0.491 OA
ATOM     26  C   LIG    1       18.957 -30.891  14.894  0.00  0.00    +0.277 C 
ENDBRANCH  23  25
ENDBRANCH   8  11
BRANCH   4  27
ATOM     27  N   LIG    1       22.972 -33.823  12.844  0.00  0.00    -0.354 N 
ATOM     28  H   LIG    1       23.587 -34.582  13.130  0.00  0.00    +0.142 HD
ATOM     29  H   LIG    1       22.403 -33.586  13.664  0.00  0.00    +0.142 HD
ENDBRANCH   4  27
BRANCH   1  30
ATOM     30  O   LIG    1       25.035 -29.289  10.488  0.00  0.00    -0.488 OA
BRANCH  30  32
ATOM     31  C   LIG    1       24.543 -29.646   7.944  0.00  0.00    +0.048 C 
ATOM     32  C   LIG    1       25.473 -29.544   9.160  0.00  0.00    +0.226 C 
ENDBRANCH  30  32
ENDBRANCH   1  30
BRANCH   2  33
ATOM     33  O   LIG    1       26.932 -30.922  12.746  0.00  0.00    -0.485 OA
BRANCH  33  34
ATOM     34  C   LIG    1       26.904 -29.959  13.787  0.00  0.00    +0.226 C 
ATOM     35  C   LIG    1       27.372 -28.523  13.424  0.00  0.00    +0.048 C 
ENDBRANCH  33  34
ENDBRANCH   2  33
BRANCH   3  36
ATOM     36  O   LIG    1       25.934 -33.293  13.275  0.00  0.00    -0.487 OA
BRANCH  36  37
ATOM     37  C   LIG    1       25.786 -33.448  14.691  0.00  0.00    +0.226 C 
ATOM     38  C   LIG    1       27.132 -33.368  15.407  0.00  0.00    +0.048 C 
ENDBRANCH  36  37
ENDBRANCH   3  36
TORSDOF 9
ENDMDL
MODEL 6
REMARK VINA RESULT:      -4.7      2.910      5.851
REMARK  Name = *****
REMARK                            x       y       z     vdW  Elec       q    Type
REMARK                         _______ _______ _______ _____ _____    ______ ____
ROOT
ATOM      1  C   LIG    1       22.199 -30.867  10.628  0.00  0.00    +0.173 A 
ATOM      2  C   LIG    1       21.639 -32.120  11.049  0.00  0.00    +0.206 A 
ATOM      3  C   LIG    1       20.642 -32.112  12.126  0.00  0.00    +0.187 A 
ATOM      4  C   LIG    1       20.185 -30.887  12.671  0.00  0.00    +0.085 A 
ATOM      5  C   LIG    1       20.963 -29.777  12.376  0.00  0.00    +0.094 A 
ATOM      6  C   LIG    1       20.874 -28.450  12.914  0.00  0.00    +0.342 C 
ATOM      7  O   LIG    1       21.969 -27.777  12.585  0.00  0.00    -0.451 OA
ATOM      8  C   LIG    1       22.961 -28.701  11.977  0.00  0.00    +0.233 C 
ATOM      9  O   LIG    1       19.834 -27.968  13.517  0.00  0.00    -0.245 OA
ATOM     10  C   LIG    1       22.050 -29.809  11.532  0.00  0.00    +0.056 A 
ENDROOT
BRANCH   8  11
ATOM     11  C   LIG    1       24.043 -29.042  13.163  0.00  0.00    +0.136 C 
ATOM     12  N   LIG    1       24.801 -30.317  12.885  0.00  0.00    -0.295 NA
ATOM     13  C   LIG    1       24.851 -31.199  14.051  0.00  0.00    +0.105 C 
ATOM     14  C   LIG    1       26.172 -30.166  12.358  0.00  0.00    +0.089 C 
ATOM     15  C   LIG    1       26.524 -28.806  11.804  0.00  0.00    +0.051 C 
ATOM     16  C   LIG    1       26.135 -27.713  12.736  0.00  0.00    -0.034 A 
ATOM     17  C   LIG    1       26.891 -26.549  12.788  0.00  0.00    +0.053 A 
ATOM     18  C   LIG    1       26.492 -25.567  13.654  0.00  0.00    +0.170 A 
ATOM     19  O   LIG    1       27.041 -24.326  13.717  0.00  0.00    -0.453 OA
ATOM     20  C   LIG    1       26.289 -23.762  14.798  0.00  0.00    +0.467 C 
ATOM     21  O   LIG    1       25.359 -24.691  15.384  0.00  0.00    -0.449 OA
ATOM     22  C   LIG    1       25.472 -25.769  14.554  0.00  0.00    +0.208 A 
ATOM     23  C   LIG    1       24.708 -26.935  14.542  0.00  0.00    +0.170 A 
ATOM     24  C   LIG    1       24.969 -27.873  13.522  0.00  0.00    +0.022 A 
BRANCH  23  25
ATOM     25  O   LIG    1       23.766 -27.287  15.469  0.00  0.00    -0.491 OA
ATOM     26  C   LIG    1       22.573 -26.514  15.493  0.00  0.00    +0.277 C 
ENDBRANCH  23  25
ENDBRANCH   8  11
BRANCH   4  27
ATOM     27  N   LIG    1       19.246 -30.734  13.720  0.00  0.00    -0.354 N 
ATOM     28  H   LIG    1       19.167 -31.574  14.289  0.00  0.00    +0.142 HD
ATOM     29  H   LIG    1       19.533 -29.980  14.353  0.00  0.00    +0.142 HD
ENDBRANCH   4  27
BRANCH   1  30
ATOM     30  O   LIG    1       22.685 -30.398   9.428  0.00  0.00    -0.488 OA
BRANCH  30  32
ATOM     31  C   LIG    1       24.555 -30.221   7.608  0.00  0.00    +0.048 C 
ATOM     32  C   LIG    1       24.054 -30.304   9.055  0.00  0.00    +0.226 C 
ENDBRANCH  30  32
ENDBRANCH   1  30
BRANCH   2  33
ATOM     33  O   LIG    1       22.313 -33.383  10.948  0.00  0.00    -0.485 OA
BRANCH  33  34
ATOM     34  C   LIG    1       23.722 -33.387  11.116  0.00  0.00    +0.226 C 
ATOM     35  C   LIG    1       24.578 -33.605   9.838  0.00  0.00    +0.048 C 
ENDBRANCH  33  34
ENDBRANCH   2  33
BRANCH   3  36
ATOM     36  O   LIG    1       20.246 -33.364  12.569  0.00  0.00    -0.487 OA
BRANCH  36  37
ATOM     37  C   LIG    1       20.457 -33.729  13.937  0.00  0.00    +0.226 C 
ATOM     38  C   LIG    1       21.888 -33.434  14.381  0.00  0.00    +0.048 C 
ENDBRANCH  36  37
ENDBRANCH   3  36
TORSDOF 9
ENDMDL
MODEL 7
REMARK VINA RESULT:      -4.5      2.211      7.057
REMARK  Name = *****
REMARK                            x       y       z     vdW  Elec       q    Type
REMARK                         _______ _______ _______ _____ _____    ______ ____
ROOT
ATOM      1  C   LIG    1       24.472 -29.359  12.526  0.00  0.00    +0.173 A 
ATOM      2  C   LIG    1       23.262 -29.094  13.251  0.00  0.00    +0.206 A 
ATOM      3  C   LIG    1       22.827 -30.067  14.261  0.00  0.00    +0.187 A 
ATOM      4  C   LIG    1       23.631 -31.191  14.567  0.00  0.00    +0.085 A 
ATOM      5  C   LIG    1       24.628 -31.479  13.645  0.00  0.00    +0.094 A 
ATOM      6  C   LIG    1       25.478 -32.632  13.574  0.00  0.00    +0.342 C 
ATOM      7  O   LIG    1       26.086 -32.647  12.394  0.00  0.00    -0.451 OA
ATOM      8  C   LIG    1       25.502 -31.598  11.518  0.00  0.00    +0.233 C 
ATOM      9  O   LIG    1       25.696 -33.449  14.555  0.00  0.00    -0.245 OA
ATOM     10  C   LIG    1       24.910 -30.688  12.555  0.00  0.00    +0.056 A 
ENDROOT
BRANCH   8  11
ATOM     11  C   LIG    1       24.465 -32.377  10.514  0.00  0.00    +0.136 C 
ATOM     12  N   LIG    1       23.058 -32.392  11.059  0.00  0.00    -0.295 NA
ATOM     13  C   LIG    1       22.450 -33.721  10.988  0.00  0.00    +0.105 C 
ATOM     14  C   LIG    1       22.114 -31.419  10.474  0.00  0.00    +0.089 C 
ATOM     15  C   LIG    1       22.732 -30.284   9.692  0.00  0.00    +0.051 C 
ATOM     16  C   LIG    1       23.743 -30.773   8.716  0.00  0.00    -0.034 A 
ATOM     17  C   LIG    1       23.929 -30.095   7.517  0.00  0.00    +0.053 A 
ATOM     18  C   LIG    1       24.875 -30.576   6.654  0.00  0.00    +0.170 A 
ATOM     19  O   LIG    1       25.268 -29.947   5.515  0.00  0.00    -0.453 OA
ATOM     20  C   LIG    1       26.211 -30.897   5.003  0.00  0.00    +0.467 C 
ATOM     21  O   LIG    1       26.312 -32.083   5.813  0.00  0.00    -0.449 OA
ATOM     22  C   LIG    1       25.520 -31.769   6.879  0.00  0.00    +0.208 A 
ATOM     23  C   LIG    1       25.340 -32.484   8.063  0.00  0.00    +0.170 A 
ATOM     24  C   LIG    1       24.526 -31.902   9.057  0.00  0.00    +0.022 A 
BRANCH  23  25
ATOM     25  O   LIG    1       25.828 -33.733   8.328  0.00  0.00    -0.491 OA
ATOM     26  C   LIG    1       27.211 -33.825   8.646  0.00  0.00    +0.277 C 
ENDBRANCH  23  25
ENDBRANCH   8  11
BRANCH   4  27
ATOM     27  N   LIG    1       23.325 -32.212  15.499  0.00  0.00    -0.354 N 
ATOM     28  H   LIG    1       23.178 -31.844  16.436  0.00  0.00    +0.142 HD
ATOM     29  H   LIG    1       22.458 -32.693  15.236  0.00  0.00    +0.142 HD
ENDBRANCH   4  27
BRANCH   1  30
ATOM     30  O   LIG    1       25.435 -28.556  11.958  0.00  0.00    -0.488 OA
BRANCH  30  32
ATOM     31  C   LIG    1       26.927 -26.491  12.553  0.00  0.00    +0.048 C 
ATOM     32  C   LIG    1       26.547 -27.976  12.628  0.00  0.00    +0.226 C 
ENDBRANCH  30  32
ENDBRANCH   1  30
BRANCH   2  33
ATOM     33  O   LIG    1       22.166 -28.317  12.744  0.00  0.00    -0.485 OA
BRANCH  33  34
ATOM     34  C   LIG    1       22.039 -26.985  13.214  0.00  0.00    +0.226 C 
ATOM     35  C   LIG    1       23.305 -26.341  13.842  0.00  0.00    +0.048 C 
ENDBRANCH  33  34
ENDBRANCH   2  33
BRANCH   3  36
ATOM     36  O   LIG    1       21.586 -29.812  14.824  0.00  0.00    -0.487 OA
BRANCH  36  37
ATOM     37  C   LIG    1       20.476 -30.655  14.498  0.00  0.00    +0.226 C 
ATOM     38  C   LIG    1       19.313 -29.852  13.920  0.00  0.00    +0.048 C 
ENDBRANCH  36  37
ENDBRANCH   3  36
TORSDOF 9
ENDMDL
MODEL 8
REMARK VINA RESULT:      -4.2      3.174      6.080
REMARK  Name = *****
REMARK                            x       y       z     vdW  Elec       q    Type
REMARK                         _______ _______ _______ _____ _____    ______ ____
ROOT
ATOM      1  C   LIG    1       25.437 -31.149  11.258  0.00  0.00    +0.173 A 
ATOM      2  C   LIG    1       26.189 -29.935  11.407  0.00  0.00    +0.206 A 
ATOM      3  C   LIG    1       26.877 -29.692  12.681  0.00  0.00    +0.187 A 
ATOM      4  C   LIG    1       26.867 -30.675  13.700  0.00  0.00    +0.085 A 
ATOM      5  C   LIG    1       25.917 -31.676  13.552  0.00  0.00    +0.094 A 
ATOM      6  C   LIG    1       25.537 -32.698  14.485  0.00  0.00    +0.342 C 
ATOM      7  O   LIG    1       24.411 -33.263  14.070  0.00  0.00    -0.451 OA
ATOM      8  C   LIG    1       23.856 -32.493  12.927  0.00  0.00    +0.233 C 
ATOM      9  O   LIG    1       26.252 -33.073  15.498  0.00  0.00    -0.245 OA
ATOM     10  C   LIG    1       25.098 -31.795  12.453  0.00  0.00    +0.056 A 
ENDROOT
BRANCH   8  11
ATOM     11  C   LIG    1       22.657 -31.563  13.550  0.00  0.00    +0.136 C 
ATOM     12  N   LIG    1       23.142 -30.177  13.900  0.00  0.00    -0.295 NA
ATOM     13  C   LIG    1       22.712 -29.760  15.235  0.00  0.00    +0.105 C 
ATOM     14  C   LIG    1       22.807 -29.102  12.947  0.00  0.00    +0.089 C 
ATOM     15  C   LIG    1       22.364 -29.547  11.573  0.00  0.00    +0.051 C 
ATOM     16  C   LIG    1       21.321 -30.606  11.647  0.00  0.00    -0.034 A 
ATOM     17  C   LIG    1       20.346 -30.682  10.660  0.00  0.00    +0.053 A 
ATOM     18  C   LIG    1       19.411 -31.677  10.763  0.00  0.00    +0.170 A 
ATOM     19  O   LIG    1       18.486 -31.965   9.811  0.00  0.00    -0.453 OA
ATOM     20  C   LIG    1       17.770 -33.026  10.456  0.00  0.00    +0.467 C 
ATOM     21  O   LIG    1       18.245 -33.300  11.787  0.00  0.00    -0.449 OA
ATOM     22  C   LIG    1       19.335 -32.484  11.874  0.00  0.00    +0.208 A 
ATOM     23  C   LIG    1       20.286 -32.418  12.891  0.00  0.00    +0.170 A 
ATOM     24  C   LIG    1       21.376 -31.541  12.707  0.00  0.00    +0.022 A 
BRANCH  23  25
ATOM     25  O   LIG    1       20.230 -33.078  14.088  0.00  0.00    -0.491 OA
ATOM     26  C   LIG    1       19.387 -32.517  15.087  0.00  0.00    +0.277 C 
ENDBRANCH  23  25
ENDBRANCH   8  11
BRANCH   4  27
ATOM     27  N   LIG    1       27.469 -30.565  14.977  0.00  0.00    -0.354 N 
ATOM     28  H   LIG    1       27.999 -29.703  15.078  0.00  0.00    +0.142 HD
ATOM     29  H   LIG    1       26.754 -30.555  15.713  0.00  0.00    +0.142 HD
ENDBRANCH   4  27
BRANCH   1  30
ATOM     30  O   LIG    1       25.134 -31.953  10.182  0.00  0.00    -0.488 OA
BRANCH  30  32
ATOM     31  C   LIG    1       23.939 -32.166   7.865  0.00  0.00    +0.048 C 
ATOM     32  C   LIG    1       23.971 -31.866   9.370  0.00  0.00    +0.226 C 
ENDBRANCH  30  32
ENDBRANCH   1  30
BRANCH   2  33
ATOM     33  O   LIG    1       25.904 -28.714  10.708  0.00  0.00    -0.485 OA
BRANCH  33  34
ATOM     34  C   LIG    1       26.516 -28.529   9.441  0.00  0.00    +0.226 C 
ATOM     35  C   LIG    1       25.631 -28.797   8.192  0.00  0.00    +0.048 C 
ENDBRANCH  33  34
ENDBRANCH   2  33
BRANCH   3  36
ATOM     36  O   LIG    1       27.469 -28.445  12.799  0.00  0.00    -0.487 OA
BRANCH  36  37
ATOM     37  C   LIG    1       26.867 -27.453  13.639  0.00  0.00    +0.226 C 
ATOM     38  C   LIG    1       26.706 -26.123  12.908  0.00  0.00    +0.048 C 
ENDBRANCH  36  37
ENDBRANCH   3  36
TORSDOF 9
ENDMDL
MODEL 9
REMARK VINA RESULT:      -4.2      2.864      7.216
REMARK  Name = *****
REMARK                            x       y       z     vdW  Elec       q    Type
REMARK                         _______ _______ _______ _____ _____    ______ ____
ROOT
ATOM      1  C   LIG    1       27.190 -29.514  13.985  0.00  0.00    +0.173 A 
ATOM      2  C   LIG    1       26.849 -28.249  14.573  0.00  0.00    +0.206 A 
ATOM      3  C   LIG    1       25.481 -28.056  15.069  0.00  0.00    +0.187 A 
ATOM      4  C   LIG    1       24.552 -29.124  15.043  0.00  0.00    +0.085 A 
ATOM      5  C   LIG    1       24.901 -30.198  14.236  0.00  0.00    +0.094 A 
ATOM      6  C   LIG    1       24.108 -31.333  13.861  0.00  0.00    +0.342 C 
ATOM      7  O   LIG    1       24.711 -31.968  12.864  0.00  0.00    -0.451 OA
ATOM      8  C   LIG    1       25.853 -31.156  12.371  0.00  0.00    +0.233 C 
ATOM      9  O   LIG    1       23.042 -31.726  14.483  0.00  0.00    -0.245 OA
ATOM     10  C   LIG    1       26.104 -30.297  13.577  0.00  0.00    +0.056 A 
ENDROOT
BRANCH   8  11
ATOM     11  C   LIG    1       25.322 -30.412  11.009  0.00  0.00    +0.136 C 
ATOM     12  N   LIG    1       26.446 -30.148  10.036  0.00  0.00    -0.295 NA
ATOM     13  C   LIG    1       26.421 -28.780   9.518  0.00  0.00    +0.105 C 
ATOM     14  C   LIG    1       26.558 -31.075   8.893  0.00  0.00    +0.089 C 
ATOM     15  C   LIG    1       25.805 -32.378   9.018  0.00  0.00    +0.051 C 
ATOM     16  C   LIG    1       24.399 -32.162   9.456  0.00  0.00    -0.034 A 
ATOM     17  C   LIG    1       23.401 -33.024   9.019  0.00  0.00    +0.053 A 
ATOM     18  C   LIG    1       22.124 -32.792   9.453  0.00  0.00    +0.170 A 
ATOM     19  O   LIG    1       21.072 -33.622   9.229  0.00  0.00    -0.453 OA
ATOM     20  C   LIG    1       20.014 -32.878   9.846  0.00  0.00    +0.467 C 
ATOM     21  O   LIG    1       20.448 -31.608  10.366  0.00  0.00    -0.449 OA
ATOM     22  C   LIG    1       21.798 -31.665  10.171  0.00  0.00    +0.208 A 
ATOM     23  C   LIG    1       22.774 -30.769  10.606  0.00  0.00    +0.170 A 
ATOM     24  C   LIG    1       24.121 -31.098  10.347  0.00  0.00    +0.022 A 
BRANCH  23  25
ATOM     25  O   LIG    1       22.545 -29.563  11.207  0.00  0.00    -0.491 OA
ATOM     26  C   LIG    1       21.536 -29.529  12.209  0.00  0.00    +0.277 C 
ENDBRANCH  23  25
ENDBRANCH   8  11
BRANCH   4  27
ATOM     27  N   LIG    1       23.202 -29.072  15.468  0.00  0.00    -0.354 N 
ATOM     28  H   LIG    1       22.553 -29.261  14.708  0.00  0.00    +0.142 HD
ATOM     29  H   LIG    1       23.023 -29.781  16.187  0.00  0.00    +0.142 HD
ENDBRANCH   4  27
BRANCH   1  30
ATOM     30  O   LIG    1       28.355 -30.243  13.908  0.00  0.00    -0.488 OA
BRANCH  30  32
ATOM     31  C   LIG    1       30.844 -29.733  14.530  0.00  0.00    +0.048 C 
ATOM     32  C   LIG    1       29.642 -29.738  13.577  0.00  0.00    +0.226 C 
ENDBRANCH  30  32
ENDBRANCH   1  30
BRANCH   2  33
ATOM     33  O   LIG    1       27.483 -27.004  14.242  0.00  0.00    -0.485 OA
BRANCH  33  34
ATOM     34  C   LIG    1       28.478 -26.522  15.131  0.00  0.00    +0.226 C 
ATOM     35  C   LIG    1       28.577 -24.981  15.300  0.00  0.00    +0.048 C 
ENDBRANCH  33  34
ENDBRANCH   2  33
BRANCH   3  36
ATOM     36  O   LIG    1       25.189 -26.772  15.500  0.00  0.00    -0.487 OA
BRANCH  36  37
ATOM     37  C   LIG    1       24.226 -25.988  14.786  0.00  0.00    +0.226 C 
ATOM     38  C   LIG    1       24.897 -25.055  13.781  0.00  0.00    +0.048 C 
ENDBRANCH  36  37
ENDBRANCH   3  36
TORSDOF 9
ENDMDL
