MODEL 1
REMARK VINA RESULT:      -9.0      0.000      0.000
REMARK  Name = *****
REMARK                            x       y       z     vdW  Elec       q    Type
REMARK                         _______ _______ _______ _____ _____    ______ ____
ROOT
ATOM      1  C   LIG    1       29.445 -20.945   7.873  0.00  0.00    +0.054 A 
ATOM      2  C   LIG    1       28.064 -21.209   7.892  0.00  0.00    +0.043 A 
ATOM      3  C   LIG    1       27.178 -20.740   6.892  0.00  0.00    +0.049 A 
ATOM      4  N   LIG    1       25.780 -21.037   6.903  0.00  0.00    -0.298 N 
ATOM      5  C   LIG    1       24.817 -20.527   5.977  0.00  0.00    +0.048 A 
ATOM      6  C   LIG    1       25.196 -19.743   4.867  0.00  0.00    +0.034 A 
ATOM      7  S   LIG    1       26.865 -19.260   4.515  0.00  0.00    -0.086 S 
ATOM      8  C   LIG    1       24.240 -19.282   3.936  0.00  0.00    +0.017 A 
ATOM      9  C   LIG    1       22.892 -19.573   4.086  0.00  0.00    +0.001 A 
ATOM     10  C   LIG    1       22.485 -20.315   5.180  0.00  0.00    +0.002 A 
ATOM     11  C   LIG    1       23.430 -20.773   6.109  0.00  0.00    +0.024 A 
ATOM     12  C   LIG    1       27.763 -19.951   5.878  0.00  0.00    +0.034 A 
ATOM     13  C   LIG    1       29.146 -19.673   5.871  0.00  0.00    +0.018 A 
ATOM     14  C   LIG    1       29.987 -20.171   6.858  0.00  0.00    +0.020 A 
ENDROOT
BRANCH   1  16
ATOM     15  N   LIG    1       30.972 -21.934   9.724  0.00  0.00    -0.191 NA
ATOM     16  C   LIG    1       30.291 -21.483   8.896  0.00  0.00    +0.099 C 
ENDBRANCH   1  16
BRANCH   4  17
ATOM     17  C   LIG    1       25.287 -22.000   7.921  0.00  0.00    +0.112 C 
BRANCH  17  18
ATOM     18  C   LIG    1       25.570 -23.447   7.495  0.00  0.00    +0.035 C 
BRANCH  18  19
ATOM     19  C   LIG    1       24.364 -24.078   6.778  0.00  0.00    +0.086 C 
BRANCH  19  20
ATOM     20  N   LIG    1       24.651 -25.409   6.202  0.00  0.00    -0.302 NA
ATOM     21  C   LIG    1       25.590 -26.184   7.030  0.00  0.00    +0.087 C 
ATOM     22  C   LIG    1       25.796 -27.590   6.475  0.00  0.00    +0.046 C 
ATOM     23  C   LIG    1       26.246 -27.577   5.021  0.00  0.00    +0.117 C 
ATOM     24  C   LIG    1       25.388 -26.645   4.172  0.00  0.00    +0.046 C 
ATOM     25  C   LIG    1       25.175 -25.278   4.830  0.00  0.00    +0.087 C 
BRANCH  23  26
ATOM     26  O   LIG    1       27.623 -27.211   4.929  0.00  0.00    -0.392 OA
ATOM     27  H   LIG    1       28.077 -27.841   4.347  0.00  0.00    +0.210 HD
ENDBRANCH  23  26
ENDBRANCH  19  20
ENDBRANCH  18  19
ENDBRANCH  17  18
ENDBRANCH   4  17
TORSDOF 6
ENDMDL
MODEL 2
REMARK VINA RESULT:      -7.6      1.311      4.740
REMARK  Name = *****
REMARK                            x       y       z     vdW  Elec       q    Type
REMARK                         _______ _______ _______ _____ _____    ______ ____
ROOT
ATOM      1  C   LIG    1       23.840 -20.322   4.726  0.00  0.00    +0.054 A 
ATOM      2  C   LIG    1       24.687 -20.798   5.742  0.00  0.00    +0.043 A 
ATOM      3  C   LIG    1       26.031 -20.375   5.883  0.00  0.00    +0.049 A 
ATOM      4  N   LIG    1       26.877 -20.842   6.936  0.00  0.00    -0.298 N 
ATOM      5  C   LIG    1       28.263 -20.525   7.088  0.00  0.00    +0.048 A 
ATOM      6  C   LIG    1       28.912 -19.603   6.239  0.00  0.00    +0.034 A 
ATOM      7  S   LIG    1       28.125 -18.779   4.881  0.00  0.00    -0.086 S 
ATOM      8  C   LIG    1       30.270 -19.266   6.427  0.00  0.00    +0.017 A 
ATOM      9  C   LIG    1       31.019 -19.839   7.445  0.00  0.00    +0.001 A 
ATOM     10  C   LIG    1       30.419 -20.769   8.275  0.00  0.00    +0.002 A 
ATOM     11  C   LIG    1       29.072 -21.108   8.092  0.00  0.00    +0.024 A 
ATOM     12  C   LIG    1       26.490 -19.461   4.910  0.00  0.00    +0.034 A 
ATOM     13  C   LIG    1       25.642 -18.997   3.881  0.00  0.00    +0.018 A 
ATOM     14  C   LIG    1       24.322 -19.418   3.790  0.00  0.00    +0.020 A 
ENDROOT
BRANCH   1  16
ATOM     15  N   LIG    1       21.372 -21.120   4.629  0.00  0.00    -0.191 NA
ATOM     16  C   LIG    1       22.478 -20.761   4.664  0.00  0.00    +0.099 C 
ENDBRANCH   1  16
BRANCH   4  17
ATOM     17  C   LIG    1       26.261 -21.679   7.997  0.00  0.00    +0.112 C 
BRANCH  17  18
ATOM     18  C   LIG    1       26.262 -23.162   7.601  0.00  0.00    +0.035 C 
BRANCH  18  19
ATOM     19  C   LIG    1       24.895 -23.610   7.057  0.00  0.00    +0.086 C 
BRANCH  19  20
ATOM     20  N   LIG    1       24.904 -24.976   6.494  0.00  0.00    -0.302 NA
ATOM     21  C   LIG    1       25.854 -25.859   7.188  0.00  0.00    +0.087 C 
ATOM     22  C   LIG    1       25.777 -27.290   6.661  0.00  0.00    +0.046 C 
ATOM     23  C   LIG    1       25.979 -27.362   5.155  0.00  0.00    +0.117 C 
ATOM     24  C   LIG    1       25.124 -26.334   4.421  0.00  0.00    +0.046 C 
ATOM     25  C   LIG    1       25.207 -24.940   5.051  0.00  0.00    +0.087 C 
BRANCH  23  26
ATOM     26  O   LIG    1       27.358 -27.190   4.828  0.00  0.00    -0.392 OA
ATOM     27  H   LIG    1       27.475 -26.326   4.402  0.00  0.00    +0.210 HD
ENDBRANCH  23  26
ENDBRANCH  19  20
ENDBRANCH  18  19
ENDBRANCH  17  18
ENDBRANCH   4  17
TORSDOF 6
ENDMDL
MODEL 3
REMARK VINA RESULT:      -7.0      2.747      6.199
REMARK  Name = *****
REMARK                            x       y       z     vdW  Elec       q    Type
REMARK                         _______ _______ _______ _____ _____    ______ ____
ROOT
ATOM      1  C   LIG    1       24.891 -24.644   6.425  0.00  0.00    +0.054 A 
ATOM      2  C   LIG    1       25.398 -23.454   5.873  0.00  0.00    +0.043 A 
ATOM      3  C   LIG    1       24.585 -22.327   5.599  0.00  0.00    +0.049 A 
ATOM      4  N   LIG    1       25.113 -21.111   5.064  0.00  0.00    -0.298 N 
ATOM      5  C   LIG    1       24.340 -19.969   4.685  0.00  0.00    +0.048 A 
ATOM      6  C   LIG    1       22.950 -19.902   4.914  0.00  0.00    +0.034 A 
ATOM      7  S   LIG    1       21.998 -21.212   5.638  0.00  0.00    -0.086 S 
ATOM      8  C   LIG    1       22.207 -18.752   4.574  0.00  0.00    +0.017 A 
ATOM      9  C   LIG    1       22.815 -17.649   3.990  0.00  0.00    +0.001 A 
ATOM     10  C   LIG    1       24.172 -17.695   3.726  0.00  0.00    +0.002 A 
ATOM     11  C   LIG    1       24.914 -18.837   4.060  0.00  0.00    +0.024 A 
ATOM     12  C   LIG    1       23.211 -22.480   5.883  0.00  0.00    +0.034 A 
ATOM     13  C   LIG    1       22.702 -23.682   6.422  0.00  0.00    +0.018 A 
ATOM     14  C   LIG    1       23.536 -24.758   6.698  0.00  0.00    +0.020 A 
ENDROOT
BRANCH   1  16
ATOM     15  N   LIG    1       26.486 -26.626   6.940  0.00  0.00    -0.191 NA
ATOM     16  C   LIG    1       25.775 -25.733   6.713  0.00  0.00    +0.099 C 
ENDBRANCH   1  16
BRANCH   4  17
ATOM     17  C   LIG    1       26.589 -20.993   4.945  0.00  0.00    +0.112 C 
BRANCH  17  18
ATOM     18  C   LIG    1       27.189 -20.309   6.180  0.00  0.00    +0.035 C 
BRANCH  18  19
ATOM     19  C   LIG    1       28.408 -19.443   5.819  0.00  0.00    +0.086 C 
BRANCH  19  20
ATOM     20  N   LIG    1       29.612 -19.757   6.616  0.00  0.00    -0.302 NA
ATOM     21  C   LIG    1       29.325 -20.694   7.713  0.00  0.00    +0.087 C 
ATOM     22  C   LIG    1       30.596 -21.086   8.462  0.00  0.00    +0.046 C 
ATOM     23  C   LIG    1       31.360 -19.874   8.976  0.00  0.00    +0.117 C 
ATOM     24  C   LIG    1       31.523 -18.810   7.897  0.00  0.00    +0.046 C 
ATOM     25  C   LIG    1       30.217 -18.522   7.150  0.00  0.00    +0.087 C 
BRANCH  23  26
ATOM     26  O   LIG    1       30.710 -19.326  10.124  0.00  0.00    -0.392 OA
ATOM     27  H   LIG    1       31.286 -19.442  10.896  0.00  0.00    +0.210 HD
ENDBRANCH  23  26
ENDBRANCH  19  20
ENDBRANCH  18  19
ENDBRANCH  17  18
ENDBRANCH   4  17
TORSDOF 6
ENDMDL
MODEL 4
REMARK VINA RESULT:      -6.3      5.300     10.107
REMARK  Name = *****
REMARK                            x       y       z     vdW  Elec       q    Type
REMARK                         _______ _______ _______ _____ _____    ______ ____
ROOT
ATOM      1  C   LIG    1       24.033 -30.339  11.012  0.00  0.00    +0.054 A 
ATOM      2  C   LIG    1       24.167 -30.122   9.629  0.00  0.00    +0.043 A 
ATOM      3  C   LIG    1       24.772 -31.062   8.759  0.00  0.00    +0.049 A 
ATOM      4  N   LIG    1       24.878 -30.848   7.350  0.00  0.00    -0.298 N 
ATOM      5  C   LIG    1       25.549 -31.712   6.429  0.00  0.00    +0.048 A 
ATOM      6  C   LIG    1       26.091 -32.950   6.831  0.00  0.00    +0.034 A 
ATOM      7  S   LIG    1       26.055 -33.557   8.497  0.00  0.00    -0.086 S 
ATOM      8  C   LIG    1       26.713 -33.813   5.903  0.00  0.00    +0.017 A 
ATOM      9  C   LIG    1       26.825 -33.468   4.563  0.00  0.00    +0.001 A 
ATOM     10  C   LIG    1       26.329 -32.247   4.143  0.00  0.00    +0.002 A 
ATOM     11  C   LIG    1       25.713 -31.386   5.061  0.00  0.00    +0.024 A 
ATOM     12  C   LIG    1       25.269 -32.232   9.373  0.00  0.00    +0.034 A 
ATOM     13  C   LIG    1       25.148 -32.439  10.764  0.00  0.00    +0.018 A 
ATOM     14  C   LIG    1       24.529 -31.502  11.581  0.00  0.00    +0.020 A 
ENDROOT
BRANCH   1  16
ATOM     15  N   LIG    1       22.853 -28.571  12.502  0.00  0.00    -0.191 NA
ATOM     16  C   LIG    1       23.377 -29.363  11.828  0.00  0.00    +0.099 C 
ENDBRANCH   1  16
BRANCH   4  17
ATOM     17  C   LIG    1       24.188 -29.663   6.778  0.00  0.00    +0.112 C 
BRANCH  17  18
ATOM     18  C   LIG    1       25.074 -28.413   6.865  0.00  0.00    +0.035 C 
BRANCH  18  19
ATOM     19  C   LIG    1       24.586 -27.299   5.924  0.00  0.00    +0.086 C 
BRANCH  19  20
ATOM     20  N   LIG    1       24.647 -25.950   6.526  0.00  0.00    -0.302 NA
ATOM     21  C   LIG    1       23.589 -25.063   6.015  0.00  0.00    +0.087 C 
ATOM     22  C   LIG    1       23.605 -23.710   6.720  0.00  0.00    +0.046 C 
ATOM     23  C   LIG    1       24.964 -23.030   6.634  0.00  0.00    +0.117 C 
ATOM     24  C   LIG    1       26.096 -23.984   6.998  0.00  0.00    +0.046 C 
ATOM     25  C   LIG    1       25.971 -25.341   6.299  0.00  0.00    +0.087 C 
BRANCH  23  26
ATOM     26  O   LIG    1       25.167 -22.486   5.330  0.00  0.00    -0.392 OA
ATOM     27  H   LIG    1       24.651 -21.669   5.246  0.00  0.00    +0.210 HD
ENDBRANCH  23  26
ENDBRANCH  19  20
ENDBRANCH  18  19
ENDBRANCH  17  18
ENDBRANCH   4  17
TORSDOF 6
ENDMDL
MODEL 5
REMARK VINA RESULT:      -6.3      7.353      9.952
REMARK  Name = *****
REMARK                            x       y       z     vdW  Elec       q    Type
REMARK                         _______ _______ _______ _____ _____    ______ ____
ROOT
ATOM      1  C   LIG    1       21.662 -30.505  11.502  0.00  0.00    +0.054 A 
ATOM      2  C   LIG    1       23.002 -30.083  11.566  0.00  0.00    +0.043 A 
ATOM      3  C   LIG    1       23.406 -28.906  12.243  0.00  0.00    +0.049 A 
ATOM      4  N   LIG    1       24.774 -28.499  12.327  0.00  0.00    -0.298 N 
ATOM      5  C   LIG    1       25.241 -27.284  12.919  0.00  0.00    +0.048 A 
ATOM      6  C   LIG    1       24.370 -26.401  13.590  0.00  0.00    +0.034 A 
ATOM      7  S   LIG    1       22.621 -26.653  13.740  0.00  0.00    -0.086 S 
ATOM      8  C   LIG    1       24.852 -25.227  14.208  0.00  0.00    +0.017 A 
ATOM      9  C   LIG    1       26.198 -24.891  14.165  0.00  0.00    +0.001 A 
ATOM     10  C   LIG    1       27.073 -25.722  13.488  0.00  0.00    +0.002 A 
ATOM     11  C   LIG    1       26.599 -26.889  12.872  0.00  0.00    +0.024 A 
ATOM     12  C   LIG    1       22.368 -28.152  12.831  0.00  0.00    +0.034 A 
ATOM     13  C   LIG    1       21.022 -28.570  12.752  0.00  0.00    +0.018 A 
ATOM     14  C   LIG    1       20.668 -29.742  12.097  0.00  0.00    +0.020 A 
ENDROOT
BRANCH   1  16
ATOM     15  N   LIG    1       21.055 -32.711  10.278  0.00  0.00    -0.191 NA
ATOM     16  C   LIG    1       21.328 -31.726  10.833  0.00  0.00    +0.099 C 
ENDBRANCH   1  16
BRANCH   4  17
ATOM     17  C   LIG    1       25.806 -29.436  11.813  0.00  0.00    +0.112 C 
BRANCH  17  18
ATOM     18  C   LIG    1       26.169 -29.111  10.358  0.00  0.00    +0.035 C 
BRANCH  18  19
ATOM     19  C   LIG    1       25.923 -30.309   9.426  0.00  0.00    +0.086 C 
BRANCH  19  20
ATOM     20  N   LIG    1       25.858 -29.941   7.996  0.00  0.00    -0.302 NA
ATOM     21  C   LIG    1       25.078 -28.713   7.772  0.00  0.00    +0.087 C 
ATOM     22  C   LIG    1       25.106 -28.292   6.305  0.00  0.00    +0.046 C 
ATOM     23  C   LIG    1       24.637 -29.403   5.376  0.00  0.00    +0.117 C 
ATOM     24  C   LIG    1       25.310 -30.733   5.702  0.00  0.00    +0.046 C 
ATOM     25  C   LIG    1       25.297 -31.049   7.200  0.00  0.00    +0.087 C 
BRANCH  23  26
ATOM     26  O   LIG    1       23.217 -29.535   5.435  0.00  0.00    -0.392 OA
ATOM     27  H   LIG    1       22.811 -28.751   5.031  0.00  0.00    +0.210 HD
ENDBRANCH  23  26
ENDBRANCH  19  20
ENDBRANCH  18  19
ENDBRANCH  17  18
ENDBRANCH   4  17
TORSDOF 6
ENDMDL
MODEL 6
REMARK VINA RESULT:      -6.2      4.804      8.994
REMARK  Name = *****
REMARK                            x       y       z     vdW  Elec       q    Type
REMARK                         _______ _______ _______ _____ _____    ______ ____
ROOT
ATOM      1  C   LIG    1       26.882 -28.426  11.100  0.00  0.00    +0.054 A 
ATOM      2  C   LIG    1       26.210 -28.547   9.871  0.00  0.00    +0.043 A 
ATOM      3  C   LIG    1       26.244 -29.729   9.091  0.00  0.00    +0.049 A 
ATOM      4  N   LIG    1       25.535 -29.854   7.856  0.00  0.00    -0.298 N 
ATOM      5  C   LIG    1       25.593 -30.982   6.979  0.00  0.00    +0.048 A 
ATOM      6  C   LIG    1       26.296 -32.156   7.322  0.00  0.00    +0.034 A 
ATOM      7  S   LIG    1       27.216 -32.359   8.824  0.00  0.00    -0.086 S 
ATOM      8  C   LIG    1       26.309 -33.278   6.467  0.00  0.00    +0.017 A 
ATOM      9  C   LIG    1       25.641 -33.263   5.250  0.00  0.00    +0.001 A 
ATOM     10  C   LIG    1       24.967 -32.116   4.872  0.00  0.00    +0.002 A 
ATOM     11  C   LIG    1       24.953 -30.998   5.717  0.00  0.00    +0.024 A 
ATOM     12  C   LIG    1       27.027 -30.782   9.609  0.00  0.00    +0.034 A 
ATOM     13  C   LIG    1       27.713 -30.651  10.836  0.00  0.00    +0.018 A 
ATOM     14  C   LIG    1       27.638 -29.483  11.583  0.00  0.00    +0.020 A 
ENDROOT
BRANCH   1  16
ATOM     15  N   LIG    1       26.693 -26.224  12.462  0.00  0.00    -0.191 NA
ATOM     16  C   LIG    1       26.774 -27.215  11.858  0.00  0.00    +0.099 C 
ENDBRANCH   1  16
BRANCH   4  17
ATOM     17  C   LIG    1       24.616 -28.752   7.472  0.00  0.00    +0.112 C 
BRANCH  17  18
ATOM     18  C   LIG    1       25.328 -27.725   6.582  0.00  0.00    +0.035 C 
BRANCH  18  19
ATOM     19  C   LIG    1       24.352 -26.671   6.031  0.00  0.00    +0.086 C 
BRANCH  19  20
ATOM     20  N   LIG    1       24.520 -25.335   6.641  0.00  0.00    -0.302 NA
ATOM     21  C   LIG    1       23.515 -24.373   6.163  0.00  0.00    +0.087 C 
ATOM     22  C   LIG    1       23.641 -23.031   6.877  0.00  0.00    +0.046 C 
ATOM     23  C   LIG    1       25.041 -22.445   6.762  0.00  0.00    +0.117 C 
ATOM     24  C   LIG    1       26.114 -23.478   7.091  0.00  0.00    +0.046 C 
ATOM     25  C   LIG    1       25.878 -24.817   6.386  0.00  0.00    +0.087 C 
BRANCH  23  26
ATOM     26  O   LIG    1       25.249 -21.905   5.457  0.00  0.00    -0.392 OA
ATOM     27  H   LIG    1       24.405 -21.569   5.117  0.00  0.00    +0.210 HD
ENDBRANCH  23  26
ENDBRANCH  19  20
ENDBRANCH  18  19
ENDBRANCH  17  18
ENDBRANCH   4  17
TORSDOF 6
ENDMDL
MODEL 7
REMARK VINA RESULT:      -6.1      7.834      9.373
REMARK  Name = *****
REMARK                            x       y       z     vdW  Elec       q    Type
REMARK                         _______ _______ _______ _____ _____    ______ ____
ROOT
ATOM      1  C   LIG    1       26.890 -28.515  12.244  0.00  0.00    +0.054 A 
ATOM      2  C   LIG    1       25.660 -29.198  12.227  0.00  0.00    +0.043 A 
ATOM      3  C   LIG    1       24.447 -28.604  12.652  0.00  0.00    +0.049 A 
ATOM      4  N   LIG    1       23.196 -29.295  12.605  0.00  0.00    -0.298 N 
ATOM      5  C   LIG    1       21.952 -28.790  13.095  0.00  0.00    +0.048 A 
ATOM      6  C   LIG    1       21.826 -27.474  13.589  0.00  0.00    +0.034 A 
ATOM      7  S   LIG    1       23.171 -26.325  13.707  0.00  0.00    -0.086 S 
ATOM      8  C   LIG    1       20.583 -26.973  14.030  0.00  0.00    +0.017 A 
ATOM      9  C   LIG    1       19.441 -27.761  14.006  0.00  0.00    +0.001 A 
ATOM     10  C   LIG    1       19.537 -29.066  13.555  0.00  0.00    +0.002 A 
ATOM     11  C   LIG    1       20.770 -29.568  13.118  0.00  0.00    +0.024 A 
ATOM     12  C   LIG    1       24.548 -27.281  13.132  0.00  0.00    +0.034 A 
ATOM     13  C   LIG    1       25.786 -26.604  13.163  0.00  0.00    +0.018 A 
ATOM     14  C   LIG    1       26.952 -27.213  12.716  0.00  0.00    +0.020 A 
ENDROOT
BRANCH   1  16
ATOM     15  N   LIG    1       29.030 -29.700  11.375  0.00  0.00    -0.191 NA
ATOM     16  C   LIG    1       28.074 -29.162  11.763  0.00  0.00    +0.099 C 
ENDBRANCH   1  16
BRANCH   4  17
ATOM     17  C   LIG    1       23.166 -30.624  11.941  0.00  0.00    +0.112 C 
BRANCH  17  18
ATOM     18  C   LIG    1       23.093 -30.477  10.415  0.00  0.00    +0.035 C 
BRANCH  18  19
ATOM     19  C   LIG    1       24.033 -31.462   9.700  0.00  0.00    +0.086 C 
BRANCH  19  20
ATOM     20  N   LIG    1       24.591 -30.934   8.437  0.00  0.00    -0.302 NA
ATOM     21  C   LIG    1       24.343 -29.492   8.279  0.00  0.00    +0.087 C 
ATOM     22  C   LIG    1       25.012 -28.945   7.021  0.00  0.00    +0.046 C 
ATOM     23  C   LIG    1       24.595 -29.702   5.768  0.00  0.00    +0.117 C 
ATOM     24  C   LIG    1       24.682 -31.212   5.967  0.00  0.00    +0.046 C 
ATOM     25  C   LIG    1       24.046 -31.671   7.282  0.00  0.00    +0.087 C 
BRANCH  23  26
ATOM     26  O   LIG    1       23.275 -29.325   5.375  0.00  0.00    -0.392 OA
ATOM     27  H   LIG    1       22.635 -29.878   5.851  0.00  0.00    +0.210 HD
ENDBRANCH  23  26
ENDBRANCH  19  20
ENDBRANCH  18  19
ENDBRANCH  17  18
ENDBRANCH   4  17
TORSDOF 6
ENDMDL
MODEL 8
REMARK VINA RESULT:      -6.1      7.330      9.866
REMARK  Name = *****
REMARK                            x       y       z     vdW  Elec       q    Type
REMARK                         _______ _______ _______ _____ _____    ______ ____
ROOT
ATOM      1  C   LIG    1       24.732 -26.400  13.398  0.00  0.00    +0.054 A 
ATOM      2  C   LIG    1       24.944 -27.704  12.916  0.00  0.00    +0.043 A 
ATOM      3  C   LIG    1       23.885 -28.596  12.621  0.00  0.00    +0.049 A 
ATOM      4  N   LIG    1       24.109 -29.910  12.105  0.00  0.00    -0.298 N 
ATOM      5  C   LIG    1       23.095 -30.890  11.867  0.00  0.00    +0.048 A 
ATOM      6  C   LIG    1       21.724 -30.596  12.026  0.00  0.00    +0.034 A 
ATOM      7  S   LIG    1       21.102 -29.030  12.576  0.00  0.00    -0.086 S 
ATOM      8  C   LIG    1       20.732 -31.560  11.746  0.00  0.00    +0.017 A 
ATOM      9  C   LIG    1       21.068 -32.835  11.316  0.00  0.00    +0.001 A 
ATOM     10  C   LIG    1       22.405 -33.164  11.178  0.00  0.00    +0.002 A 
ATOM     11  C   LIG    1       23.395 -32.211  11.457  0.00  0.00    +0.024 A 
ATOM     12  C   LIG    1       22.585 -28.108  12.874  0.00  0.00    +0.034 A 
ATOM     13  C   LIG    1       22.375 -26.804  13.374  0.00  0.00    +0.018 A 
ATOM     14  C   LIG    1       23.441 -25.950  13.629  0.00  0.00    +0.020 A 
ENDROOT
BRANCH   1  16
ATOM     15  N   LIG    1       26.762 -24.841  13.826  0.00  0.00    -0.191 NA
ATOM     16  C   LIG    1       25.848 -25.535  13.638  0.00  0.00    +0.099 C 
ENDBRANCH   1  16
BRANCH   4  17
ATOM     17  C   LIG    1       25.497 -30.277  11.726  0.00  0.00    +0.112 C 
BRANCH  17  18
ATOM     18  C   LIG    1       25.881 -29.661  10.374  0.00  0.00    +0.035 C 
BRANCH  18  19
ATOM     19  C   LIG    1       25.901 -30.712   9.251  0.00  0.00    +0.086 C 
BRANCH  19  20
ATOM     20  N   LIG    1       25.864 -30.127   7.895  0.00  0.00    -0.302 NA
ATOM     21  C   LIG    1       25.088 -28.878   7.847  0.00  0.00    +0.087 C 
ATOM     22  C   LIG    1       25.146 -28.236   6.463  0.00  0.00    +0.046 C 
ATOM     23  C   LIG    1       24.696 -29.190   5.366  0.00  0.00    +0.117 C 
ATOM     24  C   LIG    1       25.363 -30.554   5.495  0.00  0.00    +0.046 C 
ATOM     25  C   LIG    1       25.320 -31.098   6.926  0.00  0.00    +0.087 C 
BRANCH  23  26
ATOM     26  O   LIG    1       23.275 -29.325   5.375  0.00  0.00    -0.392 OA
ATOM     27  H   LIG    1       22.894 -28.689   4.748  0.00  0.00    +0.210 HD
ENDBRANCH  23  26
ENDBRANCH  19  20
ENDBRANCH  18  19
ENDBRANCH  17  18
ENDBRANCH   4  17
TORSDOF 6
ENDMDL
MODEL 9
REMARK VINA RESULT:      -6.1      5.447     10.402
REMARK  Name = *****
REMARK                            x       y       z     vdW  Elec       q    Type
REMARK                         _______ _______ _______ _____ _____    ______ ____
ROOT
ATOM      1  C   LIG    1       23.299 -33.031   7.146  0.00  0.00    +0.054 A 
ATOM      2  C   LIG    1       24.070 -31.864   7.293  0.00  0.00    +0.043 A 
ATOM      3  C   LIG    1       24.528 -31.400   8.550  0.00  0.00    +0.049 A 
ATOM      4  N   LIG    1       25.335 -30.228   8.689  0.00  0.00    -0.298 N 
ATOM      5  C   LIG    1       25.759 -29.657   9.929  0.00  0.00    +0.048 A 
ATOM      6  C   LIG    1       25.498 -30.285  11.165  0.00  0.00    +0.034 A 
ATOM      7  S   LIG    1       24.590 -31.798  11.338  0.00  0.00    -0.086 S 
ATOM      8  C   LIG    1       25.960 -29.732  12.379  0.00  0.00    +0.017 A 
ATOM      9  C   LIG    1       26.677 -28.545  12.401  0.00  0.00    +0.001 A 
ATOM     10  C   LIG    1       26.924 -27.890  11.208  0.00  0.00    +0.002 A 
ATOM     11  C   LIG    1       26.466 -28.433  10.000  0.00  0.00    +0.024 A 
ATOM     12  C   LIG    1       24.133 -32.168   9.667  0.00  0.00    +0.034 A 
ATOM     13  C   LIG    1       23.346 -33.330   9.517  0.00  0.00    +0.018 A 
ATOM     14  C   LIG    1       22.935 -33.766   8.264  0.00  0.00    +0.020 A 
ENDROOT
BRANCH   1  16
ATOM     15  N   LIG    1       22.566 -33.825   4.786  0.00  0.00    -0.191 NA
ATOM     16  C   LIG    1       22.901 -33.466   5.840  0.00  0.00    +0.099 C 
ENDBRANCH   1  16
BRANCH   4  17
ATOM     17  C   LIG    1       25.827 -29.578   7.447  0.00  0.00    +0.112 C 
BRANCH  17  18
ATOM     18  C   LIG    1       24.876 -28.460   6.996  0.00  0.00    +0.035 C 
BRANCH  18  19
ATOM     19  C   LIG    1       25.628 -27.321   6.287  0.00  0.00    +0.086 C 
BRANCH  19  20
ATOM     20  N   LIG    1       25.188 -25.974   6.708  0.00  0.00    -0.302 NA
ATOM     21  C   LIG    1       23.896 -25.598   6.114  0.00  0.00    +0.087 C 
ATOM     22  C   LIG    1       23.410 -24.249   6.637  0.00  0.00    +0.046 C 
ATOM     23  C   LIG    1       24.437 -23.146   6.429  0.00  0.00    +0.117 C 
ATOM     24  C   LIG    1       25.828 -23.576   6.883  0.00  0.00    +0.046 C 
ATOM     25  C   LIG    1       26.212 -24.967   6.370  0.00  0.00    +0.087 C 
BRANCH  23  26
ATOM     26  O   LIG    1       24.462 -22.740   5.060  0.00  0.00    -0.392 OA
ATOM     27  H   LIG    1       23.760 -23.209   4.581  0.00  0.00    +0.210 HD
ENDBRANCH  23  26
ENDBRANCH  19  20
ENDBRANCH  18  19
ENDBRANCH  17  18
ENDBRANCH   4  17
TORSDOF 6
ENDMDL
