MODEL 1
REMARK VINA RESULT:      -1.4      0.000      0.000
REMARK  Name = *****
REMARK                            x       y       z     vdW  Elec       q    Type
REMARK                         _______ _______ _______ _____ _____    ______ ____
ROOT
ATOM      1  N   LIG    1       23.329 -17.811   4.533  0.00  0.00    -0.297 NA
ATOM      2  C   LIG    1       23.630 -18.649   5.721  0.00  0.00    +0.100 C 
ATOM      3  C   LIG    1       22.675 -19.856   5.918  0.00  0.00    +0.100 C 
ATOM      4  N   LIG    1       22.555 -20.769   4.756  0.00  0.00    -0.292 NA
ATOM      5  C   LIG    1       22.270 -19.926   3.559  0.00  0.00    +0.100 C 
ATOM      6  C   LIG    1       23.221 -18.713   3.365  0.00  0.00    +0.100 C 
ENDROOT
BRANCH   1   7
ATOM      7  C   LIG    1       22.113 -16.987   4.750  0.00  0.00    +0.119 C 
BRANCH   7   8
ATOM      8  C   LIG    1       22.312 -15.443   4.730  0.00  0.00    +0.166 C 
BRANCH   8   9
ATOM      9  O   LIG    1       22.346 -14.914   6.062  0.00  0.00    -0.387 OA
ATOM     10  H   LIG    1       22.995 -15.460   6.539  0.00  0.00    +0.210 HD
ENDBRANCH   8   9
BRANCH   8  11
ATOM     11  C   LIG    1       23.662 -15.080   4.090  0.00  0.00    +0.261 C 
BRANCH  11  12
ATOM     12  O   LIG    1       24.226 -13.957   4.797  0.00  0.00    -0.486 OA
BRANCH  12  14
ATOM     13  C   LIG    1       25.876 -13.276   3.185  0.00  0.00    +0.162 A 
ATOM     14  C   LIG    1       25.534 -13.654   4.496  0.00  0.00    +0.162 A 
ATOM     15  C   LIG    1       26.563 -13.826   5.435  0.00  0.00    +0.049 A 
ATOM     16  C   LIG    1       27.902 -13.646   5.083  0.00  0.00    +0.004 A 
ATOM     17  C   LIG    1       28.237 -13.288   3.785  0.00  0.00    +0.004 A 
ATOM     18  C   LIG    1       27.228 -13.104   2.843  0.00  0.00    +0.049 A 
BRANCH  13  20
ATOM     19  C   LIG    1       24.077 -12.045   2.237  0.00  0.00    +0.277 C 
ATOM     20  O   LIG    1       25.034 -13.086   2.119  0.00  0.00    -0.491 OA
ENDBRANCH  13  20
ENDBRANCH  12  14
ENDBRANCH  11  12
ENDBRANCH   8  11
ENDBRANCH   7   8
ENDBRANCH   1   7
BRANCH   4  21
ATOM     21  C   LIG    1       23.790 -21.572   4.545  0.00  0.00    +0.180 C 
BRANCH  21  22
ATOM     22  C   LIG    1       24.976 -21.044   5.380  0.00  0.00    +0.231 C 
ATOM     23  N   LIG    1       25.846 -20.240   4.666  0.00  0.00    -0.284 N 
ATOM     24  H   LIG    1       25.806 -20.419   3.660  0.00  0.00    +0.155 HD
ATOM     25  O   LIG    1       25.112 -21.394   6.568  0.00  0.00    -0.274 OA
BRANCH  23  26
ATOM     26  C   LIG    1       27.079 -19.742   5.180  0.00  0.00    +0.039 A 
ATOM     27  C   LIG    1       27.582 -18.503   4.716  0.00  0.00    -0.029 A 
ATOM     28  C   LIG    1       26.883 -17.662   3.682  0.00  0.00    +0.045 C 
ATOM     29  C   LIG    1       28.776 -17.984   5.257  0.00  0.00    +0.005 A 
ATOM     30  C   LIG    1       29.474 -18.669   6.242  0.00  0.00    +0.001 A 
ATOM     31  C   LIG    1       28.970 -19.869   6.724  0.00  0.00    +0.005 A 
ATOM     32  C   LIG    1       27.764 -20.406   6.226  0.00  0.00    -0.029 A 
ATOM     33  C   LIG    1       27.183 -21.571   6.981  0.00  0.00    +0.045 C 
ENDBRANCH  23  26
ENDBRANCH  21  22
ENDBRANCH   4  21
TORSDOF 10
ENDMDL
MODEL 2
REMARK VINA RESULT:       1.3      0.750      1.743
REMARK  Name = *****
REMARK                            x       y       z     vdW  Elec       q    Type
REMARK                         _______ _______ _______ _____ _____    ______ ____
ROOT
ATOM      1  N   LIG    1       22.712 -18.356   3.733  0.00  0.00    -0.297 NA
ATOM      2  C   LIG    1       23.568 -18.466   4.940  0.00  0.00    +0.100 C 
ATOM      3  C   LIG    1       22.955 -19.303   6.094  0.00  0.00    +0.100 C 
ATOM      4  N   LIG    1       22.533 -20.677   5.728  0.00  0.00    -0.292 NA
ATOM      5  C   LIG    1       21.687 -20.569   4.505  0.00  0.00    +0.100 C 
ATOM      6  C   LIG    1       22.297 -19.724   3.352  0.00  0.00    +0.100 C 
ENDROOT
BRANCH   1   7
ATOM      7  C   LIG    1       21.565 -17.442   3.968  0.00  0.00    +0.119 C 
BRANCH   7   8
ATOM      8  C   LIG    1       21.907 -15.931   4.122  0.00  0.00    +0.166 C 
BRANCH   8   9
ATOM      9  O   LIG    1       21.902 -15.543   5.502  0.00  0.00    -0.387 OA
ATOM     10  H   LIG    1       21.279 -14.798   5.557  0.00  0.00    +0.210 HD
ENDBRANCH   8   9
BRANCH   8  11
ATOM     11  C   LIG    1       23.324 -15.641   3.602  0.00  0.00    +0.261 C 
BRANCH  11  12
ATOM     12  O   LIG    1       23.683 -14.289   3.951  0.00  0.00    -0.486 OA
BRANCH  12  14
ATOM     13  C   LIG    1       25.721 -13.438   3.002  0.00  0.00    +0.162 A 
ATOM     14  C   LIG    1       25.030 -14.036   4.071  0.00  0.00    +0.162 A 
ATOM     15  C   LIG    1       25.762 -14.469   5.187  0.00  0.00    +0.049 A 
ATOM     16  C   LIG    1       27.151 -14.329   5.240  0.00  0.00    +0.004 A 
ATOM     17  C   LIG    1       27.832 -13.752   4.178  0.00  0.00    +0.004 A 
ATOM     18  C   LIG    1       27.119 -13.309   3.067  0.00  0.00    +0.049 A 
BRANCH  13  20
ATOM     19  C   LIG    1       24.047 -12.160   1.901  0.00  0.00    +0.277 C 
ATOM     20  O   LIG    1       25.204 -12.979   1.818  0.00  0.00    -0.491 OA
ENDBRANCH  13  20
ENDBRANCH  12  14
ENDBRANCH  11  12
ENDBRANCH   8  11
ENDBRANCH   7   8
ENDBRANCH   1   7
BRANCH   4  21
ATOM     21  C   LIG    1       23.695 -21.572   5.479  0.00  0.00    +0.180 C 
BRANCH  21  22
ATOM     22  C   LIG    1       25.023 -20.949   5.963  0.00  0.00    +0.231 C 
ATOM     23  N   LIG    1       25.595 -20.079   5.052  0.00  0.00    -0.284 N 
ATOM     24  H   LIG    1       25.291 -20.263   4.094  0.00  0.00    +0.155 HD
ATOM     25  O   LIG    1       25.510 -21.285   7.059  0.00  0.00    -0.274 OA
BRANCH  23  26
ATOM     26  C   LIG    1       26.880 -19.483   5.215  0.00  0.00    +0.039 A 
ATOM     27  C   LIG    1       27.857 -20.132   6.007  0.00  0.00    -0.029 A 
ATOM     28  C   LIG    1       27.616 -21.439   6.712  0.00  0.00    +0.045 C 
ATOM     29  C   LIG    1       29.144 -19.571   6.130  0.00  0.00    +0.005 A 
ATOM     30  C   LIG    1       29.474 -18.385   5.487  0.00  0.00    +0.001 A 
ATOM     31  C   LIG    1       28.531 -17.761   4.684  0.00  0.00    +0.005 A 
ATOM     32  C   LIG    1       27.241 -18.307   4.514  0.00  0.00    -0.029 A 
ATOM     33  C   LIG    1       26.386 -17.693   3.440  0.00  0.00    +0.045 C 
ENDBRANCH  23  26
ENDBRANCH  21  22
ENDBRANCH   4  21
TORSDOF 10
ENDMDL
MODEL 3
REMARK VINA RESULT:       1.3      2.180      6.147
REMARK  Name = *****
REMARK                            x       y       z     vdW  Elec       q    Type
REMARK                         _______ _______ _______ _____ _____    ______ ____
ROOT
ATOM      1  N   LIG    1       25.913 -12.926   4.135  0.00  0.00    -0.297 NA
ATOM      2  C   LIG    1       24.545 -12.525   3.721  0.00  0.00    +0.100 C 
ATOM      3  C   LIG    1       23.743 -13.630   2.985  0.00  0.00    +0.100 C 
ATOM      4  N   LIG    1       23.622 -14.918   3.710  0.00  0.00    -0.292 NA
ATOM      5  C   LIG    1       24.994 -15.313   4.142  0.00  0.00    +0.100 C 
ATOM      6  C   LIG    1       25.801 -14.204   4.872  0.00  0.00    +0.100 C 
ENDROOT
BRANCH   1   7
ATOM      7  C   LIG    1       26.828 -13.001   2.968  0.00  0.00    +0.119 C 
BRANCH   7   8
ATOM      8  C   LIG    1       28.155 -13.787   3.180  0.00  0.00    +0.166 C 
BRANCH   8   9
ATOM      9  O   LIG    1       29.169 -12.940   3.733  0.00  0.00    -0.387 OA
ATOM     10  H   LIG    1       29.200 -12.161   3.151  0.00  0.00    +0.210 HD
ENDBRANCH   8   9
BRANCH   8  11
ATOM     11  C   LIG    1       27.953 -14.928   4.190  0.00  0.00    +0.261 C 
BRANCH  11  12
ATOM     12  O   LIG    1       27.573 -16.122   3.477  0.00  0.00    -0.486 OA
BRANCH  12  14
ATOM     13  C   LIG    1       26.876 -18.348   4.062  0.00  0.00    +0.162 A 
ATOM     14  C   LIG    1       27.826 -17.312   4.119  0.00  0.00    +0.162 A 
ATOM     15  C   LIG    1       28.956 -17.481   4.934  0.00  0.00    +0.049 A 
ATOM     16  C   LIG    1       29.137 -18.642   5.690  0.00  0.00    +0.004 A 
ATOM     17  C   LIG    1       28.190 -19.656   5.643  0.00  0.00    +0.004 A 
ATOM     18  C   LIG    1       27.068 -19.507   4.832  0.00  0.00    +0.049 A 
BRANCH  13  20
ATOM     19  C   LIG    1       25.233 -19.642   2.933  0.00  0.00    +0.277 C 
ATOM     20  O   LIG    1       25.699 -18.371   3.359  0.00  0.00    -0.491 OA
ENDBRANCH  13  20
ENDBRANCH  12  14
ENDBRANCH  11  12
ENDBRANCH   8  11
ENDBRANCH   7   8
ENDBRANCH   1   7
BRANCH   4  21
ATOM     21  C   LIG    1       22.716 -14.815   4.886  0.00  0.00    +0.180 C 
BRANCH  21  22
ATOM     22  C   LIG    1       22.102 -16.180   5.267  0.00  0.00    +0.231 C 
ATOM     23  N   LIG    1       22.531 -17.226   4.470  0.00  0.00    -0.284 N 
ATOM     24  H   LIG    1       22.860 -16.910   3.556  0.00  0.00    +0.155 HD
ATOM     25  O   LIG    1       21.259 -16.254   6.181  0.00  0.00    -0.274 OA
BRANCH  23  26
ATOM     26  C   LIG    1       22.010 -18.551   4.542  0.00  0.00    +0.039 A 
ATOM     27  C   LIG    1       20.880 -18.902   3.765  0.00  0.00    -0.029 A 
ATOM     28  C   LIG    1       20.172 -17.937   2.853  0.00  0.00    +0.045 C 
ATOM     29  C   LIG    1       20.391 -20.223   3.796  0.00  0.00    +0.005 A 
ATOM     30  C   LIG    1       20.999 -21.195   4.580  0.00  0.00    +0.001 A 
ATOM     31  C   LIG    1       22.126 -20.865   5.319  0.00  0.00    +0.005 A 
ATOM     32  C   LIG    1       22.661 -19.560   5.292  0.00  0.00    -0.029 A 
ATOM     33  C   LIG    1       24.012 -19.372   5.927  0.00  0.00    +0.045 C 
ENDBRANCH  23  26
ENDBRANCH  21  22
ENDBRANCH   4  21
TORSDOF 10
ENDMDL
