MODEL 1
REMARK VINA RESULT:      -8.8      0.000      0.000
REMARK  Name = *****
REMARK                            x       y       z     vdW  Elec       q    Type
REMARK                         _______ _______ _______ _____ _____    ______ ____
ROOT
ATOM      1  C   LIG    1       25.432 -25.408   6.449  0.00  0.00    +0.121 A 
ATOM      2  C   LIG    1       26.088 -24.218   6.786  0.00  0.00    +0.054 A 
ATOM      3  C   LIG    1       25.378 -23.018   7.055  0.00  0.00    -0.011 A 
ATOM      4  C   LIG    1       23.967 -23.058   6.916  0.00  0.00    -0.017 A 
ATOM      5  C   LIG    1       23.194 -21.910   7.115  0.00  0.00    +0.008 A 
ATOM      6  C   LIG    1       23.793 -20.708   7.469  0.00  0.00    +0.001 A 
ATOM      7  C   LIG    1       25.171 -20.651   7.650  0.00  0.00    +0.004 A 
ATOM      8  C   LIG    1       23.322 -24.250   6.577  0.00  0.00    +0.012 A 
ATOM      9  C   LIG    1       25.981 -21.788   7.456  0.00  0.00    -0.038 A 
ATOM     10  C   LIG    1       24.046 -25.414   6.355  0.00  0.00    +0.046 A 
ENDROOT
BRANCH   1  12
ATOM     11  C   LIG    1       26.136 -27.078   4.936  0.00  0.00    +0.277 C 
ATOM     12  O   LIG    1       26.227 -26.506   6.241  0.00  0.00    -0.495 OA
ENDBRANCH   1  12
BRANCH   9  13
ATOM     13  C   LIG    1       27.473 -21.648   7.710  0.00  0.00    +0.054 C 
BRANCH  13  14
ATOM     14  C   LIG    1       28.105 -20.377   7.121  0.00  0.00    +0.109 C 
BRANCH  14  15
ATOM     15  N   LIG    1       29.375 -19.993   7.707  0.00  0.00    -0.315 N 
ATOM     16  H   LIG    1       29.679 -20.459   8.551  0.00  0.00    +0.149 HD
ATOM     17  C   LIG    1       30.155 -18.995   7.166  0.00  0.00    +0.210 C 
ATOM     18  O   LIG    1       29.825 -18.321   6.207  0.00  0.00    -0.276 OA
ATOM     19  C   LIG    1       31.465 -18.793   7.886  0.00  0.00    +0.109 C 
ENDBRANCH  14  15
ENDBRANCH  13  14
ENDBRANCH   9  13
TORSDOF 4
ENDMDL
MODEL 2
REMARK VINA RESULT:      -8.4      2.709      5.696
REMARK  Name = *****
REMARK                            x       y       z     vdW  Elec       q    Type
REMARK                         _______ _______ _______ _____ _____    ______ ____
ROOT
ATOM      1  C   LIG    1       27.574 -20.753   7.268  0.00  0.00    +0.121 A 
ATOM      2  C   LIG    1       26.203 -21.035   7.260  0.00  0.00    +0.054 A 
ATOM      3  C   LIG    1       25.369 -20.687   6.165  0.00  0.00    -0.011 A 
ATOM      4  C   LIG    1       25.975 -19.988   5.088  0.00  0.00    -0.017 A 
ATOM      5  C   LIG    1       25.218 -19.566   3.992  0.00  0.00    +0.008 A 
ATOM      6  C   LIG    1       23.858 -19.836   3.925  0.00  0.00    +0.001 A 
ATOM      7  C   LIG    1       23.247 -20.554   4.949  0.00  0.00    +0.004 A 
ATOM      8  C   LIG    1       27.344 -19.710   5.106  0.00  0.00    +0.012 A 
ATOM      9  C   LIG    1       23.979 -20.994   6.071  0.00  0.00    -0.038 A 
ATOM     10  C   LIG    1       28.136 -20.095   6.180  0.00  0.00    +0.046 A 
ENDROOT
BRANCH   1  12
ATOM     11  C   LIG    1       29.687 -21.270   8.184  0.00  0.00    +0.277 C 
ATOM     12  O   LIG    1       28.277 -21.163   8.371  0.00  0.00    -0.495 OA
ENDBRANCH   1  12
BRANCH   9  13
ATOM     13  C   LIG    1       23.242 -21.803   7.126  0.00  0.00    +0.054 C 
BRANCH  13  14
ATOM     14  C   LIG    1       22.955 -23.260   6.727  0.00  0.00    +0.109 C 
BRANCH  14  15
ATOM     15  N   LIG    1       24.047 -24.187   6.954  0.00  0.00    -0.315 N 
ATOM     16  H   LIG    1       24.165 -24.579   7.878  0.00  0.00    +0.149 HD
ATOM     17  C   LIG    1       24.941 -24.517   5.959  0.00  0.00    +0.210 C 
ATOM     18  O   LIG    1       24.929 -24.023   4.846  0.00  0.00    -0.276 OA
ATOM     19  C   LIG    1       25.962 -25.543   6.379  0.00  0.00    +0.109 C 
ENDBRANCH  14  15
ENDBRANCH  13  14
ENDBRANCH   9  13
TORSDOF 4
ENDMDL
MODEL 3
REMARK VINA RESULT:      -8.4      2.822      6.661
REMARK  Name = *****
REMARK                            x       y       z     vdW  Elec       q    Type
REMARK                         _______ _______ _______ _____ _____    ______ ____
ROOT
ATOM      1  C   LIG    1       27.311 -21.445   7.670  0.00  0.00    +0.121 A 
ATOM      2  C   LIG    1       26.899 -22.728   7.290  0.00  0.00    +0.054 A 
ATOM      3  C   LIG    1       25.532 -23.048   7.082  0.00  0.00    -0.011 A 
ATOM      4  C   LIG    1       24.583 -22.022   7.328  0.00  0.00    -0.017 A 
ATOM      5  C   LIG    1       23.213 -22.265   7.194  0.00  0.00    +0.008 A 
ATOM      6  C   LIG    1       22.752 -23.515   6.802  0.00  0.00    +0.001 A 
ATOM      7  C   LIG    1       23.663 -24.528   6.518  0.00  0.00    +0.004 A 
ATOM      8  C   LIG    1       25.004 -20.745   7.708  0.00  0.00    +0.012 A 
ATOM      9  C   LIG    1       25.051 -24.318   6.644  0.00  0.00    -0.038 A 
ATOM     10  C   LIG    1       26.353 -20.457   7.869  0.00  0.00    +0.046 A 
ENDROOT
BRANCH   1  12
ATOM     11  C   LIG    1       29.253 -20.385   6.846  0.00  0.00    +0.277 C 
ATOM     12  O   LIG    1       28.661 -21.253   7.812  0.00  0.00    -0.495 OA
ENDBRANCH   1  12
BRANCH   9  13
ATOM     13  C   LIG    1       25.978 -25.466   6.278  0.00  0.00    +0.054 C 
BRANCH  13  14
ATOM     14  C   LIG    1       25.264 -26.800   6.004  0.00  0.00    +0.109 C 
BRANCH  14  15
ATOM     15  N   LIG    1       25.503 -27.839   6.988  0.00  0.00    -0.315 N 
ATOM     16  H   LIG    1       26.279 -27.732   7.626  0.00  0.00    +0.149 HD
ATOM     17  C   LIG    1       24.725 -28.974   7.052  0.00  0.00    +0.210 C 
ATOM     18  O   LIG    1       23.830 -29.227   6.266  0.00  0.00    -0.276 OA
ATOM     19  C   LIG    1       25.096 -29.898   8.184  0.00  0.00    +0.109 C 
ENDBRANCH  14  15
ENDBRANCH  13  14
ENDBRANCH   9  13
TORSDOF 4
ENDMDL
MODEL 4
REMARK VINA RESULT:      -8.1      3.250      4.250
REMARK  Name = *****
REMARK                            x       y       z     vdW  Elec       q    Type
REMARK                         _______ _______ _______ _____ _____    ______ ____
ROOT
ATOM      1  C   LIG    1       24.818 -19.605   4.271  0.00  0.00    +0.121 A 
ATOM      2  C   LIG    1       26.006 -19.823   4.978  0.00  0.00    +0.054 A 
ATOM      3  C   LIG    1       26.043 -20.600   6.165  0.00  0.00    -0.011 A 
ATOM      4  C   LIG    1       24.808 -21.109   6.643  0.00  0.00    -0.017 A 
ATOM      5  C   LIG    1       24.747 -21.844   7.831  0.00  0.00    +0.008 A 
ATOM      6  C   LIG    1       25.899 -22.104   8.561  0.00  0.00    +0.001 A 
ATOM      7  C   LIG    1       27.129 -21.650   8.094  0.00  0.00    +0.004 A 
ATOM      8  C   LIG    1       23.627 -20.885   5.931  0.00  0.00    +0.012 A 
ATOM      9  C   LIG    1       27.227 -20.905   6.902  0.00  0.00    -0.038 A 
ATOM     10  C   LIG    1       23.633 -20.148   4.754  0.00  0.00    +0.046 A 
ENDROOT
BRANCH   1  12
ATOM     11  C   LIG    1       25.786 -17.733   3.208  0.00  0.00    +0.277 C 
ATOM     12  O   LIG    1       24.916 -18.861   3.123  0.00  0.00    -0.495 OA
ENDBRANCH   1  12
BRANCH   9  13
ATOM     13  C   LIG    1       28.612 -20.479   6.444  0.00  0.00    +0.054 C 
BRANCH  13  14
ATOM     14  C   LIG    1       29.688 -20.516   7.543  0.00  0.00    +0.109 C 
BRANCH  14  15
ATOM     15  N   LIG    1       30.325 -19.244   7.824  0.00  0.00    -0.315 N 
ATOM     16  H   LIG    1       29.985 -18.418   7.351  0.00  0.00    +0.149 HD
ATOM     17  C   LIG    1       31.394 -19.140   8.686  0.00  0.00    +0.210 C 
ATOM     18  O   LIG    1       31.925 -20.093   9.225  0.00  0.00    -0.276 OA
ATOM     19  C   LIG    1       31.869 -17.723   8.890  0.00  0.00    +0.109 C 
ENDBRANCH  14  15
ENDBRANCH  13  14
ENDBRANCH   9  13
TORSDOF 4
ENDMDL
MODEL 5
REMARK VINA RESULT:      -7.9      2.488      6.116
REMARK  Name = *****
REMARK                            x       y       z     vdW  Elec       q    Type
REMARK                         _______ _______ _______ _____ _____    ______ ____
ROOT
ATOM      1  C   LIG    1       29.070 -20.886   7.665  0.00  0.00    +0.121 A 
ATOM      2  C   LIG    1       27.812 -21.500   7.658  0.00  0.00    +0.054 A 
ATOM      3  C   LIG    1       26.829 -21.190   6.681  0.00  0.00    -0.011 A 
ATOM      4  C   LIG    1       27.155 -20.185   5.734  0.00  0.00    -0.017 A 
ATOM      5  C   LIG    1       26.228 -19.784   4.767  0.00  0.00    +0.008 A 
ATOM      6  C   LIG    1       24.972 -20.373   4.704  0.00  0.00    +0.001 A 
ATOM      7  C   LIG    1       24.641 -21.389   5.597  0.00  0.00    +0.004 A 
ATOM      8  C   LIG    1       28.412 -19.577   5.750  0.00  0.00    +0.012 A 
ATOM      9  C   LIG    1       25.551 -21.816   6.586  0.00  0.00    -0.038 A 
ATOM     10  C   LIG    1       29.362 -19.930   6.700  0.00  0.00    +0.046 A 
ENDROOT
BRANCH   1  12
ATOM     11  C   LIG    1       31.085 -20.454   8.817  0.00  0.00    +0.277 C 
ATOM     12  O   LIG    1       29.942 -21.291   8.642  0.00  0.00    -0.495 OA
ENDBRANCH   1  12
BRANCH   9  13
ATOM     13  C   LIG    1       25.124 -22.956   7.496  0.00  0.00    +0.054 C 
BRANCH  13  14
ATOM     14  C   LIG    1       24.323 -24.067   6.797  0.00  0.00    +0.109 C 
BRANCH  14  15
ATOM     15  N   LIG    1       25.073 -25.273   6.502  0.00  0.00    -0.315 N 
ATOM     16  H   LIG    1       25.427 -25.823   7.273  0.00  0.00    +0.149 HD
ATOM     17  C   LIG    1       25.341 -25.666   5.209  0.00  0.00    +0.210 C 
ATOM     18  O   LIG    1       25.034 -25.018   4.226  0.00  0.00    -0.276 OA
ATOM     19  C   LIG    1       26.077 -26.979   5.117  0.00  0.00    +0.109 C 
ENDBRANCH  14  15
ENDBRANCH  13  14
ENDBRANCH   9  13
TORSDOF 4
ENDMDL
MODEL 6
REMARK VINA RESULT:      -7.8      3.606      5.229
REMARK  Name = *****
REMARK                            x       y       z     vdW  Elec       q    Type
REMARK                         _______ _______ _______ _____ _____    ______ ____
ROOT
ATOM      1  C   LIG    1       27.902 -20.620   7.034  0.00  0.00    +0.121 A 
ATOM      2  C   LIG    1       27.135 -20.286   5.912  0.00  0.00    +0.054 A 
ATOM      3  C   LIG    1       25.717 -20.345   5.925  0.00  0.00    -0.011 A 
ATOM      4  C   LIG    1       25.101 -20.811   7.115  0.00  0.00    -0.017 A 
ATOM      5  C   LIG    1       23.712 -20.946   7.198  0.00  0.00    +0.008 A 
ATOM      6  C   LIG    1       22.904 -20.611   6.120  0.00  0.00    +0.001 A 
ATOM      7  C   LIG    1       23.479 -20.114   4.955  0.00  0.00    +0.004 A 
ATOM      8  C   LIG    1       25.875 -21.144   8.230  0.00  0.00    +0.012 A 
ATOM      9  C   LIG    1       24.876 -19.967   4.836  0.00  0.00    -0.038 A 
ATOM     10  C   LIG    1       27.260 -21.041   8.192  0.00  0.00    +0.046 A 
ENDROOT
BRANCH   1  12
ATOM     11  C   LIG    1       29.726 -19.168   6.660  0.00  0.00    +0.277 C 
ATOM     12  O   LIG    1       29.261 -20.495   6.905  0.00  0.00    -0.495 OA
ENDBRANCH   1  12
BRANCH   9  13
ATOM     13  C   LIG    1       25.420 -19.382   3.542  0.00  0.00    +0.054 C 
BRANCH  13  14
ATOM     14  C   LIG    1       25.069 -17.903   3.312  0.00  0.00    +0.109 C 
BRANCH  14  15
ATOM     15  N   LIG    1       26.196 -16.991   3.349  0.00  0.00    -0.315 N 
ATOM     16  H   LIG    1       27.130 -17.372   3.276  0.00  0.00    +0.149 HD
ATOM     17  C   LIG    1       26.029 -15.633   3.512  0.00  0.00    +0.210 C 
ATOM     18  O   LIG    1       24.950 -15.101   3.699  0.00  0.00    -0.276 OA
ATOM     19  C   LIG    1       27.319 -14.854   3.459  0.00  0.00    +0.109 C 
ENDBRANCH  14  15
ENDBRANCH  13  14
ENDBRANCH   9  13
TORSDOF 4
ENDMDL
MODEL 7
REMARK VINA RESULT:      -7.7      1.905      2.137
REMARK  Name = *****
REMARK                            x       y       z     vdW  Elec       q    Type
REMARK                         _______ _______ _______ _____ _____    ______ ____
ROOT
ATOM      1  C   LIG    1       24.807 -23.985   6.655  0.00  0.00    +0.121 A 
ATOM      2  C   LIG    1       25.343 -22.833   6.068  0.00  0.00    +0.054 A 
ATOM      3  C   LIG    1       24.525 -21.752   5.646  0.00  0.00    -0.011 A 
ATOM      4  C   LIG    1       23.122 -21.908   5.795  0.00  0.00    -0.017 A 
ATOM      5  C   LIG    1       22.241 -20.913   5.362  0.00  0.00    +0.008 A 
ATOM      6  C   LIG    1       22.722 -19.743   4.790  0.00  0.00    +0.001 A 
ATOM      7  C   LIG    1       24.094 -19.548   4.669  0.00  0.00    +0.004 A 
ATOM      8  C   LIG    1       22.596 -23.062   6.380  0.00  0.00    +0.012 A 
ATOM      9  C   LIG    1       25.012 -20.531   5.093  0.00  0.00    -0.038 A 
ATOM     10  C   LIG    1       23.430 -24.086   6.813  0.00  0.00    +0.046 A 
ENDROOT
BRANCH   1  12
ATOM     11  C   LIG    1       26.111 -25.846   6.016  0.00  0.00    +0.277 C 
ATOM     12  O   LIG    1       25.703 -24.947   7.046  0.00  0.00    -0.495 OA
ENDBRANCH   1  12
BRANCH   9  13
ATOM     13  C   LIG    1       26.494 -20.222   4.958  0.00  0.00    +0.054 C 
BRANCH  13  14
ATOM     14  C   LIG    1       27.244 -20.092   6.294  0.00  0.00    +0.109 C 
BRANCH  14  15
ATOM     15  N   LIG    1       28.656 -19.783   6.178  0.00  0.00    -0.315 N 
ATOM     16  H   LIG    1       29.054 -19.671   5.255  0.00  0.00    +0.149 HD
ATOM     17  C   LIG    1       29.470 -19.671   7.284  0.00  0.00    +0.210 C 
ATOM     18  O   LIG    1       29.097 -19.880   8.424  0.00  0.00    -0.276 OA
ATOM     19  C   LIG    1       30.889 -19.282   6.954  0.00  0.00    +0.109 C 
ENDBRANCH  14  15
ENDBRANCH  13  14
ENDBRANCH   9  13
TORSDOF 4
ENDMDL
MODEL 8
REMARK VINA RESULT:      -7.4      3.181      6.281
REMARK  Name = *****
REMARK                            x       y       z     vdW  Elec       q    Type
REMARK                         _______ _______ _______ _____ _____    ______ ____
ROOT
ATOM      1  C   LIG    1       24.647 -19.533   4.221  0.00  0.00    +0.121 A 
ATOM      2  C   LIG    1       24.279 -20.395   5.261  0.00  0.00    +0.054 A 
ATOM      3  C   LIG    1       25.219 -20.868   6.214  0.00  0.00    -0.011 A 
ATOM      4  C   LIG    1       26.570 -20.472   6.040  0.00  0.00    -0.017 A 
ATOM      5  C   LIG    1       27.569 -20.931   6.904  0.00  0.00    +0.008 A 
ATOM      6  C   LIG    1       27.255 -21.772   7.963  0.00  0.00    +0.001 A 
ATOM      7  C   LIG    1       25.932 -22.145   8.180  0.00  0.00    +0.004 A 
ATOM      8  C   LIG    1       26.928 -19.613   4.998  0.00  0.00    +0.012 A 
ATOM      9  C   LIG    1       24.900 -21.703   7.327  0.00  0.00    -0.038 A 
ATOM     10  C   LIG    1       25.975 -19.142   4.103  0.00  0.00    +0.046 A 
ENDROOT
BRANCH   1  12
ATOM     11  C   LIG    1       22.456 -18.672   4.035  0.00  0.00    +0.277 C 
ATOM     12  O   LIG    1       23.642 -19.124   3.382  0.00  0.00    -0.495 OA
ENDBRANCH   1  12
BRANCH   9  13
ATOM     13  C   LIG    1       23.478 -22.126   7.656  0.00  0.00    +0.054 C 
BRANCH  13  14
ATOM     14  C   LIG    1       22.831 -23.057   6.617  0.00  0.00    +0.109 C 
BRANCH  14  15
ATOM     15  N   LIG    1       23.232 -24.448   6.705  0.00  0.00    -0.315 N 
ATOM     16  H   LIG    1       22.761 -25.047   7.369  0.00  0.00    +0.149 HD
ATOM     17  C   LIG    1       24.254 -24.961   5.936  0.00  0.00    +0.210 C 
ATOM     18  O   LIG    1       24.934 -24.293   5.179  0.00  0.00    -0.276 OA
ATOM     19  C   LIG    1       24.472 -26.441   6.129  0.00  0.00    +0.109 C 
ENDBRANCH  14  15
ENDBRANCH  13  14
ENDBRANCH   9  13
TORSDOF 4
ENDMDL
MODEL 9
REMARK VINA RESULT:      -7.3      3.624      6.198
REMARK  Name = *****
REMARK                            x       y       z     vdW  Elec       q    Type
REMARK                         _______ _______ _______ _____ _____    ______ ____
ROOT
ATOM      1  C   LIG    1       28.900 -19.720   6.686  0.00  0.00    +0.121 A 
ATOM      2  C   LIG    1       27.844 -19.977   5.804  0.00  0.00    +0.054 A 
ATOM      3  C   LIG    1       26.566 -20.392   6.261  0.00  0.00    -0.011 A 
ATOM      4  C   LIG    1       26.412 -20.589   7.657  0.00  0.00    -0.017 A 
ATOM      5  C   LIG    1       25.200 -21.042   8.188  0.00  0.00    +0.008 A 
ATOM      6  C   LIG    1       24.116 -21.294   7.358  0.00  0.00    +0.001 A 
ATOM      7  C   LIG    1       24.228 -21.072   5.989  0.00  0.00    +0.004 A 
ATOM      8  C   LIG    1       27.472 -20.331   8.530  0.00  0.00    +0.012 A 
ATOM      9  C   LIG    1       25.435 -20.617   5.420  0.00  0.00    -0.038 A 
ATOM     10  C   LIG    1       28.700 -19.893   8.050  0.00  0.00    +0.046 A 
ENDROOT
BRANCH   1  12
ATOM     11  C   LIG    1       31.192 -19.262   7.015  0.00  0.00    +0.277 C 
ATOM     12  O   LIG    1       30.078 -19.299   6.125  0.00  0.00    -0.495 OA
ENDBRANCH   1  12
BRANCH   9  13
ATOM     13  C   LIG    1       25.461 -20.365   3.922  0.00  0.00    +0.054 C 
BRANCH  13  14
ATOM     14  C   LIG    1       24.122 -19.895   3.329  0.00  0.00    +0.109 C 
BRANCH  14  15
ATOM     15  N   LIG    1       23.684 -18.583   3.763  0.00  0.00    -0.315 N 
ATOM     16  H   LIG    1       24.315 -17.801   3.651  0.00  0.00    +0.149 HD
ATOM     17  C   LIG    1       22.453 -18.382   4.349  0.00  0.00    +0.210 C 
ATOM     18  O   LIG    1       21.670 -19.278   4.604  0.00  0.00    -0.276 OA
ATOM     19  C   LIG    1       22.164 -16.937   4.668  0.00  0.00    +0.109 C 
ENDBRANCH  14  15
ENDBRANCH  13  14
ENDBRANCH   9  13
TORSDOF 4
ENDMDL
