MODEL 1
REMARK VINA RESULT:      -4.4      0.000      0.000
REMARK  Name = *****
REMARK                            x       y       z     vdW  Elec       q    Type
REMARK                         _______ _______ _______ _____ _____    ______ ____
ROOT
ATOM      1  C   LIG    1       24.209 -17.307   3.886  0.00  0.00    +0.082 A 
ATOM      2  C   LIG    1       22.844 -17.259   4.228  0.00  0.00    +0.133 A 
ATOM      3  C   LIG    1       22.255 -16.032   4.556  0.00  0.00    +0.050 A 
ATOM      4  C   LIG    1       22.971 -14.840   4.445  0.00  0.00    +0.049 A 
ATOM      5  C   LIG    1       24.295 -14.863   4.025  0.00  0.00    +0.122 A 
ATOM      6  C   LIG    1       24.913 -16.092   3.765  0.00  0.00    +0.062 A 
ENDROOT
BRANCH   1   8
ATOM      7  O   LIG    1       25.132 -19.000   2.482  0.00  0.00    -0.270 OA
ATOM      8  C   LIG    1       24.907 -18.613   3.632  0.00  0.00    +0.248 C 
ATOM      9  N   LIG    1       25.292 -19.331   4.748  0.00  0.00    -0.310 N 
ATOM     10  H   LIG    1       25.184 -18.940   5.674  0.00  0.00    +0.149 HD
BRANCH   9  11
ATOM     11  C   LIG    1       25.961 -20.629   4.701  0.00  0.00    +0.123 C 
BRANCH  11  12
ATOM     12  C   LIG    1       27.425 -20.580   5.204  0.00  0.00    +0.071 C 
ATOM     13  N   LIG    1       27.526 -21.121   6.578  0.00  0.00    -0.312 NA
ATOM     14  H   LIG    1       26.953 -20.544   7.192  0.00  0.00    +0.122 HD
ATOM     15  C   LIG    1       28.912 -21.082   7.060  0.00  0.00    +0.081 C 
ATOM     16  C   LIG    1       29.474 -19.662   7.061  0.00  0.00    +0.015 C 
ATOM     17  C   LIG    1       29.385 -19.038   5.675  0.00  0.00    +0.003 C 
ATOM     18  C   LIG    1       27.969 -19.146   5.132  0.00  0.00    +0.020 C 
ENDBRANCH  11  12
ENDBRANCH   9  11
ENDBRANCH   1   8
BRANCH   2  19
ATOM     19  O   LIG    1       22.103 -18.410   4.318  0.00  0.00    -0.482 OA
BRANCH  19  20
ATOM     20  C   LIG    1       22.491 -19.265   5.411  0.00  0.00    +0.342 C 
BRANCH  20  21
ATOM     21  C   LIG    1       22.236 -20.742   5.126  0.00  0.00    +0.424 C 
ATOM     22  F   LIG    1       20.956 -20.959   4.745  0.00  0.00    -0.167 F 
ATOM     23  F   LIG    1       22.446 -21.474   6.251  0.00  0.00    -0.167 F 
ATOM     24  F   LIG    1       23.042 -21.251   4.171  0.00  0.00    -0.167 F 
ENDBRANCH  20  21
ENDBRANCH  19  20
ENDBRANCH   2  19
BRANCH   5  25
ATOM     25  O   LIG    1       25.095 -13.763   3.883  0.00  0.00    -0.483 OA
BRANCH  25  26
ATOM     26  C   LIG    1       26.272 -13.708   4.705  0.00  0.00    +0.342 C 
BRANCH  26  27
ATOM     27  C   LIG    1       27.582 -13.949   3.962  0.00  0.00    +0.424 C 
ATOM     28  F   LIG    1       27.363 -14.014   2.626  0.00  0.00    -0.167 F 
ATOM     29  F   LIG    1       28.146 -15.122   4.331  0.00  0.00    -0.167 F 
ATOM     30  F   LIG    1       28.493 -12.975   4.172  0.00  0.00    -0.167 F 
ENDBRANCH  26  27
ENDBRANCH  25  26
ENDBRANCH   5  25
TORSDOF 9
ENDMDL
MODEL 2
REMARK VINA RESULT:      -4.2      2.809      4.553
REMARK  Name = *****
REMARK                            x       y       z     vdW  Elec       q    Type
REMARK                         _______ _______ _______ _____ _____    ______ ____
ROOT
ATOM      1  C   LIG    1       25.633 -16.909   3.348  0.00  0.00    +0.082 A 
ATOM      2  C   LIG    1       26.972 -16.976   3.777  0.00  0.00    +0.133 A 
ATOM      3  C   LIG    1       27.779 -15.833   3.710  0.00  0.00    +0.050 A 
ATOM      4  C   LIG    1       27.247 -14.601   3.327  0.00  0.00    +0.049 A 
ATOM      5  C   LIG    1       25.906 -14.502   2.983  0.00  0.00    +0.122 A 
ATOM      6  C   LIG    1       25.109 -15.654   2.977  0.00  0.00    +0.062 A 
ENDROOT
BRANCH   1   8
ATOM      7  O   LIG    1       23.553 -18.063   3.525  0.00  0.00    -0.270 OA
ATOM      8  C   LIG    1       24.765 -18.134   3.300  0.00  0.00    +0.248 C 
ATOM      9  N   LIG    1       25.393 -19.321   2.974  0.00  0.00    -0.310 N 
ATOM     10  H   LIG    1       26.365 -19.329   2.697  0.00  0.00    +0.149 HD
BRANCH   9  11
ATOM     11  C   LIG    1       24.719 -20.615   2.901  0.00  0.00    +0.123 C 
BRANCH  11  12
ATOM     12  C   LIG    1       24.297 -21.163   4.287  0.00  0.00    +0.071 C 
ATOM     13  N   LIG    1       22.931 -20.710   4.635  0.00  0.00    -0.312 NA
ATOM     14  H   LIG    1       22.933 -19.691   4.676  0.00  0.00    +0.122 HD
ATOM     15  C   LIG    1       22.522 -21.229   5.945  0.00  0.00    +0.081 C 
ATOM     16  C   LIG    1       23.473 -20.785   7.055  0.00  0.00    +0.015 C 
ATOM     17  C   LIG    1       24.904 -21.208   6.751  0.00  0.00    +0.003 C 
ATOM     18  C   LIG    1       25.311 -20.744   5.361  0.00  0.00    +0.020 C 
ENDBRANCH  11  12
ENDBRANCH   9  11
ENDBRANCH   1   8
BRANCH   2  19
ATOM     19  O   LIG    1       27.519 -18.165   4.187  0.00  0.00    -0.482 OA
BRANCH  19  20
ATOM     20  C   LIG    1       28.388 -18.041   5.330  0.00  0.00    +0.342 C 
BRANCH  20  21
ATOM     21  C   LIG    1       28.483 -19.328   6.144  0.00  0.00    +0.424 C 
ATOM     22  F   LIG    1       29.475 -19.260   7.062  0.00  0.00    -0.167 F 
ATOM     23  F   LIG    1       28.769 -20.374   5.327  0.00  0.00    -0.167 F 
ATOM     24  F   LIG    1       27.341 -19.637   6.793  0.00  0.00    -0.167 F 
ENDBRANCH  20  21
ENDBRANCH  19  20
ENDBRANCH   2  19
BRANCH   5  25
ATOM     25  O   LIG    1       25.276 -13.354   2.589  0.00  0.00    -0.483 OA
BRANCH  25  26
ATOM     26  C   LIG    1       24.073 -13.001   3.290  0.00  0.00    +0.342 C 
BRANCH  26  27
ATOM     27  C   LIG    1       24.268 -12.658   4.764  0.00  0.00    +0.424 C 
ATOM     28  F   LIG    1       25.570 -12.374   5.014  0.00  0.00    -0.167 F 
ATOM     29  F   LIG    1       23.928 -13.700   5.558  0.00  0.00    -0.167 F 
ATOM     30  F   LIG    1       23.542 -11.591   5.157  0.00  0.00    -0.167 F 
ENDBRANCH  26  27
ENDBRANCH  25  26
ENDBRANCH   5  25
TORSDOF 9
ENDMDL
MODEL 3
REMARK VINA RESULT:      -3.8      2.243      3.028
REMARK  Name = *****
REMARK                            x       y       z     vdW  Elec       q    Type
REMARK                         _______ _______ _______ _____ _____    ______ ____
ROOT
ATOM      1  C   LIG    1       25.602 -16.129   3.518  0.00  0.00    +0.082 A 
ATOM      2  C   LIG    1       24.312 -15.867   4.018  0.00  0.00    +0.133 A 
ATOM      3  C   LIG    1       23.851 -14.546   4.085  0.00  0.00    +0.050 A 
ATOM      4  C   LIG    1       24.605 -13.495   3.563  0.00  0.00    +0.049 A 
ATOM      5  C   LIG    1       25.843 -13.749   2.988  0.00  0.00    +0.122 A 
ATOM      6  C   LIG    1       26.345 -15.056   2.982  0.00  0.00    +0.062 A 
ENDROOT
BRANCH   1   8
ATOM      7  O   LIG    1       27.385 -17.702   3.710  0.00  0.00    -0.270 OA
ATOM      8  C   LIG    1       26.179 -17.516   3.528  0.00  0.00    +0.248 C 
ATOM      9  N   LIG    1       25.285 -18.554   3.345  0.00  0.00    -0.310 N 
ATOM     10  H   LIG    1       24.291 -18.376   3.300  0.00  0.00    +0.149 HD
BRANCH   9  11
ATOM     11  C   LIG    1       25.661 -19.966   3.302  0.00  0.00    +0.123 C 
BRANCH  11  12
ATOM     12  C   LIG    1       25.161 -20.767   4.530  0.00  0.00    +0.071 C 
ATOM     13  N   LIG    1       23.681 -20.769   4.588  0.00  0.00    -0.312 NA
ATOM     14  H   LIG    1       23.364 -19.805   4.680  0.00  0.00    +0.122 HD
ATOM     15  C   LIG    1       23.201 -21.531   5.747  0.00  0.00    +0.081 C 
ATOM     16  C   LIG    1       23.732 -20.964   7.061  0.00  0.00    +0.015 C 
ATOM     17  C   LIG    1       25.254 -20.919   7.062  0.00  0.00    +0.003 C 
ATOM     18  C   LIG    1       25.766 -20.201   5.823  0.00  0.00    +0.020 C 
ENDBRANCH  11  12
ENDBRANCH   9  11
ENDBRANCH   1   8
BRANCH   2  19
ATOM     19  O   LIG    1       23.533 -16.881   4.512  0.00  0.00    -0.482 OA
BRANCH  19  20
ATOM     20  C   LIG    1       22.189 -16.887   3.992  0.00  0.00    +0.342 C 
BRANCH  20  21
ATOM     21  C   LIG    1       21.553 -18.273   4.007  0.00  0.00    +0.424 C 
ATOM     22  F   LIG    1       21.675 -18.860   5.220  0.00  0.00    -0.167 F 
ATOM     23  F   LIG    1       22.178 -19.080   3.111  0.00  0.00    -0.167 F 
ATOM     24  F   LIG    1       20.244 -18.266   3.682  0.00  0.00    -0.167 F 
ENDBRANCH  20  21
ENDBRANCH  19  20
ENDBRANCH   2  19
BRANCH   5  25
ATOM     25  O   LIG    1       26.671 -12.803   2.450  0.00  0.00    -0.483 OA
BRANCH  25  26
ATOM     26  C   LIG    1       27.402 -11.981   3.374  0.00  0.00    +0.342 C 
BRANCH  26  27
ATOM     27  C   LIG    1       28.441 -12.726   4.207  0.00  0.00    +0.424 C 
ATOM     28  F   LIG    1       27.831 -13.544   5.099  0.00  0.00    -0.167 F 
ATOM     29  F   LIG    1       29.208 -11.865   4.915  0.00  0.00    -0.167 F 
ATOM     30  F   LIG    1       29.266 -13.489   3.462  0.00  0.00    -0.167 F 
ENDBRANCH  26  27
ENDBRANCH  25  26
ENDBRANCH   5  25
TORSDOF 9
ENDMDL
MODEL 4
REMARK VINA RESULT:      -3.4      3.120      5.647
REMARK  Name = *****
REMARK                            x       y       z     vdW  Elec       q    Type
REMARK                         _______ _______ _______ _____ _____    ______ ____
ROOT
ATOM      1  C   LIG    1       24.586 -18.707   4.308  0.00  0.00    +0.082 A 
ATOM      2  C   LIG    1       23.210 -18.980   4.427  0.00  0.00    +0.133 A 
ATOM      3  C   LIG    1       22.791 -20.186   5.001  0.00  0.00    +0.050 A 
ATOM      4  C   LIG    1       23.712 -21.075   5.557  0.00  0.00    +0.049 A 
ATOM      5  C   LIG    1       25.068 -20.778   5.525  0.00  0.00    +0.122 A 
ATOM      6  C   LIG    1       25.502 -19.609   4.888  0.00  0.00    +0.062 A 
ENDROOT
BRANCH   1   8
ATOM      7  O   LIG    1       25.844 -17.561   2.635  0.00  0.00    -0.270 OA
ATOM      8  C   LIG    1       25.082 -17.476   3.602  0.00  0.00    +0.248 C 
ATOM      9  N   LIG    1       24.622 -16.265   4.083  0.00  0.00    -0.310 N 
ATOM     10  H   LIG    1       23.921 -16.233   4.810  0.00  0.00    +0.149 HD
BRANCH   9  11
ATOM     11  C   LIG    1       25.009 -14.964   3.542  0.00  0.00    +0.123 C 
BRANCH  11  12
ATOM     12  C   LIG    1       26.402 -14.491   4.028  0.00  0.00    +0.071 C 
ATOM     13  N   LIG    1       26.268 -13.515   5.133  0.00  0.00    -0.312 NA
ATOM     14  H   LIG    1       25.755 -12.707   4.785  0.00  0.00    +0.122 HD
ATOM     15  C   LIG    1       27.584 -13.067   5.602  0.00  0.00    +0.081 C 
ATOM     16  C   LIG    1       28.396 -12.417   4.484  0.00  0.00    +0.015 C 
ATOM     17  C   LIG    1       28.558 -13.365   3.304  0.00  0.00    +0.003 C 
ATOM     18  C   LIG    1       27.205 -13.900   2.861  0.00  0.00    +0.020 C 
ENDBRANCH  11  12
ENDBRANCH   9  11
ENDBRANCH   1   8
BRANCH   2  19
ATOM     19  O   LIG    1       22.277 -18.114   3.917  0.00  0.00    -0.482 OA
BRANCH  19  20
ATOM     20  C   LIG    1       21.456 -18.690   2.881  0.00  0.00    +0.342 C 
BRANCH  20  21
ATOM     21  C   LIG    1       19.968 -18.430   3.092  0.00  0.00    +0.424 C 
ATOM     22  F   LIG    1       19.350 -19.505   3.634  0.00  0.00    -0.167 F 
ATOM     23  F   LIG    1       19.366 -18.186   1.899  0.00  0.00    -0.167 F 
ATOM     24  F   LIG    1       19.716 -17.367   3.884  0.00  0.00    -0.167 F 
ENDBRANCH  20  21
ENDBRANCH  19  20
ENDBRANCH   2  19
BRANCH   5  25
ATOM     25  O   LIG    1       26.060 -21.571   6.031  0.00  0.00    -0.483 OA
BRANCH  25  26
ATOM     26  C   LIG    1       26.888 -20.998   7.056  0.00  0.00    +0.342 C 
BRANCH  26  27
ATOM     27  C   LIG    1       28.246 -20.496   6.575  0.00  0.00    +0.424 C 
ATOM     28  F   LIG    1       29.235 -21.302   7.029  0.00  0.00    -0.167 F 
ATOM     29  F   LIG    1       28.500 -19.251   7.040  0.00  0.00    -0.167 F 
ATOM     30  F   LIG    1       28.346 -20.456   5.230  0.00  0.00    -0.167 F 
ENDBRANCH  26  27
ENDBRANCH  25  26
ENDBRANCH   5  25
TORSDOF 9
ENDMDL
MODEL 5
REMARK VINA RESULT:      -3.3      2.955      6.619
REMARK  Name = *****
REMARK                            x       y       z     vdW  Elec       q    Type
REMARK                         _______ _______ _______ _____ _____    ______ ____
ROOT
ATOM      1  C   LIG    1       24.767 -20.011   4.547  0.00  0.00    +0.082 A 
ATOM      2  C   LIG    1       25.308 -20.869   5.522  0.00  0.00    +0.133 A 
ATOM      3  C   LIG    1       24.452 -21.566   6.384  0.00  0.00    +0.050 A 
ATOM      4  C   LIG    1       23.068 -21.508   6.221  0.00  0.00    +0.049 A 
ATOM      5  C   LIG    1       22.521 -20.732   5.207  0.00  0.00    +0.122 A 
ATOM      6  C   LIG    1       23.366 -19.975   4.387  0.00  0.00    +0.062 A 
ENDROOT
BRANCH   1   8
ATOM      7  O   LIG    1       26.431 -19.677   2.869  0.00  0.00    -0.270 OA
ATOM      8  C   LIG    1       25.648 -19.163   3.674  0.00  0.00    +0.248 C 
ATOM      9  N   LIG    1       25.515 -17.794   3.811  0.00  0.00    -0.310 N 
ATOM     10  H   LIG    1       24.796 -17.404   4.404  0.00  0.00    +0.149 HD
BRANCH   9  11
ATOM     11  C   LIG    1       26.300 -16.812   3.066  0.00  0.00    +0.123 C 
BRANCH  11  12
ATOM     12  C   LIG    1       26.008 -15.351   3.488  0.00  0.00    +0.071 C 
ATOM     13  N   LIG    1       24.589 -15.193   3.883  0.00  0.00    -0.312 NA
ATOM     14  H   LIG    1       24.007 -15.420   3.078  0.00  0.00    +0.122 HD
ATOM     15  C   LIG    1       24.306 -13.811   4.289  0.00  0.00    +0.081 C 
ATOM     16  C   LIG    1       24.607 -12.816   3.170  0.00  0.00    +0.015 C 
ATOM     17  C   LIG    1       26.052 -12.937   2.704  0.00  0.00    +0.003 C 
ATOM     18  C   LIG    1       26.380 -14.381   2.358  0.00  0.00    +0.020 C 
ENDBRANCH  11  12
ENDBRANCH   9  11
ENDBRANCH   1   8
BRANCH   2  19
ATOM     19  O   LIG    1       26.665 -20.972   5.690  0.00  0.00    -0.482 OA
BRANCH  19  20
ATOM     20  C   LIG    1       27.220 -19.968   6.562  0.00  0.00    +0.342 C 
BRANCH  20  21
ATOM     21  C   LIG    1       28.636 -19.559   6.169  0.00  0.00    +0.424 C 
ATOM     22  F   LIG    1       28.657 -18.945   4.964  0.00  0.00    -0.167 F 
ATOM     23  F   LIG    1       29.426 -20.659   6.069  0.00  0.00    -0.167 F 
ATOM     24  F   LIG    1       29.223 -18.734   7.062  0.00  0.00    -0.167 F 
ENDBRANCH  20  21
ENDBRANCH  19  20
ENDBRANCH   2  19
BRANCH   5  25
ATOM     25  O   LIG    1       21.184 -20.595   4.954  0.00  0.00    -0.483 OA
BRANCH  25  26
ATOM     26  C   LIG    1       20.816 -20.115   3.651  0.00  0.00    +0.342 C 
BRANCH  26  27
ATOM     27  C   LIG    1       20.637 -18.602   3.554  0.00  0.00    +0.424 C 
ATOM     28  F   LIG    1       21.084 -18.150   2.357  0.00  0.00    -0.167 F 
ATOM     29  F   LIG    1       21.347 -17.963   4.512  0.00  0.00    -0.167 F 
ATOM     30  F   LIG    1       19.350 -18.216   3.674  0.00  0.00    -0.167 F 
ENDBRANCH  26  27
ENDBRANCH  25  26
ENDBRANCH   5  25
TORSDOF 9
ENDMDL
MODEL 6
REMARK VINA RESULT:      -2.3      3.224      5.821
REMARK  Name = *****
REMARK                            x       y       z     vdW  Elec       q    Type
REMARK                         _______ _______ _______ _____ _____    ______ ____
ROOT
ATOM      1  C   LIG    1       24.959 -18.727   4.095  0.00  0.00    +0.082 A 
ATOM      2  C   LIG    1       23.569 -18.869   4.266  0.00  0.00    +0.133 A 
ATOM      3  C   LIG    1       23.065 -19.987   4.941  0.00  0.00    +0.050 A 
ATOM      4  C   LIG    1       23.921 -20.908   5.544  0.00  0.00    +0.049 A 
ATOM      5  C   LIG    1       25.297 -20.735   5.458  0.00  0.00    +0.122 A 
ATOM      6  C   LIG    1       25.811 -19.660   4.723  0.00  0.00    +0.062 A 
ENDROOT
BRANCH   1   8
ATOM      7  O   LIG    1       26.175 -17.824   2.252  0.00  0.00    -0.270 OA
ATOM      8  C   LIG    1       25.538 -17.602   3.285  0.00  0.00    +0.248 C 
ATOM      9  N   LIG    1       25.298 -16.323   3.751  0.00  0.00    -0.310 N 
ATOM     10  H   LIG    1       24.688 -16.169   4.542  0.00  0.00    +0.149 HD
BRANCH   9  11
ATOM     11  C   LIG    1       25.797 -15.107   3.111  0.00  0.00    +0.123 C 
BRANCH  11  12
ATOM     12  C   LIG    1       26.954 -14.437   3.894  0.00  0.00    +0.071 C 
ATOM     13  N   LIG    1       26.425 -13.520   4.929  0.00  0.00    -0.312 NA
ATOM     14  H   LIG    1       25.884 -12.792   4.465  0.00  0.00    +0.122 HD
ATOM     15  C   LIG    1       27.517 -12.886   5.678  0.00  0.00    +0.081 C 
ATOM     16  C   LIG    1       28.447 -12.092   4.764  0.00  0.00    +0.015 C 
ATOM     17  C   LIG    1       29.016 -12.976   3.661  0.00  0.00    +0.003 C 
ATOM     18  C   LIG    1       27.897 -13.702   2.931  0.00  0.00    +0.020 C 
ENDBRANCH  11  12
ENDBRANCH   9  11
ENDBRANCH   1   8
BRANCH   2  19
ATOM     19  O   LIG    1       22.699 -17.965   3.711  0.00  0.00    -0.482 OA
BRANCH  19  20
ATOM     20  C   LIG    1       21.820 -17.343   4.668  0.00  0.00    +0.342 C 
BRANCH  20  21
ATOM     21  C   LIG    1       22.210 -15.901   4.980  0.00  0.00    +0.424 C 
ATOM     22  F   LIG    1       21.929 -15.077   3.944  0.00  0.00    -0.167 F 
ATOM     23  F   LIG    1       23.548 -15.820   5.201  0.00  0.00    -0.167 F 
ATOM     24  F   LIG    1       21.600 -15.407   6.078  0.00  0.00    -0.167 F 
ENDBRANCH  20  21
ENDBRANCH  19  20
ENDBRANCH   2  19
BRANCH   5  25
ATOM     25  O   LIG    1       26.231 -21.571   6.002  0.00  0.00    -0.483 OA
BRANCH  25  26
ATOM     26  C   LIG    1       27.068 -21.024   7.034  0.00  0.00    +0.342 C 
BRANCH  26  27
ATOM     27  C   LIG    1       28.451 -20.580   6.566  0.00  0.00    +0.424 C 
ATOM     28  F   LIG    1       28.736 -19.344   7.044  0.00  0.00    -0.167 F 
ATOM     29  F   LIG    1       28.513 -20.510   5.217  0.00  0.00    -0.167 F 
ATOM     30  F   LIG    1       29.436 -21.406   6.977  0.00  0.00    -0.167 F 
ENDBRANCH  26  27
ENDBRANCH  25  26
ENDBRANCH   5  25
TORSDOF 9
ENDMDL
MODEL 7
REMARK VINA RESULT:      -1.9      1.938      5.675
REMARK  Name = *****
REMARK                            x       y       z     vdW  Elec       q    Type
REMARK                         _______ _______ _______ _____ _____    ______ ____
ROOT
ATOM      1  C   LIG    1       25.772 -15.989   3.628  0.00  0.00    +0.082 A 
ATOM      2  C   LIG    1       26.176 -14.717   3.182  0.00  0.00    +0.133 A 
ATOM      3  C   LIG    1       25.233 -13.688   3.075  0.00  0.00    +0.050 A 
ATOM      4  C   LIG    1       23.920 -13.870   3.509  0.00  0.00    +0.049 A 
ATOM      5  C   LIG    1       23.527 -15.095   4.033  0.00  0.00    +0.122 A 
ATOM      6  C   LIG    1       24.444 -16.152   4.075  0.00  0.00    +0.062 A 
ENDROOT
BRANCH   1   8
ATOM      7  O   LIG    1       26.554 -18.131   2.925  0.00  0.00    -0.270 OA
ATOM      8  C   LIG    1       26.725 -17.149   3.655  0.00  0.00    +0.248 C 
ATOM      9  N   LIG    1       27.800 -17.042   4.517  0.00  0.00    -0.310 N 
ATOM     10  H   LIG    1       27.968 -16.185   5.025  0.00  0.00    +0.149 HD
BRANCH   9  11
ATOM     11  C   LIG    1       28.818 -18.075   4.696  0.00  0.00    +0.123 C 
BRANCH  11  12
ATOM     12  C   LIG    1       28.541 -19.000   5.907  0.00  0.00    +0.071 C 
ATOM     13  N   LIG    1       29.474 -20.151   5.912  0.00  0.00    -0.312 NA
ATOM     14  H   LIG    1       29.327 -20.684   5.057  0.00  0.00    +0.122 HD
ATOM     15  C   LIG    1       29.220 -21.029   7.060  0.00  0.00    +0.081 C 
ATOM     16  C   LIG    1       27.792 -21.570   7.058  0.00  0.00    +0.015 C 
ATOM     17  C   LIG    1       26.778 -20.434   7.037  0.00  0.00    +0.003 C 
ATOM     18  C   LIG    1       27.080 -19.472   5.899  0.00  0.00    +0.020 C 
ENDBRANCH  11  12
ENDBRANCH   9  11
ENDBRANCH   1   8
BRANCH   2  19
ATOM     19  O   LIG    1       27.467 -14.494   2.775  0.00  0.00    -0.482 OA
BRANCH  19  20
ATOM     20  C   LIG    1       27.964 -13.184   3.111  0.00  0.00    +0.342 C 
BRANCH  20  21
ATOM     21  C   LIG    1       28.016 -12.937   4.615  0.00  0.00    +0.424 C 
ATOM     22  F   LIG    1       28.067 -14.100   5.306  0.00  0.00    -0.167 F 
ATOM     23  F   LIG    1       26.896 -12.285   5.018  0.00  0.00    -0.167 F 
ATOM     24  F   LIG    1       29.069 -12.184   4.999  0.00  0.00    -0.167 F 
ENDBRANCH  20  21
ENDBRANCH  19  20
ENDBRANCH   2  19
BRANCH   5  25
ATOM     25  O   LIG    1       22.271 -15.392   4.483  0.00  0.00    -0.483 OA
BRANCH  25  26
ATOM     26  C   LIG    1       22.128 -16.591   5.262  0.00  0.00    +0.342 C 
BRANCH  26  27
ATOM     27  C   LIG    1       22.022 -17.875   4.446  0.00  0.00    +0.424 C 
ATOM     28  F   LIG    1       21.804 -18.936   5.262  0.00  0.00    -0.167 F 
ATOM     29  F   LIG    1       23.168 -18.122   3.770  0.00  0.00    -0.167 F 
ATOM     30  F   LIG    1       21.016 -17.847   3.548  0.00  0.00    -0.167 F 
ENDBRANCH  26  27
ENDBRANCH  25  26
ENDBRANCH   5  25
TORSDOF 9
ENDMDL
MODEL 8
REMARK VINA RESULT:      -1.9      3.097      6.200
REMARK  Name = *****
REMARK                            x       y       z     vdW  Elec       q    Type
REMARK                         _______ _______ _______ _____ _____    ______ ____
ROOT
ATOM      1  C   LIG    1       25.020 -18.721   3.964  0.00  0.00    +0.082 A 
ATOM      2  C   LIG    1       25.290 -19.993   4.503  0.00  0.00    +0.133 A 
ATOM      3  C   LIG    1       24.230 -20.809   4.917  0.00  0.00    +0.050 A 
ATOM      4  C   LIG    1       22.906 -20.428   4.703  0.00  0.00    +0.049 A 
ATOM      5  C   LIG    1       22.624 -19.212   4.094  0.00  0.00    +0.122 A 
ATOM      6  C   LIG    1       23.676 -18.358   3.743  0.00  0.00    +0.062 A 
ENDROOT
BRANCH   1   8
ATOM      7  O   LIG    1       27.281 -18.175   3.433  0.00  0.00    -0.270 OA
ATOM      8  C   LIG    1       26.128 -17.771   3.608  0.00  0.00    +0.248 C 
ATOM      9  N   LIG    1       25.777 -16.441   3.469  0.00  0.00    -0.310 N 
ATOM     10  H   LIG    1       24.808 -16.158   3.518  0.00  0.00    +0.149 HD
BRANCH   9  11
ATOM     11  C   LIG    1       26.717 -15.371   3.148  0.00  0.00    +0.123 C 
BRANCH  11  12
ATOM     12  C   LIG    1       26.108 -13.955   3.308  0.00  0.00    +0.071 C 
ATOM     13  N   LIG    1       25.701 -13.715   4.711  0.00  0.00    -0.312 NA
ATOM     14  H   LIG    1       24.991 -14.403   4.960  0.00  0.00    +0.122 HD
ATOM     15  C   LIG    1       25.127 -12.374   4.871  0.00  0.00    +0.081 C 
ATOM     16  C   LIG    1       23.908 -12.166   3.975  0.00  0.00    +0.015 C 
ATOM     17  C   LIG    1       24.256 -12.413   2.513  0.00  0.00    +0.003 C 
ATOM     18  C   LIG    1       24.925 -13.768   2.347  0.00  0.00    +0.020 C 
ENDBRANCH  11  12
ENDBRANCH   9  11
ENDBRANCH   1   8
BRANCH   2  19
ATOM     19  O   LIG    1       26.582 -20.412   4.699  0.00  0.00    -0.482 OA
BRANCH  19  20
ATOM     20  C   LIG    1       26.934 -20.574   6.087  0.00  0.00    +0.342 C 
BRANCH  20  21
ATOM     21  C   LIG    1       28.419 -20.341   6.352  0.00  0.00    +0.424 C 
ATOM     22  F   LIG    1       28.624 -19.197   7.045  0.00  0.00    -0.167 F 
ATOM     23  F   LIG    1       29.086 -20.218   5.176  0.00  0.00    -0.167 F 
ATOM     24  F   LIG    1       29.006 -21.347   7.033  0.00  0.00    -0.167 F 
ENDBRANCH  20  21
ENDBRANCH  19  20
ENDBRANCH   2  19
BRANCH   5  25
ATOM     25  O   LIG    1       21.370 -18.731   3.838  0.00  0.00    -0.483 OA
BRANCH  25  26
ATOM     26  C   LIG    1       21.210 -17.304   3.839  0.00  0.00    +0.342 C 
BRANCH  26  27
ATOM     27  C   LIG    1       21.883 -16.586   5.005  0.00  0.00    +0.424 C 
ATOM     28  F   LIG    1       22.946 -15.869   4.566  0.00  0.00    -0.167 F 
ATOM     29  F   LIG    1       22.347 -17.467   5.921  0.00  0.00    -0.167 F 
ATOM     30  F   LIG    1       21.058 -15.731   5.644  0.00  0.00    -0.167 F 
ENDBRANCH  26  27
ENDBRANCH  25  26
ENDBRANCH   5  25
TORSDOF 9
ENDMDL
MODEL 9
REMARK VINA RESULT:      -1.9      2.931      5.777
REMARK  Name = *****
REMARK                            x       y       z     vdW  Elec       q    Type
REMARK                         _______ _______ _______ _____ _____    ______ ____
ROOT
ATOM      1  C   LIG    1       26.135 -17.282   3.703  0.00  0.00    +0.082 A 
ATOM      2  C   LIG    1       26.125 -15.921   3.342  0.00  0.00    +0.133 A 
ATOM      3  C   LIG    1       27.212 -15.107   3.682  0.00  0.00    +0.050 A 
ATOM      4  C   LIG    1       28.355 -15.645   4.274  0.00  0.00    +0.049 A 
ATOM      5  C   LIG    1       28.414 -17.003   4.558  0.00  0.00    +0.122 A 
ATOM      6  C   LIG    1       27.303 -17.812   4.289  0.00  0.00    +0.062 A 
ENDROOT
BRANCH   1   8
ATOM      7  O   LIG    1       23.796 -17.739   3.594  0.00  0.00    -0.270 OA
ATOM      8  C   LIG    1       24.946 -18.166   3.456  0.00  0.00    +0.248 C 
ATOM      9  N   LIG    1       25.216 -19.460   3.051  0.00  0.00    -0.310 N 
ATOM     10  H   LIG    1       26.163 -19.749   2.849  0.00  0.00    +0.149 HD
BRANCH   9  11
ATOM     11  C   LIG    1       24.193 -20.469   2.784  0.00  0.00    +0.123 C 
BRANCH  11  12
ATOM     12  C   LIG    1       23.725 -21.214   4.059  0.00  0.00    +0.071 C 
ATOM     13  N   LIG    1       22.324 -20.864   4.387  0.00  0.00    -0.312 NA
ATOM     14  H   LIG    1       22.279 -19.861   4.564  0.00  0.00    +0.122 HD
ATOM     15  C   LIG    1       21.873 -21.571   5.591  0.00  0.00    +0.081 C 
ATOM     16  C   LIG    1       22.745 -21.246   6.802  0.00  0.00    +0.015 C 
ATOM     17  C   LIG    1       24.207 -21.570   6.526  0.00  0.00    +0.003 C 
ATOM     18  C   LIG    1       24.663 -20.907   5.235  0.00  0.00    +0.020 C 
ENDBRANCH  11  12
ENDBRANCH   9  11
ENDBRANCH   1   8
BRANCH   2  19
ATOM     19  O   LIG    1       25.029 -15.366   2.732  0.00  0.00    -0.482 OA
BRANCH  19  20
ATOM     20  C   LIG    1       25.175 -13.961   2.446  0.00  0.00    +0.342 C 
BRANCH  20  21
ATOM     21  C   LIG    1       24.071 -13.112   3.068  0.00  0.00    +0.424 C 
ATOM     22  F   LIG    1       22.911 -13.802   3.167  0.00  0.00    -0.167 F 
ATOM     23  F   LIG    1       23.823 -12.028   2.288  0.00  0.00    -0.167 F 
ATOM     24  F   LIG    1       24.380 -12.648   4.297  0.00  0.00    -0.167 F 
ENDBRANCH  20  21
ENDBRANCH  19  20
ENDBRANCH   2  19
BRANCH   5  25
ATOM     25  O   LIG    1       29.475 -17.641   5.140  0.00  0.00    -0.483 OA
BRANCH  25  26
ATOM     26  C   LIG    1       29.206 -18.384   6.339  0.00  0.00    +0.342 C 
BRANCH  26  27
ATOM     27  C   LIG    1       28.718 -19.811   6.111  0.00  0.00    +0.424 C 
ATOM     28  F   LIG    1       28.988 -20.205   4.843  0.00  0.00    -0.167 F 
ATOM     29  F   LIG    1       27.378 -19.904   6.280  0.00  0.00    -0.167 F 
ATOM     30  F   LIG    1       29.296 -20.704   6.941  0.00  0.00    -0.167 F 
ENDBRANCH  26  27
ENDBRANCH  25  26
ENDBRANCH   5  25
TORSDOF 9
ENDMDL
