MODEL 1
REMARK VINA RESULT:      -1.4      0.000      0.000
REMARK  Name = *****
REMARK                            x       y       z     vdW  Elec       q    Type
REMARK                         _______ _______ _______ _____ _____    ______ ____
ROOT
ATOM      1  C   LIG    1       26.992 -17.461   3.594  0.00  0.00    +0.120 C 
ENDROOT
BRANCH   1   3
ATOM      2  C   LIG    1       28.442 -18.463   5.364  0.00  0.00    +0.213 C 
ATOM      3  N   LIG    1       27.186 -18.111   4.907  0.00  0.00    -0.308 N 
ATOM      4  H   LIG    1       26.404 -18.117   5.548  0.00  0.00    +0.149 HD
ATOM      5  O   LIG    1       29.450 -18.279   4.702  0.00  0.00    -0.276 OA
BRANCH   2   6
ATOM      6  C   LIG    1       28.481 -19.034   6.793  0.00  0.00    +0.096 C 
BRANCH   6   7
ATOM      7  C   LIG    1       29.026 -20.466   6.920  0.00  0.00    +0.009 C 
BRANCH   7   8
ATOM      8  C   LIG    1       27.921 -21.546   7.055  0.00  0.00    +0.000 C 
BRANCH   8   9
ATOM      9  C   LIG    1       26.498 -20.943   7.016  0.00  0.00    -0.000 C 
BRANCH   9  10
ATOM     10  C   LIG    1       25.782 -21.086   5.658  0.00  0.00    -0.000 C 
BRANCH  10  12
ATOM     11  C   LIG    1       23.606 -21.110   7.033  0.00  0.00    +0.004 C 
ATOM     12  C   LIG    1       24.324 -21.572   5.773  0.00  0.00    -0.003 C 
ENDBRANCH  10  12
ENDBRANCH   9  10
ENDBRANCH   8   9
ENDBRANCH   7   8
ENDBRANCH   6   7
ENDBRANCH   2   6
ENDBRANCH   1   3
BRANCH   1  13
ATOM     13  C   LIG    1       27.607 -16.006   3.497  0.00  0.00    +0.166 C 
BRANCH  13  14
ATOM     14  C   LIG    1       26.634 -14.837   3.460  0.00  0.00    -0.014 A 
ATOM     15  C   LIG    1       26.157 -14.251   4.644  0.00  0.00    +0.055 A 
ATOM     16  C   LIG    1       25.272 -13.170   4.607  0.00  0.00    +0.162 A 
ATOM     17  O   LIG    1       24.890 -12.650   5.819  0.00  0.00    -0.485 OA
ATOM     18  C   LIG    1       24.123 -11.447   5.682  0.00  0.00    +0.270 C 
ATOM     19  C   LIG    1       23.154 -11.546   4.516  0.00  0.00    +0.270 C 
ATOM     20  O   LIG    1       23.868 -11.692   3.282  0.00  0.00    -0.485 OA
ATOM     21  C   LIG    1       24.811 -12.684   3.383  0.00  0.00    +0.162 A 
ATOM     22  C   LIG    1       25.318 -13.210   2.198  0.00  0.00    +0.050 A 
ATOM     23  C   LIG    1       26.237 -14.268   2.237  0.00  0.00    +0.010 A 
ENDBRANCH  13  14
BRANCH  13  24
ATOM     24  O   LIG    1       28.541 -15.731   4.546  0.00  0.00    -0.385 OA
ATOM     25  H   LIG    1       29.412 -16.086   4.278  0.00  0.00    +0.210 HD
ENDBRANCH  13  24
ENDBRANCH   1  13
BRANCH   1  26
ATOM     26  C   LIG    1       25.497 -17.479   3.139  0.00  0.00    +0.109 C 
BRANCH  26  27
ATOM     27  N   LIG    1       24.645 -18.565   3.683  0.00  0.00    -0.300 NA
ATOM     28  C   LIG    1       23.362 -18.045   4.188  0.00  0.00    +0.084 C 
ATOM     29  C   LIG    1       22.381 -19.213   4.121  0.00  0.00    +0.017 C 
ATOM     30  C   LIG    1       23.118 -20.307   3.366  0.00  0.00    +0.017 C 
ATOM     31  C   LIG    1       24.273 -19.582   2.694  0.00  0.00    +0.084 C 
ENDBRANCH  26  27
ENDBRANCH   1  26
TORSDOF 12
ENDMDL
MODEL 2
REMARK VINA RESULT:      -1.3      2.018      3.725
REMARK  Name = *****
REMARK                            x       y       z     vdW  Elec       q    Type
REMARK                         _______ _______ _______ _____ _____    ______ ____
ROOT
ATOM      1  C   LIG    1       23.495 -17.389   3.930  0.00  0.00    +0.120 C 
ENDROOT
BRANCH   1   3
ATOM      2  C   LIG    1       25.170 -19.235   3.775  0.00  0.00    +0.213 C 
ATOM      3  N   LIG    1       24.510 -18.282   4.527  0.00  0.00    -0.308 N 
ATOM      4  H   LIG    1       24.852 -18.052   5.451  0.00  0.00    +0.149 HD
ATOM      5  O   LIG    1       24.935 -19.406   2.590  0.00  0.00    -0.276 OA
BRANCH   2   6
ATOM      6  C   LIG    1       26.271 -20.010   4.523  0.00  0.00    +0.096 C 
BRANCH   6   7
ATOM      7  C   LIG    1       25.857 -20.605   5.879  0.00  0.00    +0.009 C 
BRANCH   7   8
ATOM      8  C   LIG    1       26.872 -20.330   7.019  0.00  0.00    +0.000 C 
BRANCH   8   9
ATOM      9  C   LIG    1       28.108 -21.257   6.945  0.00  0.00    -0.000 C 
BRANCH   9  10
ATOM     10  C   LIG    1       29.460 -20.526   7.062  0.00  0.00    -0.000 C 
BRANCH  10  12
ATOM     11  C   LIG    1       29.415 -18.500   5.473  0.00  0.00    +0.004 C 
ATOM     12  C   LIG    1       29.353 -18.996   6.911  0.00  0.00    -0.003 C 
ENDBRANCH  10  12
ENDBRANCH   9  10
ENDBRANCH   8   9
ENDBRANCH   7   8
ENDBRANCH   6   7
ENDBRANCH   2   6
ENDBRANCH   1   3
BRANCH   1  13
ATOM     13  C   LIG    1       23.673 -15.863   4.310  0.00  0.00    +0.166 C 
BRANCH  13  14
ATOM     14  C   LIG    1       25.055 -15.253   4.126  0.00  0.00    -0.014 A 
ATOM     15  C   LIG    1       25.503 -14.207   4.948  0.00  0.00    +0.055 A 
ATOM     16  C   LIG    1       26.777 -13.655   4.783  0.00  0.00    +0.162 A 
ATOM     17  O   LIG    1       27.130 -12.658   5.657  0.00  0.00    -0.485 OA
ATOM     18  C   LIG    1       28.504 -12.274   5.524  0.00  0.00    +0.270 C 
ATOM     19  C   LIG    1       28.924 -12.239   4.064  0.00  0.00    +0.270 C 
ATOM     20  O   LIG    1       28.830 -13.547   3.485  0.00  0.00    -0.485 OA
ATOM     21  C   LIG    1       27.610 -14.112   3.761  0.00  0.00    +0.162 A 
ATOM     22  C   LIG    1       27.210 -15.189   2.974  0.00  0.00    +0.050 A 
ATOM     23  C   LIG    1       25.947 -15.767   3.167  0.00  0.00    +0.010 A 
ENDBRANCH  13  14
BRANCH  13  24
ATOM     24  O   LIG    1       22.753 -15.012   3.618  0.00  0.00    -0.385 OA
ATOM     25  H   LIG    1       21.853 -15.211   3.944  0.00  0.00    +0.210 HD
ENDBRANCH  13  24
ENDBRANCH   1  13
BRANCH   1  26
ATOM     26  C   LIG    1       22.037 -17.878   4.209  0.00  0.00    +0.109 C 
BRANCH  26  27
ATOM     27  N   LIG    1       21.890 -19.137   4.980  0.00  0.00    -0.300 NA
ATOM     28  C   LIG    1       21.979 -20.321   4.107  0.00  0.00    +0.084 C 
ATOM     29  C   LIG    1       22.439 -21.469   5.003  0.00  0.00    +0.017 C 
ATOM     30  C   LIG    1       22.799 -20.818   6.328  0.00  0.00    +0.017 C 
ATOM     31  C   LIG    1       22.931 -19.341   5.994  0.00  0.00    +0.084 C 
ENDBRANCH  26  27
ENDBRANCH   1  26
TORSDOF 12
ENDMDL
MODEL 3
REMARK VINA RESULT:      -0.3      2.574      5.787
REMARK  Name = *****
REMARK                            x       y       z     vdW  Elec       q    Type
REMARK                         _______ _______ _______ _____ _____    ______ ____
ROOT
ATOM      1  C   LIG    1       25.890 -15.217   3.862  0.00  0.00    +0.120 C 
ENDROOT
BRANCH   1   3
ATOM      2  C   LIG    1       27.904 -16.603   4.369  0.00  0.00    +0.213 C 
ATOM      3  N   LIG    1       26.607 -16.508   3.901  0.00  0.00    -0.308 N 
ATOM      4  H   LIG    1       26.065 -17.350   3.761  0.00  0.00    +0.149 HD
ATOM      5  O   LIG    1       28.531 -15.629   4.751  0.00  0.00    -0.276 OA
BRANCH   2   6
ATOM      6  C   LIG    1       28.468 -18.034   4.442  0.00  0.00    +0.096 C 
BRANCH   6   7
ATOM      7  C   LIG    1       29.061 -18.443   5.801  0.00  0.00    +0.009 C 
BRANCH   7   8
ATOM      8  C   LIG    1       29.398 -19.953   5.908  0.00  0.00    +0.000 C 
BRANCH   8   9
ATOM      9  C   LIG    1       28.636 -20.647   7.061  0.00  0.00    -0.000 C 
BRANCH   9  10
ATOM     10  C   LIG    1       27.491 -21.572   6.602  0.00  0.00    -0.000 C 
BRANCH  10  12
ATOM     11  C   LIG    1       25.242 -20.405   7.060  0.00  0.00    +0.004 C 
ATOM     12  C   LIG    1       26.279 -20.817   6.024  0.00  0.00    -0.003 C 
ENDBRANCH  10  12
ENDBRANCH   9  10
ENDBRANCH   8   9
ENDBRANCH   7   8
ENDBRANCH   6   7
ENDBRANCH   2   6
ENDBRANCH   1   3
BRANCH   1  13
ATOM     13  C   LIG    1       24.323 -15.353   3.691  0.00  0.00    +0.166 C 
BRANCH  13  14
ATOM     14  C   LIG    1       23.701 -16.708   3.993  0.00  0.00    -0.014 A 
ATOM     15  C   LIG    1       24.318 -17.900   3.578  0.00  0.00    +0.055 A 
ATOM     16  C   LIG    1       23.749 -19.144   3.865  0.00  0.00    +0.162 A 
ATOM     17  O   LIG    1       24.446 -20.248   3.442  0.00  0.00    -0.485 OA
ATOM     18  C   LIG    1       23.881 -21.472   3.926  0.00  0.00    +0.270 C 
ATOM     19  C   LIG    1       22.363 -21.426   3.889  0.00  0.00    +0.270 C 
ATOM     20  O   LIG    1       21.871 -20.400   4.762  0.00  0.00    -0.485 OA
ATOM     21  C   LIG    1       22.528 -19.217   4.537  0.00  0.00    +0.162 A 
ATOM     22  C   LIG    1       21.931 -18.052   5.011  0.00  0.00    +0.050 A 
ATOM     23  C   LIG    1       22.523 -16.807   4.755  0.00  0.00    +0.010 A 
ENDBRANCH  13  14
BRANCH  13  24
ATOM     24  O   LIG    1       23.598 -14.388   4.462  0.00  0.00    -0.385 OA
ATOM     25  H   LIG    1       24.234 -13.929   5.047  0.00  0.00    +0.210 HD
ENDBRANCH  13  24
ENDBRANCH   1  13
BRANCH   1  26
ATOM     26  C   LIG    1       26.494 -14.235   2.807  0.00  0.00    +0.109 C 
BRANCH  26  27
ATOM     27  N   LIG    1       27.224 -13.055   3.331  0.00  0.00    -0.300 NA
ATOM     28  C   LIG    1       26.990 -12.871   4.775  0.00  0.00    +0.084 C 
ATOM     29  C   LIG    1       28.199 -12.101   5.301  0.00  0.00    +0.017 C 
ATOM     30  C   LIG    1       29.182 -12.067   4.143  0.00  0.00    +0.017 C 
ATOM     31  C   LIG    1       28.682 -13.148   3.198  0.00  0.00    +0.084 C 
ENDBRANCH  26  27
ENDBRANCH   1  26
TORSDOF 12
ENDMDL
MODEL 4
REMARK VINA RESULT:      -0.1      2.424      5.361
REMARK  Name = *****
REMARK                            x       y       z     vdW  Elec       q    Type
REMARK                         _______ _______ _______ _____ _____    ______ ____
ROOT
ATOM      1  C   LIG    1       26.956 -16.119   4.151  0.00  0.00    +0.120 C 
ENDROOT
BRANCH   1   3
ATOM      2  C   LIG    1       28.758 -17.498   5.194  0.00  0.00    +0.213 C 
ATOM      3  N   LIG    1       27.799 -17.331   4.213  0.00  0.00    -0.308 N 
ATOM      4  H   LIG    1       27.528 -18.121   3.643  0.00  0.00    +0.149 HD
ATOM      5  O   LIG    1       28.975 -16.649   6.043  0.00  0.00    -0.276 OA
BRANCH   2   6
ATOM      6  C   LIG    1       29.474 -18.861   5.182  0.00  0.00    +0.096 C 
BRANCH   6   7
ATOM      7  C   LIG    1       29.341 -19.690   6.470  0.00  0.00    +0.009 C 
BRANCH   7   8
ATOM      8  C   LIG    1       27.878 -19.869   6.951  0.00  0.00    +0.000 C 
BRANCH   8   9
ATOM      9  C   LIG    1       27.421 -21.347   6.914  0.00  0.00    -0.000 C 
BRANCH   9  10
ATOM     10  C   LIG    1       25.974 -21.553   6.425  0.00  0.00    -0.000 C 
BRANCH  10  12
ATOM     11  C   LIG    1       23.508 -21.027   6.947  0.00  0.00    +0.004 C 
ATOM     12  C   LIG    1       24.960 -20.582   7.060  0.00  0.00    -0.003 C 
ENDBRANCH  10  12
ENDBRANCH   9  10
ENDBRANCH   8   9
ENDBRANCH   7   8
ENDBRANCH   6   7
ENDBRANCH   2   6
ENDBRANCH   1   3
BRANCH   1  13
ATOM     13  C   LIG    1       25.585 -16.323   3.389  0.00  0.00    +0.166 C 
BRANCH  13  14
ATOM     14  C   LIG    1       24.902 -17.676   3.529  0.00  0.00    -0.014 A 
ATOM     15  C   LIG    1       23.526 -17.772   3.796  0.00  0.00    +0.055 A 
ATOM     16  C   LIG    1       22.900 -19.015   3.914  0.00  0.00    +0.162 A 
ATOM     17  O   LIG    1       21.547 -19.000   4.146  0.00  0.00    -0.485 OA
ATOM     18  C   LIG    1       20.965 -20.307   4.082  0.00  0.00    +0.270 C 
ATOM     19  C   LIG    1       21.872 -21.342   4.728  0.00  0.00    +0.270 C 
ATOM     20  O   LIG    1       23.112 -21.435   4.015  0.00  0.00    -0.485 OA
ATOM     21  C   LIG    1       23.648 -20.189   3.811  0.00  0.00    +0.162 A 
ATOM     22  C   LIG    1       25.000 -20.117   3.486  0.00  0.00    +0.050 A 
ATOM     23  C   LIG    1       25.619 -18.869   3.329  0.00  0.00    +0.010 A 
ENDBRANCH  13  14
BRANCH  13  24
ATOM     24  O   LIG    1       24.610 -15.333   3.734  0.00  0.00    -0.385 OA
ATOM     25  H   LIG    1       23.810 -15.495   3.195  0.00  0.00    +0.210 HD
ENDBRANCH  13  24
ENDBRANCH   1  13
BRANCH   1  26
ATOM     26  C   LIG    1       27.737 -14.883   3.596  0.00  0.00    +0.109 C 
BRANCH  26  27
ATOM     27  N   LIG    1       27.070 -13.563   3.713  0.00  0.00    -0.300 NA
ATOM     28  C   LIG    1       25.956 -13.431   2.756  0.00  0.00    +0.084 C 
ATOM     29  C   LIG    1       25.007 -12.398   3.358  0.00  0.00    +0.017 C 
ATOM     30  C   LIG    1       25.536 -12.142   4.759  0.00  0.00    +0.017 C 
ATOM     31  C   LIG    1       26.466 -13.315   5.027  0.00  0.00    +0.084 C 
ENDBRANCH  26  27
ENDBRANCH   1  26
TORSDOF 12
ENDMDL
MODEL 5
REMARK VINA RESULT:       0.3      2.291      5.106
REMARK  Name = *****
REMARK                            x       y       z     vdW  Elec       q    Type
REMARK                         _______ _______ _______ _____ _____    ______ ____
ROOT
ATOM      1  C   LIG    1       23.786 -18.895   3.684  0.00  0.00    +0.120 C 
ENDROOT
BRANCH   1   3
ATOM      2  C   LIG    1       26.141 -18.069   3.594  0.00  0.00    +0.213 C 
ATOM      3  N   LIG    1       25.113 -18.670   4.295  0.00  0.00    -0.308 N 
ATOM      4  H   LIG    1       25.195 -18.786   5.296  0.00  0.00    +0.149 HD
ATOM      5  O   LIG    1       26.018 -17.716   2.433  0.00  0.00    -0.276 OA
BRANCH   2   6
ATOM      6  C   LIG    1       27.424 -17.812   4.407  0.00  0.00    +0.096 C 
BRANCH   6   7
ATOM      7  C   LIG    1       28.026 -16.405   4.265  0.00  0.00    +0.009 C 
BRANCH   7   8
ATOM      8  C   LIG    1       26.967 -15.273   4.219  0.00  0.00    +0.000 C 
BRANCH   8   9
ATOM      9  C   LIG    1       26.928 -14.556   2.849  0.00  0.00    -0.000 C 
BRANCH   9  10
ATOM     10  C   LIG    1       27.677 -13.209   2.813  0.00  0.00    -0.000 C 
BRANCH  10  12
ATOM     11  C   LIG    1       28.609 -12.242   5.010  0.00  0.00    +0.004 C 
ATOM     12  C   LIG    1       28.859 -13.130   3.799  0.00  0.00    -0.003 C 
ENDBRANCH  10  12
ENDBRANCH   9  10
ENDBRANCH   8   9
ENDBRANCH   7   8
ENDBRANCH   6   7
ENDBRANCH   2   6
ENDBRANCH   1   3
BRANCH   1  13
ATOM     13  C   LIG    1       22.608 -18.108   4.389  0.00  0.00    +0.166 C 
BRANCH  13  14
ATOM     14  C   LIG    1       22.801 -16.616   4.617  0.00  0.00    -0.014 A 
ATOM     15  C   LIG    1       23.348 -15.793   3.619  0.00  0.00    +0.055 A 
ATOM     16  C   LIG    1       23.515 -14.421   3.827  0.00  0.00    +0.162 A 
ATOM     17  O   LIG    1       24.030 -13.701   2.779  0.00  0.00    -0.485 OA
ATOM     18  C   LIG    1       24.006 -12.289   3.019  0.00  0.00    +0.270 C 
ATOM     19  C   LIG    1       24.373 -11.973   4.459  0.00  0.00    +0.270 C 
ATOM     20  O   LIG    1       23.408 -12.536   5.358  0.00  0.00    -0.485 OA
ATOM     21  C   LIG    1       23.177 -13.854   5.057  0.00  0.00    +0.162 A 
ATOM     22  C   LIG    1       22.577 -14.640   6.037  0.00  0.00    +0.050 A 
ATOM     23  C   LIG    1       22.375 -16.009   5.811  0.00  0.00    +0.010 A 
ENDBRANCH  13  14
BRANCH  13  24
ATOM     24  O   LIG    1       21.358 -18.262   3.708  0.00  0.00    -0.385 OA
ATOM     25  H   LIG    1       21.290 -17.554   3.037  0.00  0.00    +0.210 HD
ENDBRANCH  13  24
ENDBRANCH   1  13
BRANCH   1  26
ATOM     26  C   LIG    1       23.450 -20.415   3.542  0.00  0.00    +0.109 C 
BRANCH  26  27
ATOM     27  N   LIG    1       23.601 -21.251   4.758  0.00  0.00    -0.300 NA
ATOM     28  C   LIG    1       24.966 -21.165   5.308  0.00  0.00    +0.084 C 
ATOM     29  C   LIG    1       24.841 -21.502   6.792  0.00  0.00    +0.017 C 
ATOM     30  C   LIG    1       23.347 -21.559   7.061  0.00  0.00    +0.017 C 
ATOM     31  C   LIG    1       22.726 -20.854   5.866  0.00  0.00    +0.084 C 
ENDBRANCH  26  27
ENDBRANCH   1  26
TORSDOF 12
ENDMDL
MODEL 6
REMARK VINA RESULT:       0.3      2.026      6.156
REMARK  Name = *****
REMARK                            x       y       z     vdW  Elec       q    Type
REMARK                         _______ _______ _______ _____ _____    ______ ____
ROOT
ATOM      1  C   LIG    1       25.099 -14.409   3.137  0.00  0.00    +0.120 C 
ENDROOT
BRANCH   1   3
ATOM      2  C   LIG    1       23.216 -15.382   4.458  0.00  0.00    +0.213 C 
ATOM      3  N   LIG    1       24.127 -15.485   3.424  0.00  0.00    -0.308 N 
ATOM      4  H   LIG    1       24.012 -16.211   2.730  0.00  0.00    +0.149 HD
ATOM      5  O   LIG    1       23.180 -14.414   5.200  0.00  0.00    -0.276 OA
BRANCH   2   6
ATOM      6  C   LIG    1       22.205 -16.540   4.557  0.00  0.00    +0.096 C 
BRANCH   6   7
ATOM      7  C   LIG    1       22.786 -17.888   5.014  0.00  0.00    +0.009 C 
BRANCH   7   8
ATOM      8  C   LIG    1       22.769 -18.982   3.915  0.00  0.00    +0.000 C 
BRANCH   8   9
ATOM      9  C   LIG    1       23.300 -20.342   4.427  0.00  0.00    -0.000 C 
BRANCH   9  10
ATOM     10  C   LIG    1       22.527 -20.915   5.631  0.00  0.00    -0.000 C 
BRANCH  10  12
ATOM     11  C   LIG    1       24.832 -20.726   6.761  0.00  0.00    +0.004 C 
ATOM     12  C   LIG    1       23.332 -20.911   6.945  0.00  0.00    -0.003 C 
ENDBRANCH  10  12
ENDBRANCH   9  10
ENDBRANCH   8   9
ENDBRANCH   7   8
ENDBRANCH   6   7
ENDBRANCH   2   6
ENDBRANCH   1   3
BRANCH   1  13
ATOM     13  C   LIG    1       26.607 -14.888   3.123  0.00  0.00    +0.166 C 
BRANCH  13  14
ATOM     14  C   LIG    1       26.907 -16.273   3.677  0.00  0.00    -0.014 A 
ATOM     15  C   LIG    1       28.000 -16.494   4.530  0.00  0.00    +0.055 A 
ATOM     16  C   LIG    1       28.267 -17.765   5.047  0.00  0.00    +0.162 A 
ATOM     17  O   LIG    1       29.340 -17.868   5.895  0.00  0.00    -0.485 OA
ATOM     18  C   LIG    1       29.435 -19.161   6.505  0.00  0.00    +0.270 C 
ATOM     19  C   LIG    1       29.095 -20.261   5.513  0.00  0.00    +0.270 C 
ATOM     20  O   LIG    1       27.736 -20.137   5.074  0.00  0.00    -0.485 OA
ATOM     21  C   LIG    1       27.468 -18.850   4.681  0.00  0.00    +0.162 A 
ATOM     22  C   LIG    1       26.344 -18.642   3.887  0.00  0.00    +0.050 A 
ATOM     23  C   LIG    1       26.056 -17.359   3.402  0.00  0.00    +0.010 A 
ENDBRANCH  13  14
BRANCH  13  24
ATOM     24  O   LIG    1       27.190 -14.834   1.816  0.00  0.00    -0.385 OA
ATOM     25  H   LIG    1       27.439 -13.906   1.634  0.00  0.00    +0.210 HD
ENDBRANCH  13  24
ENDBRANCH   1  13
BRANCH   1  26
ATOM     26  C   LIG    1       24.904 -13.170   4.070  0.00  0.00    +0.109 C 
BRANCH  26  27
ATOM     27  N   LIG    1       26.123 -12.614   4.707  0.00  0.00    -0.300 NA
ATOM     28  C   LIG    1       26.566 -13.442   5.843  0.00  0.00    +0.084 C 
ATOM     29  C   LIG    1       28.062 -13.178   5.996  0.00  0.00    +0.017 C 
ATOM     30  C   LIG    1       28.446 -12.354   4.779  0.00  0.00    +0.017 C 
ATOM     31  C   LIG    1       27.286 -12.551   3.815  0.00  0.00    +0.084 C 
ENDBRANCH  26  27
ENDBRANCH   1  26
TORSDOF 12
ENDMDL
MODEL 7
REMARK VINA RESULT:       0.3      2.403      4.632
REMARK  Name = *****
REMARK                            x       y       z     vdW  Elec       q    Type
REMARK                         _______ _______ _______ _____ _____    ______ ____
ROOT
ATOM      1  C   LIG    1       23.562 -16.206   3.763  0.00  0.00    +0.120 C 
ENDROOT
BRANCH   1   3
ATOM      2  C   LIG    1       22.835 -18.566   4.138  0.00  0.00    +0.213 C 
ATOM      3  N   LIG    1       22.896 -17.253   4.567  0.00  0.00    -0.308 N 
ATOM      4  H   LIG    1       22.658 -17.030   5.523  0.00  0.00    +0.149 HD
ATOM      5  O   LIG    1       23.304 -18.924   3.070  0.00  0.00    -0.276 OA
BRANCH   2   6
ATOM      6  C   LIG    1       22.202 -19.550   5.139  0.00  0.00    +0.096 C 
BRANCH   6   7
ATOM      7  C   LIG    1       23.030 -20.810   5.441  0.00  0.00    +0.009 C 
BRANCH   7   8
ATOM      8  C   LIG    1       23.686 -20.806   6.846  0.00  0.00    +0.000 C 
BRANCH   8   9
ATOM      9  C   LIG    1       25.120 -21.386   6.831  0.00  0.00    -0.000 C 
BRANCH   9  10
ATOM     10  C   LIG    1       26.146 -20.526   6.066  0.00  0.00    -0.000 C 
BRANCH  10  12
ATOM     11  C   LIG    1       28.574 -19.674   6.007  0.00  0.00    +0.004 C 
ATOM     12  C   LIG    1       27.460 -20.295   6.837  0.00  0.00    -0.003 C 
ENDBRANCH  10  12
ENDBRANCH   9  10
ENDBRANCH   8   9
ENDBRANCH   7   8
ENDBRANCH   6   7
ENDBRANCH   2   6
ENDBRANCH   1   3
BRANCH   1  13
ATOM     13  C   LIG    1       25.034 -16.573   3.314  0.00  0.00    +0.166 C 
BRANCH  13  14
ATOM     14  C   LIG    1       26.095 -15.491   3.442  0.00  0.00    -0.014 A 
ATOM     15  C   LIG    1       26.398 -14.912   4.685  0.00  0.00    +0.055 A 
ATOM     16  C   LIG    1       27.381 -13.926   4.801  0.00  0.00    +0.162 A 
ATOM     17  O   LIG    1       27.622 -13.447   6.064  0.00  0.00    -0.485 OA
ATOM     18  C   LIG    1       28.754 -12.570   6.111  0.00  0.00    +0.270 C 
ATOM     19  C   LIG    1       28.794 -11.661   4.894  0.00  0.00    +0.270 C 
ATOM     20  O   LIG    1       28.952 -12.434   3.697  0.00  0.00    -0.485 OA
ATOM     21  C   LIG    1       28.049 -13.467   3.664  0.00  0.00    +0.162 A 
ATOM     22  C   LIG    1       27.808 -14.069   2.433  0.00  0.00    +0.050 A 
ATOM     23  C   LIG    1       26.850 -15.087   2.325  0.00  0.00    +0.010 A 
ENDBRANCH  13  14
BRANCH  13  24
ATOM     24  O   LIG    1       25.543 -17.730   3.988  0.00  0.00    -0.385 OA
ATOM     25  H   LIG    1       24.874 -18.440   3.919  0.00  0.00    +0.210 HD
ENDBRANCH  13  24
ENDBRANCH   1  13
BRANCH   1  26
ATOM     26  C   LIG    1       23.512 -14.806   4.457  0.00  0.00    +0.109 C 
BRANCH  26  27
ATOM     27  N   LIG    1       23.352 -13.626   3.572  0.00  0.00    -0.300 NA
ATOM     28  C   LIG    1       23.847 -12.396   4.215  0.00  0.00    +0.084 C 
ATOM     29  C   LIG    1       24.216 -11.447   3.077  0.00  0.00    +0.017 C 
ATOM     30  C   LIG    1       24.106 -12.283   1.813  0.00  0.00    +0.017 C 
ATOM     31  C   LIG    1       24.102 -13.718   2.315  0.00  0.00    +0.084 C 
ENDBRANCH  26  27
ENDBRANCH   1  26
TORSDOF 12
ENDMDL
MODEL 8
REMARK VINA RESULT:       0.4      1.353      3.836
REMARK  Name = *****
REMARK                            x       y       z     vdW  Elec       q    Type
REMARK                         _______ _______ _______ _____ _____    ______ ____
ROOT
ATOM      1  C   LIG    1       26.328 -17.789   4.372  0.00  0.00    +0.120 C 
ENDROOT
BRANCH   1   3
ATOM      2  C   LIG    1       24.514 -19.117   3.283  0.00  0.00    +0.213 C 
ATOM      3  N   LIG    1       24.935 -17.958   3.906  0.00  0.00    -0.308 N 
ATOM      4  H   LIG    1       24.250 -17.287   4.227  0.00  0.00    +0.149 HD
ATOM      5  O   LIG    1       25.270 -20.049   3.064  0.00  0.00    -0.276 OA
BRANCH   2   6
ATOM      6  C   LIG    1       23.010 -19.173   2.956  0.00  0.00    +0.096 C 
BRANCH   6   7
ATOM      7  C   LIG    1       22.286 -20.458   3.392  0.00  0.00    +0.009 C 
BRANCH   7   8
ATOM      8  C   LIG    1       21.671 -20.378   4.813  0.00  0.00    +0.000 C 
BRANCH   8   9
ATOM      9  C   LIG    1       22.098 -21.565   5.709  0.00  0.00    -0.000 C 
BRANCH   9  10
ATOM     10  C   LIG    1       22.780 -21.154   7.029  0.00  0.00    -0.000 C 
BRANCH  10  12
ATOM     11  C   LIG    1       24.965 -21.570   5.733  0.00  0.00    +0.004 C 
ATOM     12  C   LIG    1       24.281 -20.840   6.880  0.00  0.00    -0.003 C 
ENDBRANCH  10  12
ENDBRANCH   9  10
ENDBRANCH   8   9
ENDBRANCH   7   8
ENDBRANCH   6   7
ENDBRANCH   2   6
ENDBRANCH   1   3
BRANCH   1  13
ATOM     13  C   LIG    1       27.138 -16.673   3.597  0.00  0.00    +0.166 C 
BRANCH  13  14
ATOM     14  C   LIG    1       26.450 -15.333   3.381  0.00  0.00    -0.014 A 
ATOM     15  C   LIG    1       25.605 -14.783   4.358  0.00  0.00    +0.055 A 
ATOM     16  C   LIG    1       24.983 -13.547   4.160  0.00  0.00    +0.162 A 
ATOM     17  O   LIG    1       24.202 -13.084   5.189  0.00  0.00    -0.485 OA
ATOM     18  C   LIG    1       23.745 -11.743   4.970  0.00  0.00    +0.270 C 
ATOM     19  C   LIG    1       23.359 -11.527   3.517  0.00  0.00    +0.270 C 
ATOM     20  O   LIG    1       24.501 -11.692   2.665  0.00  0.00    -0.485 OA
ATOM     21  C   LIG    1       25.160 -12.858   2.960  0.00  0.00    +0.162 A 
ATOM     22  C   LIG    1       26.041 -13.356   2.003  0.00  0.00    +0.050 A 
ATOM     23  C   LIG    1       26.696 -14.577   2.220  0.00  0.00    +0.010 A 
ENDBRANCH  13  14
BRANCH  13  24
ATOM     24  O   LIG    1       28.405 -16.391   4.203  0.00  0.00    -0.385 OA
ATOM     25  H   LIG    1       29.039 -17.075   3.910  0.00  0.00    +0.210 HD
ENDBRANCH  13  24
ENDBRANCH   1  13
BRANCH   1  26
ATOM     26  C   LIG    1       27.110 -19.142   4.402  0.00  0.00    +0.109 C 
BRANCH  26  27
ATOM     27  N   LIG    1       27.711 -19.540   5.698  0.00  0.00    -0.300 NA
ATOM     28  C   LIG    1       27.224 -20.859   6.139  0.00  0.00    +0.084 C 
ATOM     29  C   LIG    1       28.305 -21.418   7.062  0.00  0.00    +0.017 C 
ATOM     30  C   LIG    1       29.474 -20.457   6.930  0.00  0.00    +0.017 C 
ATOM     31  C   LIG    1       29.171 -19.673   5.663  0.00  0.00    +0.084 C 
ENDBRANCH  26  27
ENDBRANCH   1  26
TORSDOF 12
ENDMDL
MODEL 9
REMARK VINA RESULT:       1.0      2.848      6.061
REMARK  Name = *****
REMARK                            x       y       z     vdW  Elec       q    Type
REMARK                         _______ _______ _______ _____ _____    ______ ____
ROOT
ATOM      1  C   LIG    1       24.619 -15.264   3.999  0.00  0.00    +0.120 C 
ENDROOT
BRANCH   1   3
ATOM      2  C   LIG    1       26.523 -16.868   3.807  0.00  0.00    +0.213 C 
ATOM      3  N   LIG    1       25.209 -16.538   3.538  0.00  0.00    -0.308 N 
ATOM      4  H   LIG    1       24.578 -17.248   3.190  0.00  0.00    +0.149 HD
ATOM      5  O   LIG    1       27.271 -16.120   4.416  0.00  0.00    -0.276 OA
BRANCH   2   6
ATOM      6  C   LIG    1       26.950 -18.275   3.348  0.00  0.00    +0.096 C 
BRANCH   6   7
ATOM      7  C   LIG    1       26.038 -19.425   3.806  0.00  0.00    +0.009 C 
BRANCH   7   8
ATOM      8  C   LIG    1       26.768 -20.510   4.639  0.00  0.00    +0.000 C 
BRANCH   8   9
ATOM      9  C   LIG    1       26.409 -20.441   6.142  0.00  0.00    -0.000 C 
BRANCH   9  10
ATOM     10  C   LIG    1       27.588 -20.064   7.062  0.00  0.00    -0.000 C 
BRANCH  10  12
ATOM     11  C   LIG    1       29.454 -18.573   6.101  0.00  0.00    +0.004 C 
ATOM     12  C   LIG    1       28.944 -19.989   6.333  0.00  0.00    -0.003 C 
ENDBRANCH  10  12
ENDBRANCH   9  10
ENDBRANCH   8   9
ENDBRANCH   7   8
ENDBRANCH   6   7
ENDBRANCH   2   6
ENDBRANCH   1   3
BRANCH   1  13
ATOM     13  C   LIG    1       23.081 -15.356   4.357  0.00  0.00    +0.166 C 
BRANCH  13  14
ATOM     14  C   LIG    1       22.446 -16.738   4.365  0.00  0.00    -0.014 A 
ATOM     15  C   LIG    1       23.036 -17.806   5.061  0.00  0.00    +0.055 A 
ATOM     16  C   LIG    1       22.445 -19.072   5.075  0.00  0.00    +0.162 A 
ATOM     17  O   LIG    1       23.085 -20.039   5.809  0.00  0.00    -0.485 OA
ATOM     18  C   LIG    1       22.323 -21.249   5.905  0.00  0.00    +0.270 C 
ATOM     19  C   LIG    1       21.640 -21.572   4.587  0.00  0.00    +0.270 C 
ATOM     20  O   LIG    1       20.698 -20.546   4.247  0.00  0.00    -0.485 OA
ATOM     21  C   LIG    1       21.272 -19.305   4.354  0.00  0.00    +0.162 A 
ATOM     22  C   LIG    1       20.638 -18.247   3.708  0.00  0.00    +0.050 A 
ATOM     23  C   LIG    1       21.213 -16.968   3.729  0.00  0.00    +0.010 A 
ENDBRANCH  13  14
BRANCH  13  24
ATOM     24  O   LIG    1       22.772 -14.755   5.620  0.00  0.00    -0.385 OA
ATOM     25  H   LIG    1       23.535 -14.205   5.888  0.00  0.00    +0.210 HD
ENDBRANCH  13  24
ENDBRANCH   1  13
BRANCH   1  26
ATOM     26  C   LIG    1       24.904 -14.087   3.011  0.00  0.00    +0.109 C 
BRANCH  26  27
ATOM     27  N   LIG    1       26.024 -13.178   3.357  0.00  0.00    -0.300 NA
ATOM     28  C   LIG    1       26.352 -13.245   4.793  0.00  0.00    +0.084 C 
ATOM     29  C   LIG    1       27.813 -12.815   4.910  0.00  0.00    +0.017 C 
ATOM     30  C   LIG    1       28.314 -12.723   3.478  0.00  0.00    +0.017 C 
ATOM     31  C   LIG    1       27.282 -13.493   2.671  0.00  0.00    +0.084 C 
ENDBRANCH  26  27
ENDBRANCH   1  26
TORSDOF 12
ENDMDL
