MODEL 1
REMARK VINA RESULT:       2.3      0.000      0.000
REMARK  Name = *****
REMARK                            x       y       z     vdW  Elec       q    Type
REMARK                         _______ _______ _______ _____ _____    ______ ____
ROOT
ATOM      1  N   LIG    1       26.214 -18.606   4.296  0.00  0.00    -0.298 N 
ATOM      2  C   LIG    1       26.632 -17.267   4.069  0.00  0.00    +0.048 A 
ATOM      3  C   LIG    1       27.954 -16.847   4.273  0.00  0.00    +0.034 A 
ATOM      4  C   LIG    1       28.317 -15.520   3.998  0.00  0.00    +0.017 A 
ATOM      5  C   LIG    1       27.358 -14.592   3.583  0.00  0.00    +0.013 A 
ATOM      6  C   LIG    1       26.021 -14.970   3.451  0.00  0.00    +0.057 A 
ATOM      7  S   LIG    1       29.223 -17.954   4.859  0.00  0.00    -0.086 S 
ATOM      8  C   LIG    1       28.236 -19.265   5.563  0.00  0.00    +0.034 A 
ATOM      9  C   LIG    1       28.856 -20.117   6.494  0.00  0.00    +0.017 A 
ATOM     10  C   LIG    1       28.145 -21.175   7.062  0.00  0.00    +0.001 A 
ATOM     11  C   LIG    1       26.828 -21.403   6.693  0.00  0.00    +0.002 A 
ATOM     12  C   LIG    1       26.207 -20.567   5.757  0.00  0.00    +0.024 A 
ATOM     13  C   LIG    1       25.672 -16.310   3.687  0.00  0.00    +0.037 A 
ATOM     14  C   LIG    1       26.899 -19.484   5.183  0.00  0.00    +0.048 A 
ENDROOT
BRANCH   6  15
ATOM     15  C   LIG    1       24.949 -13.979   3.076  0.00  0.00    +0.417 C 
ATOM     16  F   LIG    1       24.834 -12.969   3.981  0.00  0.00    -0.166 F 
ATOM     17  F   LIG    1       23.716 -14.553   3.000  0.00  0.00    -0.166 F 
ATOM     18  F   LIG    1       25.158 -13.379   1.871  0.00  0.00    -0.166 F 
ENDBRANCH   6  15
BRANCH   1  19
ATOM     19  C   LIG    1       25.696 -19.261   3.060  0.00  0.00    +0.112 C 
BRANCH  19  20
ATOM     20  C   LIG    1       24.999 -20.598   3.359  0.00  0.00    +0.035 C 
BRANCH  20  21
ATOM     21  C   LIG    1       23.510 -20.569   2.981  0.00  0.00    +0.086 C 
BRANCH  21  25
ATOM     22  N   LIG    1       21.735 -17.975   4.869  0.00  0.00    -0.298 NA
ATOM     23  C   LIG    1       23.065 -18.521   5.233  0.00  0.00    +0.100 C 
ATOM     24  C   LIG    1       23.090 -20.061   5.360  0.00  0.00    +0.100 C 
ATOM     25  N   LIG    1       22.622 -20.763   4.146  0.00  0.00    -0.300 NA
ATOM     26  C   LIG    1       21.253 -20.271   3.879  0.00  0.00    +0.100 C 
ATOM     27  C   LIG    1       21.135 -18.731   3.748  0.00  0.00    +0.100 C 
BRANCH  22  28
ATOM     28  C   LIG    1       21.877 -16.533   4.554  0.00  0.00    +0.112 C 
BRANCH  28  29
ATOM     29  C   LIG    1       22.521 -15.692   5.668  0.00  0.00    +0.171 C 
BRANCH  29  30
ATOM     30  O   LIG    1       21.553 -15.288   6.629  0.00  0.00    -0.394 OA
ATOM     31  H   LIG    1       20.835 -15.946   6.572  0.00  0.00    +0.209 HD
ENDBRANCH  29  30
ENDBRANCH  28  29
ENDBRANCH  22  28
ENDBRANCH  21  25
ENDBRANCH  20  21
ENDBRANCH  19  20
ENDBRANCH   1  19
TORSDOF 8
ENDMDL
MODEL 2
REMARK VINA RESULT:       3.2      3.635      6.575
REMARK  Name = *****
REMARK                            x       y       z     vdW  Elec       q    Type
REMARK                         _______ _______ _______ _____ _____    ______ ____
ROOT
ATOM      1  N   LIG    1       24.697 -18.106   4.098  0.00  0.00    -0.298 N 
ATOM      2  C   LIG    1       25.221 -19.280   4.704  0.00  0.00    +0.048 A 
ATOM      3  C   LIG    1       24.443 -20.428   4.915  0.00  0.00    +0.034 A 
ATOM      4  C   LIG    1       25.024 -21.572   5.486  0.00  0.00    +0.017 A 
ATOM      5  C   LIG    1       26.356 -21.557   5.907  0.00  0.00    +0.013 A 
ATOM      6  C   LIG    1       27.125 -20.399   5.779  0.00  0.00    +0.057 A 
ATOM      7  S   LIG    1       22.720 -20.506   4.463  0.00  0.00    -0.086 S 
ATOM      8  C   LIG    1       22.323 -18.770   4.327  0.00  0.00    +0.034 A 
ATOM      9  C   LIG    1       20.967 -18.407   4.399  0.00  0.00    +0.017 A 
ATOM     10  C   LIG    1       20.589 -17.070   4.276  0.00  0.00    +0.001 A 
ATOM     11  C   LIG    1       21.551 -16.094   4.060  0.00  0.00    +0.002 A 
ATOM     12  C   LIG    1       22.903 -16.449   3.974  0.00  0.00    +0.024 A 
ATOM     13  C   LIG    1       26.550 -19.271   5.169  0.00  0.00    +0.037 A 
ATOM     14  C   LIG    1       23.309 -17.790   4.111  0.00  0.00    +0.048 A 
ENDROOT
BRANCH   6  15
ATOM     15  C   LIG    1       28.541 -20.325   6.288  0.00  0.00    +0.417 C 
ATOM     16  F   LIG    1       28.873 -21.395   7.062  0.00  0.00    -0.166 F 
ATOM     17  F   LIG    1       28.758 -19.224   7.060  0.00  0.00    -0.166 F 
ATOM     18  F   LIG    1       29.475 -20.277   5.297  0.00  0.00    -0.166 F 
ENDBRANCH   6  15
BRANCH   1  19
ATOM     19  C   LIG    1       25.396 -17.757   2.829  0.00  0.00    +0.112 C 
BRANCH  19  20
ATOM     20  C   LIG    1       26.113 -16.401   2.913  0.00  0.00    +0.035 C 
BRANCH  20  21
ATOM     21  C   LIG    1       27.226 -16.401   3.971  0.00  0.00    +0.086 C 
BRANCH  21  25
ATOM     22  N   LIG    1       25.870 -13.009   4.280  0.00  0.00    -0.298 NA
ATOM     23  C   LIG    1       26.179 -13.680   2.994  0.00  0.00    +0.100 C 
ATOM     24  C   LIG    1       27.627 -14.212   2.903  0.00  0.00    +0.100 C 
ATOM     25  N   LIG    1       27.987 -15.135   4.000  0.00  0.00    -0.300 NA
ATOM     26  C   LIG    1       27.769 -14.394   5.261  0.00  0.00    +0.100 C 
ATOM     27  C   LIG    1       26.341 -13.813   5.429  0.00  0.00    +0.100 C 
BRANCH  22  28
ATOM     28  C   LIG    1       24.413 -12.744   4.347  0.00  0.00    +0.112 C 
BRANCH  28  29
ATOM     29  C   LIG    1       23.661 -12.947   3.022  0.00  0.00    +0.171 C 
BRANCH  29  30
ATOM     30  O   LIG    1       23.545 -11.724   2.306  0.00  0.00    -0.394 OA
ATOM     31  H   LIG    1       22.763 -11.275   2.678  0.00  0.00    +0.209 HD
ENDBRANCH  29  30
ENDBRANCH  28  29
ENDBRANCH  22  28
ENDBRANCH  21  25
ENDBRANCH  20  21
ENDBRANCH  19  20
ENDBRANCH   1  19
TORSDOF 8
ENDMDL
MODEL 3
REMARK VINA RESULT:       4.2      3.699      6.506
REMARK  Name = *****
REMARK                            x       y       z     vdW  Elec       q    Type
REMARK                         _______ _______ _______ _____ _____    ______ ____
ROOT
ATOM      1  N   LIG    1       24.240 -18.606   3.931  0.00  0.00    -0.298 N 
ATOM      2  C   LIG    1       25.170 -19.439   4.609  0.00  0.00    +0.048 A 
ATOM      3  C   LIG    1       24.900 -20.783   4.904  0.00  0.00    +0.034 A 
ATOM      4  C   LIG    1       25.872 -21.568   5.545  0.00  0.00    +0.017 A 
ATOM      5  C   LIG    1       27.084 -21.005   5.951  0.00  0.00    +0.013 A 
ATOM      6  C   LIG    1       27.341 -19.650   5.738  0.00  0.00    +0.057 A 
ATOM      7  S   LIG    1       23.353 -21.559   4.475  0.00  0.00    -0.086 S 
ATOM      8  C   LIG    1       22.311 -20.130   4.226  0.00  0.00    +0.034 A 
ATOM      9  C   LIG    1       20.920 -20.322   4.287  0.00  0.00    +0.017 A 
ATOM     10  C   LIG    1       20.051 -19.251   4.078  0.00  0.00    +0.001 A 
ATOM     11  C   LIG    1       20.558 -17.993   3.788  0.00  0.00    +0.002 A 
ATOM     12  C   LIG    1       21.943 -17.796   3.713  0.00  0.00    +0.024 A 
ATOM     13  C   LIG    1       26.381 -18.880   5.060  0.00  0.00    +0.037 A 
ATOM     14  C   LIG    1       22.839 -18.858   3.936  0.00  0.00    +0.048 A 
ENDROOT
BRANCH   6  15
ATOM     15  C   LIG    1       28.607 -18.994   6.227  0.00  0.00    +0.417 C 
ATOM     16  F   LIG    1       29.370 -18.511   5.208  0.00  0.00    -0.166 F 
ATOM     17  F   LIG    1       29.406 -19.856   6.915  0.00  0.00    -0.166 F 
ATOM     18  F   LIG    1       28.388 -17.940   7.062  0.00  0.00    -0.166 F 
ENDBRANCH   6  15
BRANCH   1  19
ATOM     19  C   LIG    1       24.769 -18.095   2.634  0.00  0.00    +0.112 C 
BRANCH  19  20
ATOM     20  C   LIG    1       25.409 -16.705   2.773  0.00  0.00    +0.035 C 
BRANCH  20  21
ATOM     21  C   LIG    1       24.810 -15.909   3.942  0.00  0.00    +0.086 C 
BRANCH  21  25
ATOM     22  N   LIG    1       26.842 -12.873   4.255  0.00  0.00    -0.298 NA
ATOM     23  C   LIG    1       25.862 -13.339   5.266  0.00  0.00    +0.100 C 
ATOM     24  C   LIG    1       24.448 -13.585   4.692  0.00  0.00    +0.100 C 
ATOM     25  N   LIG    1       24.427 -14.535   3.559  0.00  0.00    -0.300 NA
ATOM     26  C   LIG    1       25.332 -13.980   2.529  0.00  0.00    +0.100 C 
ATOM     27  C   LIG    1       26.772 -13.691   3.025  0.00  0.00    +0.100 C 
BRANCH  22  28
ATOM     28  C   LIG    1       28.197 -12.889   4.857  0.00  0.00    +0.112 C 
BRANCH  28  29
ATOM     29  C   LIG    1       29.351 -12.896   3.842  0.00  0.00    +0.171 C 
BRANCH  29  30
ATOM     30  O   LIG    1       29.352 -11.710   3.058  0.00  0.00    -0.394 OA
ATOM     31  H   LIG    1       29.743 -11.962   2.200  0.00  0.00    +0.209 HD
ENDBRANCH  29  30
ENDBRANCH  28  29
ENDBRANCH  22  28
ENDBRANCH  21  25
ENDBRANCH  20  21
ENDBRANCH  19  20
ENDBRANCH   1  19
TORSDOF 8
ENDMDL
