MODEL 1
REMARK VINA RESULT:      -8.4      0.000      0.000
REMARK  Name = *****
REMARK                            x       y       z     vdW  Elec       q    Type
REMARK                         _______ _______ _______ _____ _____    ______ ____
ROOT
ATOM      1  C   LIG    1       24.489 -30.554  10.770  0.00  0.00    +0.220 C 
ATOM      2  C   LIG    1       23.880 -30.278   9.396  0.00  0.00    +0.271 C 
ATOM      3  O   LIG    1       22.691 -30.309   9.117  0.00  0.00    -0.270 OA
ATOM      4  N   LIG    1       24.907 -29.961   8.539  0.00  0.00    -0.233 N 
ATOM      5  C   LIG    1       26.066 -30.635   9.028  0.00  0.00    +0.269 C 
ATOM      6  C   LIG    1       26.138 -32.010   8.296  0.00  0.00    +0.156 C 
ATOM      7  N   LIG    1       25.707 -31.986   6.894  0.00  0.00    -0.290 N 
ATOM      8  C   LIG    1       24.724 -31.141   6.417  0.00  0.00    +0.237 C 
ATOM      9  O   LIG    1       24.085 -31.408   5.398  0.00  0.00    -0.274 OA
ATOM     10  C   LIG    1       26.147 -33.163   6.182  0.00  0.00    +0.108 C 
ATOM     11  C   LIG    1       27.140 -33.825   7.135  0.00  0.00    +0.021 C 
ATOM     12  C   LIG    1       27.473 -32.737   8.172  0.00  0.00    +0.031 C 
ATOM     13  C   LIG    1       24.686 -29.756   7.101  0.00  0.00    +0.171 C 
ATOM     14  O   LIG    1       25.892 -30.775  10.441  0.00  0.00    -0.298 OA
ENDROOT
BRANCH   1  15
ATOM     15  N   LIG    1       24.412 -29.408  11.689  0.00  0.00    -0.280 N 
ATOM     16  H   LIG    1       25.098 -28.680  11.591  0.00  0.00    +0.152 HD
ATOM     17  C   LIG    1       23.319 -29.180  12.520  0.00  0.00    +0.220 C 
ATOM     18  O   LIG    1       22.362 -29.947  12.587  0.00  0.00    -0.275 OA
BRANCH  17  19
ATOM     19  C   LIG    1       23.277 -27.787  13.307  0.00  0.00    +0.090 C 
ATOM     20  C   LIG    1       21.700 -27.525  13.131  0.00  0.00    +0.097 C 
ATOM     21  N   LIG    1       21.124 -27.467  14.444  0.00  0.00    -0.301 NA
ATOM     22  C   LIG    1       20.139 -26.408  14.603  0.00  0.00    +0.105 C 
ATOM     23  C   LIG    1       22.316 -27.244  15.220  0.00  0.00    +0.068 C 
ATOM     24  C   LIG    1       23.375 -28.843  15.229  0.00  0.00    +0.038 C 
ATOM     25  C   LIG    1       25.054 -28.893  14.381  0.00  0.00    -0.033 C 
ATOM     26  C   LIG    1       25.674 -27.502  13.842  0.00  0.00    +0.006 C 
ATOM     27  C   LIG    1       27.020 -27.350  13.661  0.00  0.00    +0.047 C 
ATOM     28  N   LIG    1       27.220 -25.996  13.426  0.00  0.00    -0.360 NA
ATOM     29  H   LIG    1       28.132 -25.596  13.263  0.00  0.00    +0.165 HD
ATOM     30  C   LIG    1       26.070 -25.212  13.628  0.00  0.00    +0.087 C 
ATOM     31  C   LIG    1       27.861 -28.457  13.839  0.00  0.00    +0.026 C 
ATOM     32  C   LIG    1       27.301 -29.712  14.267  0.00  0.00    +0.002 C 
ATOM     33  C   LIG    1       25.018 -26.034  13.959  0.00  0.00    -0.021 C 
ATOM     34  C   LIG    1       25.935 -29.952  14.550  0.00  0.00    +0.005 C 
ATOM     35  C   LIG    1       23.323 -25.698  14.549  0.00  0.00    +0.056 C 
ATOM     36  C   LIG    1       23.999 -27.635  15.188  0.00  0.00    +0.023 C 
ENDBRANCH  17  19
ENDBRANCH   1  15
BRANCH   1  38
ATOM     37  C   LIG    1       24.952 -32.608  12.307  0.00  0.00    +0.012 C 
ATOM     38  C   LIG    1       23.944 -31.892  11.399  0.00  0.00    +0.043 C 
ATOM     39  C   LIG    1       23.413 -32.918  10.383  0.00  0.00    +0.012 C 
ENDBRANCH   1  38
BRANCH   5  40
ATOM     40  O   LIG    1       27.221 -29.857   8.819  0.00  0.00    -0.348 OA
ATOM     41  H   LIG    1       27.868 -30.506   8.492  0.00  0.00    +0.214 HD
ENDBRANCH   5  40
BRANCH  13  42
ATOM     42  C   LIG    1       25.708 -28.804   6.430  0.00  0.00    +0.067 C 
BRANCH  42  43
ATOM     43  C   LIG    1       25.326 -27.338   6.509  0.00  0.00    -0.045 C 
ATOM     44  C   LIG    1       26.269 -26.389   6.935  0.00  0.00    +0.003 C 
ATOM     45  C   LIG    1       25.979 -25.025   6.900  0.00  0.00    +0.000 C 
ATOM     46  C   LIG    1       24.728 -24.593   6.471  0.00  0.00    +0.000 C 
ATOM     47  C   LIG    1       23.767 -25.527   6.084  0.00  0.00    +0.000 C 
ATOM     48  C   LIG    1       24.065 -26.893   6.097  0.00  0.00    +0.003 C 
ENDBRANCH  42  43
ENDBRANCH  13  42
TORSDOF 6
ENDMDL
MODEL 2
REMARK VINA RESULT:      -7.3      1.721      2.517
REMARK  Name = *****
REMARK                            x       y       z     vdW  Elec       q    Type
REMARK                         _______ _______ _______ _____ _____    ______ ____
ROOT
ATOM      1  C   LIG    1       25.142 -30.028  11.379  0.00  0.00    +0.220 C 
ATOM      2  C   LIG    1       24.274 -29.735  10.157  0.00  0.00    +0.271 C 
ATOM      3  O   LIG    1       23.059 -29.607  10.150  0.00  0.00    -0.270 OA
ATOM      4  N   LIG    1       25.107 -29.613   9.070  0.00  0.00    -0.233 N 
ATOM      5  C   LIG    1       26.250 -30.423   9.344  0.00  0.00    +0.269 C 
ATOM      6  C   LIG    1       25.972 -31.828   8.729  0.00  0.00    +0.156 C 
ATOM      7  N   LIG    1       25.237 -31.811   7.459  0.00  0.00    -0.290 N 
ATOM      8  C   LIG    1       24.288 -30.858   7.145  0.00  0.00    +0.237 C 
ATOM      9  O   LIG    1       23.403 -31.080   6.317  0.00  0.00    -0.274 OA
ATOM     10  C   LIG    1       25.344 -33.074   6.765  0.00  0.00    +0.108 C 
ATOM     11  C   LIG    1       26.436 -33.825   7.526  0.00  0.00    +0.021 C 
ATOM     12  C   LIG    1       27.137 -32.747   8.371  0.00  0.00    +0.031 C 
ATOM     13  C   LIG    1       24.589 -29.450   7.706  0.00  0.00    +0.171 C 
ATOM     14  O   LIG    1       26.390 -30.466  10.767  0.00  0.00    -0.298 OA
ENDROOT
BRANCH   1  15
ATOM     15  N   LIG    1       25.428 -28.839  12.196  0.00  0.00    -0.280 N 
ATOM     16  H   LIG    1       24.676 -28.449  12.738  0.00  0.00    +0.152 HD
ATOM     17  C   LIG    1       26.720 -28.375  12.426  0.00  0.00    +0.220 C 
ATOM     18  O   LIG    1       27.712 -28.892  11.921  0.00  0.00    -0.275 OA
BRANCH  17  19
ATOM     19  C   LIG    1       26.895 -27.203  13.502  0.00  0.00    +0.090 C 
ATOM     20  C   LIG    1       25.807 -26.206  12.865  0.00  0.00    +0.097 C 
ATOM     21  N   LIG    1       24.789 -25.990  13.854  0.00  0.00    -0.301 NA
ATOM     22  C   LIG    1       24.347 -24.606  13.946  0.00  0.00    +0.105 C 
ATOM     23  C   LIG    1       25.498 -26.430  15.028  0.00  0.00    +0.068 C 
ATOM     24  C   LIG    1       25.711 -28.336  14.963  0.00  0.00    +0.038 C 
ATOM     25  C   LIG    1       27.415 -29.110  14.778  0.00  0.00    -0.033 C 
ATOM     26  C   LIG    1       28.705 -28.144  14.899  0.00  0.00    +0.006 C 
ATOM     27  C   LIG    1       29.929 -28.639  15.251  0.00  0.00    +0.047 C 
ATOM     28  N   LIG    1       30.733 -27.531  15.486  0.00  0.00    -0.360 NA
ATOM     29  H   LIG    1       31.698 -27.603  15.770  0.00  0.00    +0.165 HD
ATOM     30  C   LIG    1       30.030 -26.313  15.482  0.00  0.00    +0.087 C 
ATOM     31  C   LIG    1       30.089 -30.025  15.397  0.00  0.00    +0.026 C 
ATOM     32  C   LIG    1       28.950 -30.890  15.236  0.00  0.00    +0.002 C 
ATOM     33  C   LIG    1       28.710 -26.557  15.181  0.00  0.00    -0.021 C 
ATOM     34  C   LIG    1       27.630 -30.471  14.944  0.00  0.00    +0.005 C 
ATOM     35  C   LIG    1       27.219 -25.503  15.209  0.00  0.00    +0.056 C 
ATOM     36  C   LIG    1       26.712 -27.574  15.479  0.00  0.00    +0.023 C 
ENDBRANCH  17  19
ENDBRANCH   1  15
BRANCH   1  38
ATOM     37  C   LIG    1       23.648 -30.827  13.360  0.00  0.00    +0.012 C 
ATOM     38  C   LIG    1       24.587 -31.240  12.220  0.00  0.00    +0.043 C 
ATOM     39  C   LIG    1       25.664 -32.166  12.810  0.00  0.00    +0.012 C 
ENDBRANCH   1  38
BRANCH   5  40
ATOM     40  O   LIG    1       27.417 -29.832   8.821  0.00  0.00    -0.348 OA
ATOM     41  H   LIG    1       28.082 -30.536   8.914  0.00  0.00    +0.214 HD
ENDBRANCH   5  40
BRANCH  13  42
ATOM     42  C   LIG    1       25.544 -28.691   6.750  0.00  0.00    +0.067 C 
BRANCH  42  43
ATOM     43  C   LIG    1       25.237 -27.211   6.622  0.00  0.00    -0.045 C 
ATOM     44  C   LIG    1       26.145 -26.259   7.113  0.00  0.00    +0.003 C 
ATOM     45  C   LIG    1       25.941 -24.897   6.898  0.00  0.00    +0.000 C 
ATOM     46  C   LIG    1       24.807 -24.463   6.219  0.00  0.00    +0.000 C 
ATOM     47  C   LIG    1       23.874 -25.395   5.762  0.00  0.00    +0.000 C 
ATOM     48  C   LIG    1       24.090 -26.763   5.957  0.00  0.00    +0.003 C 
ENDBRANCH  42  43
ENDBRANCH  13  42
TORSDOF 6
ENDMDL
MODEL 3
REMARK VINA RESULT:      -6.8      3.062      7.349
REMARK  Name = *****
REMARK                            x       y       z     vdW  Elec       q    Type
REMARK                         _______ _______ _______ _____ _____    ______ ____
ROOT
ATOM      1  C   LIG    1       22.336 -32.116  11.199  0.00  0.00    +0.220 C 
ATOM      2  C   LIG    1       21.615 -32.202  12.543  0.00  0.00    +0.271 C 
ATOM      3  O   LIG    1       22.005 -32.804  13.532  0.00  0.00    -0.270 OA
ATOM      4  N   LIG    1       20.463 -31.458  12.449  0.00  0.00    -0.233 N 
ATOM      5  C   LIG    1       20.075 -31.483  11.076  0.00  0.00    +0.269 C 
ATOM      6  C   LIG    1       19.088 -32.677  10.902  0.00  0.00    +0.156 C 
ATOM      7  N   LIG    1       18.184 -32.900  12.036  0.00  0.00    -0.290 N 
ATOM      8  C   LIG    1       18.533 -32.641  13.346  0.00  0.00    +0.237 C 
ATOM      9  O   LIG    1       17.973 -33.209  14.286  0.00  0.00    -0.274 OA
ATOM     10  C   LIG    1       17.070 -33.744  11.670  0.00  0.00    +0.108 C 
ATOM     11  C   LIG    1       17.148 -33.825  10.147  0.00  0.00    +0.021 C 
ATOM     12  C   LIG    1       18.096 -32.682   9.742  0.00  0.00    +0.031 C 
ATOM     13  C   LIG    1       19.468 -31.423  13.529  0.00  0.00    +0.171 C 
ATOM     14  O   LIG    1       21.275 -31.649  10.314  0.00  0.00    -0.298 OA
ENDROOT
BRANCH   1  15
ATOM     15  N   LIG    1       23.418 -31.121  11.175  0.00  0.00    -0.280 N 
ATOM     16  H   LIG    1       24.127 -31.179  11.887  0.00  0.00    +0.152 HD
ATOM     17  C   LIG    1       23.629 -30.259  10.102  0.00  0.00    +0.220 C 
ATOM     18  O   LIG    1       22.893 -30.230   9.119  0.00  0.00    -0.275 OA
BRANCH  17  19
ATOM     19  C   LIG    1       24.965 -29.379  10.121  0.00  0.00    +0.090 C 
ATOM     20  C   LIG    1       25.009 -29.147  11.711  0.00  0.00    +0.097 C 
ATOM     21  N   LIG    1       26.231 -29.721  12.197  0.00  0.00    -0.301 NA
ATOM     22  C   LIG    1       26.906 -28.900  13.192  0.00  0.00    +0.105 C 
ATOM     23  C   LIG    1       26.961 -29.814  10.960  0.00  0.00    +0.068 C 
ATOM     24  C   LIG    1       26.186 -31.186   9.867  0.00  0.00    +0.038 C 
ATOM     25  C   LIG    1       25.325 -30.760   8.250  0.00  0.00    -0.033 C 
ATOM     26  C   LIG    1       25.449 -29.247   7.699  0.00  0.00    +0.006 C 
ATOM     27  C   LIG    1       25.289 -28.961   6.373  0.00  0.00    +0.047 C 
ATOM     28  N   LIG    1       25.688 -27.639   6.219  0.00  0.00    -0.360 NA
ATOM     29  H   LIG    1       25.678 -27.162   5.330  0.00  0.00    +0.165 HD
ATOM     30  C   LIG    1       26.283 -27.092   7.370  0.00  0.00    +0.087 C 
ATOM     31  C   LIG    1       24.899 -29.984   5.497  0.00  0.00    +0.026 C 
ATOM     32  C   LIG    1       24.736 -31.322   5.999  0.00  0.00    +0.002 C 
ATOM     33  C   LIG    1       26.255 -28.026   8.378  0.00  0.00    -0.021 C 
ATOM     34  C   LIG    1       24.946 -31.734   7.336  0.00  0.00    +0.005 C 
ATOM     35  C   LIG    1       27.019 -28.082  10.036  0.00  0.00    +0.056 C 
ATOM     36  C   LIG    1       26.669 -30.061   9.275  0.00  0.00    +0.023 C 
ENDBRANCH  17  19
ENDBRANCH   1  15
BRANCH   1  38
ATOM     37  C   LIG    1       24.279 -33.822  10.872  0.00  0.00    +0.012 C 
ATOM     38  C   LIG    1       22.785 -33.533  10.678  0.00  0.00    +0.043 C 
ATOM     39  C   LIG    1       22.436 -33.824   9.208  0.00  0.00    +0.012 C 
ENDBRANCH   1  38
BRANCH   5  40
ATOM     40  O   LIG    1       19.501 -30.254  10.697  0.00  0.00    -0.348 OA
ATOM     41  H   LIG    1       19.215 -30.417   9.781  0.00  0.00    +0.214 HD
ENDBRANCH   5  40
BRANCH  13  42
ATOM     42  C   LIG    1       18.634 -30.118  13.583  0.00  0.00    +0.067 C 
BRANCH  42  43
ATOM     43  C   LIG    1       19.436 -28.893  13.977  0.00  0.00    -0.045 C 
ATOM     44  C   LIG    1       19.008 -28.085  15.043  0.00  0.00    +0.003 C 
ATOM     45  C   LIG    1       19.793 -27.026  15.498  0.00  0.00    +0.000 C 
ATOM     46  C   LIG    1       21.000 -26.736  14.872  0.00  0.00    +0.000 C 
ATOM     47  C   LIG    1       21.419 -27.504  13.785  0.00  0.00    +0.000 C 
ATOM     48  C   LIG    1       20.644 -28.581  13.342  0.00  0.00    +0.003 C 
ENDBRANCH  42  43
ENDBRANCH  13  42
TORSDOF 6
ENDMDL
MODEL 4
REMARK VINA RESULT:      -6.1      1.877      3.886
REMARK  Name = *****
REMARK                            x       y       z     vdW  Elec       q    Type
REMARK                         _______ _______ _______ _____ _____    ______ ____
ROOT
ATOM      1  C   LIG    1       24.258 -32.100   9.583  0.00  0.00    +0.220 C 
ATOM      2  C   LIG    1       23.848 -31.089   8.514  0.00  0.00    +0.271 C 
ATOM      3  O   LIG    1       22.711 -30.880   8.119  0.00  0.00    -0.270 OA
ATOM      4  N   LIG    1       24.984 -30.436   8.098  0.00  0.00    -0.233 N 
ATOM      5  C   LIG    1       26.066 -31.347   8.283  0.00  0.00    +0.269 C 
ATOM      6  C   LIG    1       26.250 -32.117   6.939  0.00  0.00    +0.156 C 
ATOM      7  N   LIG    1       26.022 -31.314   5.732  0.00  0.00    -0.290 N 
ATOM      8  C   LIG    1       25.111 -30.278   5.671  0.00  0.00    +0.237 C 
ATOM      9  O   LIG    1       24.625 -29.911   4.600  0.00  0.00    -0.274 OA
ATOM     10  C   LIG    1       26.566 -31.954   4.557  0.00  0.00    +0.108 C 
ATOM     11  C   LIG    1       27.418 -33.093   5.114  0.00  0.00    +0.021 C 
ATOM     12  C   LIG    1       27.594 -32.757   6.606  0.00  0.00    +0.031 C 
ATOM     13  C   LIG    1       24.967 -29.477   6.985  0.00  0.00    +0.171 C 
ATOM     14  O   LIG    1       25.695 -32.210   9.362  0.00  0.00    -0.298 OA
ENDROOT
BRANCH   1  15
ATOM     15  N   LIG    1       24.044 -31.623  10.957  0.00  0.00    -0.280 N 
ATOM     16  H   LIG    1       23.598 -32.247  11.608  0.00  0.00    +0.152 HD
ATOM     17  C   LIG    1       24.624 -30.458  11.451  0.00  0.00    +0.220 C 
ATOM     18  O   LIG    1       25.314 -29.714  10.759  0.00  0.00    -0.275 OA
BRANCH  17  19
ATOM     19  C   LIG    1       24.478 -30.175  13.019  0.00  0.00    +0.090 C 
ATOM     20  C   LIG    1       25.988 -29.677  13.256  0.00  0.00    +0.097 C 
ATOM     21  N   LIG    1       25.926 -28.324  13.732  0.00  0.00    -0.301 NA
ATOM     22  C   LIG    1       26.857 -28.043  14.816  0.00  0.00    +0.105 C 
ATOM     23  C   LIG    1       24.549 -28.280  14.151  0.00  0.00    +0.068 C 
ATOM     24  C   LIG    1       23.415 -28.299  12.604  0.00  0.00    +0.038 C 
ATOM     25  C   LIG    1       22.292 -29.766  12.250  0.00  0.00    -0.033 C 
ATOM     26  C   LIG    1       22.144 -30.902  13.389  0.00  0.00    +0.006 C 
ATOM     27  C   LIG    1       21.045 -31.713  13.441  0.00  0.00    +0.047 C 
ATOM     28  N   LIG    1       21.131 -32.390  14.651  0.00  0.00    -0.360 NA
ATOM     29  H   LIG    1       20.440 -33.059  14.956  0.00  0.00    +0.165 HD
ATOM     30  C   LIG    1       22.156 -31.918  15.490  0.00  0.00    +0.087 C 
ATOM     31  C   LIG    1       20.088 -31.631  12.420  0.00  0.00    +0.026 C 
ATOM     32  C   LIG    1       20.249 -30.655  11.375  0.00  0.00    +0.002 C 
ATOM     33  C   LIG    1       22.849 -30.924  14.839  0.00  0.00    -0.021 C 
ATOM     34  C   LIG    1       21.309 -29.724  11.270  0.00  0.00    +0.005 C 
ATOM     35  C   LIG    1       24.133 -29.748  15.387  0.00  0.00    +0.056 C 
ATOM     36  C   LIG    1       23.022 -28.964  13.723  0.00  0.00    +0.023 C 
ENDBRANCH  17  19
ENDBRANCH   1  15
BRANCH   1  38
ATOM     37  C   LIG    1       23.374 -33.820   7.835  0.00  0.00    +0.012 C 
ATOM     38  C   LIG    1       23.638 -33.524   9.317  0.00  0.00    +0.043 C 
ATOM     39  C   LIG    1       22.345 -33.823  10.094  0.00  0.00    +0.012 C 
ENDBRANCH   1  38
BRANCH   5  40
ATOM     40  O   LIG    1       27.234 -30.663   8.671  0.00  0.00    -0.348 OA
ATOM     41  H   LIG    1       27.700 -31.316   9.221  0.00  0.00    +0.214 HD
ENDBRANCH   5  40
BRANCH  13  42
ATOM     42  C   LIG    1       26.068 -28.389   7.066  0.00  0.00    +0.067 C 
BRANCH  42  43
ATOM     43  C   LIG    1       25.583 -26.996   6.714  0.00  0.00    -0.045 C 
ATOM     44  C   LIG    1       24.331 -26.822   6.102  0.00  0.00    +0.003 C 
ATOM     45  C   LIG    1       23.813 -25.547   5.880  0.00  0.00    +0.000 C 
ATOM     46  C   LIG    1       24.555 -24.425   6.235  0.00  0.00    +0.000 C 
ATOM     47  C   LIG    1       25.819 -24.582   6.806  0.00  0.00    +0.000 C 
ATOM     48  C   LIG    1       26.329 -25.861   7.049  0.00  0.00    +0.003 C 
ENDBRANCH  42  43
ENDBRANCH  13  42
TORSDOF 6
ENDMDL
MODEL 5
REMARK VINA RESULT:      -5.8      1.550      2.024
REMARK  Name = *****
REMARK                            x       y       z     vdW  Elec       q    Type
REMARK                         _______ _______ _______ _____ _____    ______ ____
ROOT
ATOM      1  C   LIG    1       23.766 -31.837   9.284  0.00  0.00    +0.220 C 
ATOM      2  C   LIG    1       23.689 -31.179   7.908  0.00  0.00    +0.271 C 
ATOM      3  O   LIG    1       22.722 -31.182   7.161  0.00  0.00    -0.270 OA
ATOM      4  N   LIG    1       24.893 -30.560   7.671  0.00  0.00    -0.233 N 
ATOM      5  C   LIG    1       25.876 -31.292   8.402  0.00  0.00    +0.269 C 
ATOM      6  C   LIG    1       26.459 -32.366   7.434  0.00  0.00    +0.156 C 
ATOM      7  N   LIG    1       26.598 -31.930   6.040  0.00  0.00    -0.290 N 
ATOM      8  C   LIG    1       25.741 -31.031   5.437  0.00  0.00    +0.237 C 
ATOM      9  O   LIG    1       25.596 -31.001   4.214  0.00  0.00    -0.274 OA
ATOM     10  C   LIG    1       27.473 -32.805   5.293  0.00  0.00    +0.108 C 
ATOM     11  C   LIG    1       28.127 -33.678   6.363  0.00  0.00    +0.021 C 
ATOM     12  C   LIG    1       27.845 -32.950   7.689  0.00  0.00    +0.031 C 
ATOM     13  C   LIG    1       25.205 -29.930   6.381  0.00  0.00    +0.171 C 
ATOM     14  O   LIG    1       25.204 -31.873   9.523  0.00  0.00    -0.298 OA
ENDROOT
BRANCH   1  15
ATOM     15  N   LIG    1       23.147 -31.038  10.353  0.00  0.00    -0.280 N 
ATOM     16  H   LIG    1       22.472 -31.489  10.946  0.00  0.00    +0.152 HD
ATOM     17  C   LIG    1       23.612 -29.777  10.718  0.00  0.00    +0.220 C 
ATOM     18  O   LIG    1       24.539 -29.217  10.140  0.00  0.00    -0.275 OA
BRANCH  17  19
ATOM     19  C   LIG    1       22.980 -29.118  12.032  0.00  0.00    +0.090 C 
ATOM     20  C   LIG    1       21.485 -29.667  11.812  0.00  0.00    +0.097 C 
ATOM     21  N   LIG    1       21.159 -30.496  12.937  0.00  0.00    -0.301 NA
ATOM     22  C   LIG    1       19.807 -30.297  13.437  0.00  0.00    +0.105 C 
ATOM     23  C   LIG    1       22.169 -30.051  13.863  0.00  0.00    +0.068 C 
ATOM     24  C   LIG    1       23.885 -30.681  13.280  0.00  0.00    +0.038 C 
ATOM     25  C   LIG    1       25.208 -29.477  12.698  0.00  0.00    -0.033 C 
ATOM     26  C   LIG    1       24.943 -27.897  12.910  0.00  0.00    +0.006 C 
ATOM     27  C   LIG    1       25.979 -27.008  12.972  0.00  0.00    +0.047 C 
ATOM     28  N   LIG    1       25.421 -25.806  13.389  0.00  0.00    -0.360 NA
ATOM     29  H   LIG    1       25.965 -24.967  13.526  0.00  0.00    +0.165 HD
ATOM     30  C   LIG    1       24.077 -25.914  13.785  0.00  0.00    +0.087 C 
ATOM     31  C   LIG    1       27.283 -27.463  12.733  0.00  0.00    +0.026 C 
ATOM     32  C   LIG    1       27.512 -28.863  12.491  0.00  0.00    +0.002 C 
ATOM     33  C   LIG    1       23.654 -27.209  13.592  0.00  0.00    -0.021 C 
ATOM     34  C   LIG    1       26.520 -29.872  12.478  0.00  0.00    +0.005 C 
ATOM     35  C   LIG    1       22.134 -28.099  14.071  0.00  0.00    +0.056 C 
ATOM     36  C   LIG    1       23.789 -29.451  13.853  0.00  0.00    +0.023 C 
ENDBRANCH  17  19
ENDBRANCH   1  15
BRANCH   1  38
ATOM     37  C   LIG    1       22.852 -33.819   7.861  0.00  0.00    +0.012 C 
ATOM     38  C   LIG    1       23.263 -33.329   9.255  0.00  0.00    +0.043 C 
ATOM     39  C   LIG    1       22.111 -33.644  10.224  0.00  0.00    +0.012 C 
ENDBRANCH   1  38
BRANCH   5  40
ATOM     40  O   LIG    1       26.870 -30.429   8.903  0.00  0.00    -0.348 OA
ATOM     41  H   LIG    1       26.539 -30.204   9.790  0.00  0.00    +0.214 HD
ENDBRANCH   5  40
BRANCH  13  42
ATOM     42  C   LIG    1       26.224 -28.766   6.471  0.00  0.00    +0.067 C 
BRANCH  42  43
ATOM     43  C   LIG    1       25.591 -27.389   6.415  0.00  0.00    -0.045 C 
ATOM     44  C   LIG    1       26.249 -26.289   6.989  0.00  0.00    +0.003 C 
ATOM     45  C   LIG    1       25.744 -24.998   6.844  0.00  0.00    +0.000 C 
ATOM     46  C   LIG    1       24.555 -24.790   6.152  0.00  0.00    +0.000 C 
ATOM     47  C   LIG    1       23.869 -25.878   5.612  0.00  0.00    +0.000 C 
ATOM     48  C   LIG    1       24.385 -27.171   5.738  0.00  0.00    +0.003 C 
ENDBRANCH  42  43
ENDBRANCH  13  42
TORSDOF 6
ENDMDL
MODEL 6
REMARK VINA RESULT:      -5.4      1.900      4.485
REMARK  Name = *****
REMARK                            x       y       z     vdW  Elec       q    Type
REMARK                         _______ _______ _______ _____ _____    ______ ____
ROOT
ATOM      1  C   LIG    1       25.480 -29.280  10.341  0.00  0.00    +0.220 C 
ATOM      2  C   LIG    1       25.943 -30.734  10.297  0.00  0.00    +0.271 C 
ATOM      3  O   LIG    1       26.930 -31.193  10.854  0.00  0.00    -0.270 OA
ATOM      4  N   LIG    1       25.037 -31.441   9.543  0.00  0.00    -0.233 N 
ATOM      5  C   LIG    1       24.478 -30.517   8.611  0.00  0.00    +0.269 C 
ATOM      6  C   LIG    1       25.334 -30.605   7.311  0.00  0.00    +0.156 C 
ATOM      7  N   LIG    1       25.813 -31.951   6.978  0.00  0.00    -0.290 N 
ATOM      8  C   LIG    1       26.129 -32.900   7.929  0.00  0.00    +0.237 C 
ATOM      9  O   LIG    1       26.907 -33.824   7.683  0.00  0.00    -0.274 OA
ATOM     10  C   LIG    1       26.258 -32.033   5.606  0.00  0.00    +0.108 C 
ATOM     11  C   LIG    1       25.771 -30.728   4.978  0.00  0.00    +0.021 C 
ATOM     12  C   LIG    1       24.736 -30.176   5.975  0.00  0.00    +0.031 C 
ATOM     13  C   LIG    1       25.245 -32.853   9.196  0.00  0.00    +0.171 C 
ATOM     14  O   LIG    1       24.544 -29.226   9.224  0.00  0.00    -0.298 OA
ENDROOT
BRANCH   1  15
ATOM     15  N   LIG    1       24.746 -28.933  11.567  0.00  0.00    -0.280 N 
ATOM     16  H   LIG    1       25.040 -28.118  12.077  0.00  0.00    +0.152 HD
ATOM     17  C   LIG    1       23.542 -29.536  11.923  0.00  0.00    +0.220 C 
ATOM     18  O   LIG    1       23.032 -30.440  11.266  0.00  0.00    -0.275 OA
BRANCH  17  19
ATOM     19  C   LIG    1       22.751 -28.914  13.166  0.00  0.00    +0.090 C 
ATOM     20  C   LIG    1       21.273 -29.181  12.595  0.00  0.00    +0.097 C 
ATOM     21  N   LIG    1       20.603 -30.051  13.519  0.00  0.00    -0.301 NA
ATOM     22  C   LIG    1       19.219 -29.679  13.773  0.00  0.00    +0.105 C 
ATOM     23  C   LIG    1       21.450 -29.875  14.670  0.00  0.00    +0.068 C 
ATOM     24  C   LIG    1       23.141 -30.722  14.349  0.00  0.00    +0.038 C 
ATOM     25  C   LIG    1       24.715 -29.705  14.193  0.00  0.00    -0.033 C 
ATOM     26  C   LIG    1       24.642 -28.132  14.555  0.00  0.00    +0.006 C 
ATOM     27  C   LIG    1       25.759 -27.439  14.929  0.00  0.00    +0.047 C 
ATOM     28  N   LIG    1       25.305 -26.208  15.385  0.00  0.00    -0.360 NA
ATOM     29  H   LIG    1       25.923 -25.489  15.733  0.00  0.00    +0.165 HD
ATOM     30  C   LIG    1       23.906 -26.128  15.500  0.00  0.00    +0.087 C 
ATOM     31  C   LIG    1       27.005 -28.080  14.886  0.00  0.00    +0.026 C 
ATOM     32  C   LIG    1       27.076 -29.467  14.511  0.00  0.00    +0.002 C 
ATOM     33  C   LIG    1       23.352 -27.308  15.062  0.00  0.00    -0.021 C 
ATOM     34  C   LIG    1       25.974 -30.289  14.177  0.00  0.00    +0.005 C 
ATOM     35  C   LIG    1       21.653 -27.975  15.121  0.00  0.00    +0.056 C 
ATOM     36  C   LIG    1       23.105 -29.557  15.049  0.00  0.00    +0.023 C 
ENDBRANCH  17  19
ENDBRANCH   1  15
BRANCH   1  38
ATOM     37  C   LIG    1       26.931 -27.264  11.131  0.00  0.00    +0.012 C 
ATOM     38  C   LIG    1       26.650 -28.277  10.014  0.00  0.00    +0.043 C 
ATOM     39  C   LIG    1       26.486 -27.495   8.699  0.00  0.00    +0.012 C 
ENDBRANCH   1  38
BRANCH   5  40
ATOM     40  O   LIG    1       23.119 -30.805   8.377  0.00  0.00    -0.348 OA
ATOM     41  H   LIG    1       22.683 -30.486   9.186  0.00  0.00    +0.214 HD
ENDBRANCH   5  40
BRANCH  13  42
ATOM     42  C   LIG    1       23.937 -33.650   8.960  0.00  0.00    +0.067 C 
BRANCH  42  43
ATOM     43  C   LIG    1       23.014 -33.686  10.164  0.00  0.00    -0.045 C 
ATOM     44  C   LIG    1       23.549 -33.825  11.455  0.00  0.00    +0.003 C 
ATOM     45  C   LIG    1       22.732 -33.739  12.581  0.00  0.00    +0.000 C 
ATOM     46  C   LIG    1       21.362 -33.548  12.432  0.00  0.00    +0.000 C 
ATOM     47  C   LIG    1       20.811 -33.450  11.154  0.00  0.00    +0.000 C 
ATOM     48  C   LIG    1       21.633 -33.513  10.025  0.00  0.00    +0.003 C 
ENDBRANCH  42  43
ENDBRANCH  13  42
TORSDOF 6
ENDMDL
