MODEL 1
REMARK VINA RESULT:      -9.6      0.000      0.000
REMARK  Name = *****
REMARK                            x       y       z     vdW  Elec       q    Type
REMARK                         _______ _______ _______ _____ _____    ______ ____
ROOT
ATOM      1  C   LIG    1       27.946 -19.728   6.026  0.00  0.00    +0.121 A 
ATOM      2  C   LIG    1       26.939 -19.916   5.079  0.00  0.00    +0.046 A 
ATOM      3  C   LIG    1       25.710 -20.469   5.435  0.00  0.00    +0.007 A 
ATOM      4  C   LIG    1       25.472 -20.881   6.750  0.00  0.00    -0.046 A 
ATOM      5  C   LIG    1       26.477 -20.685   7.707  0.00  0.00    +0.007 A 
ATOM      6  C   LIG    1       27.713 -20.127   7.346  0.00  0.00    +0.046 A 
ENDROOT
BRANCH   1   7
ATOM      7  O   LIG    1       29.164 -19.169   5.719  0.00  0.00    -0.490 OA
BRANCH   7   8
ATOM      8  C   LIG    1       29.860 -18.599   6.851  0.00  0.00    +0.248 C 
BRANCH   8   9
ATOM      9  C   LIG    1       31.239 -19.256   7.008  0.00  0.00    +0.147 C 
BRANCH   9  11
ATOM     10  C   LIG    1       31.039 -20.891   8.886  0.00  0.00    +0.131 C 
ATOM     11  N   LIG    1       31.590 -19.625   8.399  0.00  0.00    -0.315 N 
BRANCH  11  12
ATOM     12  C   LIG    1       31.483 -18.557   9.310  0.00  0.00    +0.121 A 
ATOM     13  N   LIG    1       30.711 -18.672  10.412  0.00  0.00    -0.240 NA
ATOM     14  C   LIG    1       30.648 -17.613  11.259  0.00  0.00    +0.113 A 
ATOM     15  C   LIG    1       31.331 -16.424  11.079  0.00  0.00    +0.020 A 
ATOM     16  C   LIG    1       32.132 -16.310   9.957  0.00  0.00    +0.005 A 
ATOM     17  C   LIG    1       32.205 -17.383   9.065  0.00  0.00    +0.043 A 
ENDBRANCH  11  12
ENDBRANCH   9  11
ENDBRANCH   8   9
ENDBRANCH   7   8
ENDBRANCH   1   7
BRANCH   4  18
ATOM     18  C   LIG    1       24.181 -21.580   7.116  0.00  0.00    +0.059 C 
BRANCH  18  19
ATOM     19  C   LIG    1       24.299 -23.086   7.396  0.00  0.00    +0.146 C 
ATOM     20  C   LIG    1       23.268 -23.891   6.632  0.00  0.00    +0.234 C 
ATOM     21  O   LIG    1       22.060 -23.836   6.828  0.00  0.00    -0.274 OA
ATOM     22  N   LIG    1       23.838 -24.691   5.691  0.00  0.00    -0.246 N 
ATOM     23  H   LIG    1       23.277 -25.277   5.097  0.00  0.00    +0.158 HD
ATOM     24  C   LIG    1       25.190 -24.832   5.687  0.00  0.00    +0.279 C 
ATOM     25  O   LIG    1       25.816 -25.590   4.986  0.00  0.00    -0.263 OA
ATOM     26  S   LIG    1       25.905 -23.815   6.917  0.00  0.00    -0.054 S 
ENDBRANCH  18  19
ENDBRANCH   4  18
TORSDOF 7
ENDMDL
MODEL 2
REMARK VINA RESULT:      -9.4      3.309      8.705
REMARK  Name = *****
REMARK                            x       y       z     vdW  Elec       q    Type
REMARK                         _______ _______ _______ _____ _____    ______ ____
ROOT
ATOM      1  C   LIG    1       28.510 -20.694   6.930  0.00  0.00    +0.121 A 
ATOM      2  C   LIG    1       28.835 -19.450   6.390  0.00  0.00    +0.046 A 
ATOM      3  C   LIG    1       29.928 -18.724   6.861  0.00  0.00    +0.007 A 
ATOM      4  C   LIG    1       30.705 -19.216   7.914  0.00  0.00    -0.046 A 
ATOM      5  C   LIG    1       30.389 -20.470   8.453  0.00  0.00    +0.007 A 
ATOM      6  C   LIG    1       29.289 -21.200   7.976  0.00  0.00    +0.046 A 
ENDROOT
BRANCH   1   7
ATOM      7  O   LIG    1       27.452 -21.450   6.481  0.00  0.00    -0.490 OA
BRANCH   7   8
ATOM      8  C   LIG    1       26.672 -22.066   7.531  0.00  0.00    +0.248 C 
BRANCH   8   9
ATOM      9  C   LIG    1       25.984 -23.333   7.004  0.00  0.00    +0.147 C 
BRANCH   9  11
ATOM     10  C   LIG    1       23.796 -24.465   6.588  0.00  0.00    +0.131 C 
ATOM     11  N   LIG    1       24.514 -23.219   6.860  0.00  0.00    -0.315 N 
BRANCH  11  12
ATOM     12  C   LIG    1       24.108 -22.130   6.067  0.00  0.00    +0.121 A 
ATOM     13  N   LIG    1       24.479 -22.052   4.770  0.00  0.00    -0.240 NA
ATOM     14  C   LIG    1       24.056 -20.982   4.050  0.00  0.00    +0.113 A 
ATOM     15  C   LIG    1       23.257 -19.968   4.547  0.00  0.00    +0.020 A 
ATOM     16  C   LIG    1       22.867 -20.054   5.872  0.00  0.00    +0.005 A 
ATOM     17  C   LIG    1       23.298 -21.140   6.637  0.00  0.00    +0.043 A 
ENDBRANCH  11  12
ENDBRANCH   9  11
ENDBRANCH   8   9
ENDBRANCH   7   8
ENDBRANCH   1   7
BRANCH   4  18
ATOM     18  C   LIG    1       31.825 -18.383   8.498  0.00  0.00    +0.059 C 
BRANCH  18  19
ATOM     19  C   LIG    1       31.386 -17.117   9.250  0.00  0.00    +0.146 C 
ATOM     20  C   LIG    1       30.603 -17.441  10.505  0.00  0.00    +0.234 C 
ATOM     21  O   LIG    1       29.496 -17.966  10.518  0.00  0.00    -0.274 OA
ATOM     22  N   LIG    1       31.274 -17.081  11.633  0.00  0.00    -0.246 N 
ATOM     23  H   LIG    1       30.882 -17.244  12.546  0.00  0.00    +0.158 HD
ATOM     24  C   LIG    1       32.397 -16.326  11.511  0.00  0.00    +0.279 C 
ATOM     25  O   LIG    1       33.024 -15.845  12.425  0.00  0.00    -0.263 OA
ATOM     26  S   LIG    1       32.768 -16.066   9.823  0.00  0.00    -0.054 S 
ENDBRANCH  18  19
ENDBRANCH   4  18
TORSDOF 7
ENDMDL
MODEL 3
REMARK VINA RESULT:      -9.0      2.862      8.369
REMARK  Name = *****
REMARK                            x       y       z     vdW  Elec       q    Type
REMARK                         _______ _______ _______ _____ _____    ______ ____
ROOT
ATOM      1  C   LIG    1       26.606 -22.347   7.794  0.00  0.00    +0.121 A 
ATOM      2  C   LIG    1       26.161 -21.187   8.428  0.00  0.00    +0.046 A 
ATOM      3  C   LIG    1       26.928 -20.022   8.419  0.00  0.00    +0.007 A 
ATOM      4  C   LIG    1       28.181 -20.004   7.800  0.00  0.00    -0.046 A 
ATOM      5  C   LIG    1       28.628 -21.164   7.154  0.00  0.00    +0.007 A 
ATOM      6  C   LIG    1       27.853 -22.335   7.163  0.00  0.00    +0.046 A 
ENDROOT
BRANCH   1   7
ATOM      7  O   LIG    1       25.871 -23.509   7.764  0.00  0.00    -0.490 OA
BRANCH   7   8
ATOM      8  C   LIG    1       25.925 -24.215   6.503  0.00  0.00    +0.248 C 
BRANCH   8   9
ATOM      9  C   LIG    1       24.788 -23.743   5.585  0.00  0.00    +0.147 C 
BRANCH   9  11
ATOM     10  C   LIG    1       22.605 -23.251   6.696  0.00  0.00    +0.131 C 
ATOM     11  N   LIG    1       23.882 -22.741   6.195  0.00  0.00    -0.315 N 
BRANCH  11  12
ATOM     12  C   LIG    1       23.781 -21.548   5.454  0.00  0.00    +0.121 A 
ATOM     13  N   LIG    1       24.753 -21.199   4.584  0.00  0.00    -0.240 NA
ATOM     14  C   LIG    1       24.603 -20.040   3.892  0.00  0.00    +0.113 A 
ATOM     15  C   LIG    1       23.514 -19.195   4.006  0.00  0.00    +0.020 A 
ATOM     16  C   LIG    1       22.513 -19.558   4.889  0.00  0.00    +0.005 A 
ATOM     17  C   LIG    1       22.649 -20.741   5.620  0.00  0.00    +0.043 A 
ENDBRANCH  11  12
ENDBRANCH   9  11
ENDBRANCH   8   9
ENDBRANCH   7   8
ENDBRANCH   1   7
BRANCH   4  18
ATOM     18  C   LIG    1       29.063 -18.776   7.881  0.00  0.00    +0.059 C 
BRANCH  18  19
ATOM     19  C   LIG    1       30.299 -18.907   8.784  0.00  0.00    +0.146 C 
ATOM     20  C   LIG    1       31.591 -18.808   8.000  0.00  0.00    +0.234 C 
ATOM     21  O   LIG    1       31.969 -19.631   7.175  0.00  0.00    -0.274 OA
ATOM     22  N   LIG    1       32.296 -17.687   8.315  0.00  0.00    -0.246 N 
ATOM     23  H   LIG    1       33.172 -17.480   7.866  0.00  0.00    +0.158 HD
ATOM     24  C   LIG    1       31.897 -16.944   9.381  0.00  0.00    +0.279 C 
ATOM     25  O   LIG    1       32.488 -15.995   9.838  0.00  0.00    -0.263 OA
ATOM     26  S   LIG    1       30.434 -17.612  10.067  0.00  0.00    -0.054 S 
ENDBRANCH  18  19
ENDBRANCH   4  18
TORSDOF 7
ENDMDL
MODEL 4
REMARK VINA RESULT:      -8.9      3.231      9.448
REMARK  Name = *****
REMARK                            x       y       z     vdW  Elec       q    Type
REMARK                         _______ _______ _______ _____ _____    ______ ____
ROOT
ATOM      1  C   LIG    1       25.009 -22.943   6.030  0.00  0.00    +0.121 A 
ATOM      2  C   LIG    1       25.882 -23.220   7.083  0.00  0.00    +0.046 A 
ATOM      3  C   LIG    1       26.742 -22.242   7.581  0.00  0.00    +0.007 A 
ATOM      4  C   LIG    1       26.771 -20.966   7.010  0.00  0.00    -0.046 A 
ATOM      5  C   LIG    1       25.888 -20.681   5.960  0.00  0.00    +0.007 A 
ATOM      6  C   LIG    1       25.022 -21.666   5.461  0.00  0.00    +0.046 A 
ENDROOT
BRANCH   1   7
ATOM      7  O   LIG    1       24.133 -23.875   5.523  0.00  0.00    -0.490 OA
BRANCH   7   8
ATOM      8  C   LIG    1       23.848 -24.973   6.419  0.00  0.00    +0.248 C 
BRANCH   8   9
ATOM      9  C   LIG    1       24.173 -26.309   5.736  0.00  0.00    +0.147 C 
BRANCH   9  11
ATOM     10  C   LIG    1       26.643 -26.637   5.925  0.00  0.00    +0.131 C 
ATOM     11  N   LIG    1       25.303 -27.051   6.344  0.00  0.00    -0.315 N 
BRANCH  11  12
ATOM     12  C   LIG    1       25.109 -28.445   6.376  0.00  0.00    +0.121 A 
ATOM     13  N   LIG    1       25.432 -29.206   5.308  0.00  0.00    -0.240 NA
ATOM     14  C   LIG    1       25.229 -30.545   5.395  0.00  0.00    +0.113 A 
ATOM     15  C   LIG    1       24.725 -31.191   6.509  0.00  0.00    +0.020 A 
ATOM     16  C   LIG    1       24.404 -30.413   7.608  0.00  0.00    +0.005 A 
ATOM     17  C   LIG    1       24.595 -29.031   7.539  0.00  0.00    +0.043 A 
ENDBRANCH  11  12
ENDBRANCH   9  11
ENDBRANCH   8   9
ENDBRANCH   7   8
ENDBRANCH   1   7
BRANCH   4  18
ATOM     18  C   LIG    1       27.777 -19.937   7.477  0.00  0.00    +0.059 C 
BRANCH  18  19
ATOM     19  C   LIG    1       29.235 -20.205   7.072  0.00  0.00    +0.146 C 
ATOM     20  C   LIG    1       29.980 -18.928   6.743  0.00  0.00    +0.234 C 
ATOM     21  O   LIG    1       29.730 -18.205   5.786  0.00  0.00    -0.274 OA
ATOM     22  N   LIG    1       30.969 -18.667   7.640  0.00  0.00    -0.246 N 
ATOM     23  H   LIG    1       31.543 -17.846   7.557  0.00  0.00    +0.158 HD
ATOM     24  C   LIG    1       31.298 -19.626   8.545  0.00  0.00    +0.279 C 
ATOM     25  O   LIG    1       32.222 -19.574   9.321  0.00  0.00    -0.263 OA
ATOM     26  S   LIG    1       30.240 -21.007   8.372  0.00  0.00    -0.054 S 
ENDBRANCH  18  19
ENDBRANCH   4  18
TORSDOF 7
ENDMDL
MODEL 5
REMARK VINA RESULT:      -8.9      2.577      8.575
REMARK  Name = *****
REMARK                            x       y       z     vdW  Elec       q    Type
REMARK                         _______ _______ _______ _____ _____    ______ ____
ROOT
ATOM      1  C   LIG    1       24.717 -20.967   7.119  0.00  0.00    +0.121 A 
ATOM      2  C   LIG    1       25.337 -20.526   5.950  0.00  0.00    +0.046 A 
ATOM      3  C   LIG    1       26.700 -20.231   5.926  0.00  0.00    +0.007 A 
ATOM      4  C   LIG    1       27.469 -20.340   7.088  0.00  0.00    -0.046 A 
ATOM      5  C   LIG    1       26.852 -20.793   8.262  0.00  0.00    +0.007 A 
ATOM      6  C   LIG    1       25.481 -21.090   8.284  0.00  0.00    +0.046 A 
ENDROOT
BRANCH   1   7
ATOM      7  O   LIG    1       23.380 -21.287   7.179  0.00  0.00    -0.490 OA
BRANCH   7   8
ATOM      8  C   LIG    1       22.971 -22.310   6.244  0.00  0.00    +0.248 C 
BRANCH   8   9
ATOM      9  C   LIG    1       23.409 -23.693   6.749  0.00  0.00    +0.147 C 
BRANCH   9  11
ATOM     10  C   LIG    1       24.782 -23.850   4.668  0.00  0.00    +0.131 C 
ATOM     11  N   LIG    1       24.600 -24.247   6.065  0.00  0.00    -0.315 N 
BRANCH  11  12
ATOM     12  C   LIG    1       24.804 -25.618   6.311  0.00  0.00    +0.121 A 
ATOM     13  N   LIG    1       23.963 -26.539   5.791  0.00  0.00    -0.240 NA
ATOM     14  C   LIG    1       24.208 -27.847   6.055  0.00  0.00    +0.113 A 
ATOM     15  C   LIG    1       25.270 -28.309   6.812  0.00  0.00    +0.020 A 
ATOM     16  C   LIG    1       26.138 -27.367   7.335  0.00  0.00    +0.005 A 
ATOM     17  C   LIG    1       25.901 -26.013   7.085  0.00  0.00    +0.043 A 
ENDBRANCH  11  12
ENDBRANCH   9  11
ENDBRANCH   8   9
ENDBRANCH   7   8
ENDBRANCH   1   7
BRANCH   4  18
ATOM     18  C   LIG    1       28.923 -19.918   7.092  0.00  0.00    +0.059 C 
BRANCH  18  19
ATOM     19  C   LIG    1       29.545 -19.699   8.479  0.00  0.00    +0.146 C 
ATOM     20  C   LIG    1       30.805 -20.516   8.675  0.00  0.00    +0.234 C 
ATOM     21  O   LIG    1       30.839 -21.740   8.731  0.00  0.00    -0.274 OA
ATOM     22  N   LIG    1       31.912 -19.732   8.782  0.00  0.00    -0.246 N 
ATOM     23  H   LIG    1       32.826 -20.134   8.905  0.00  0.00    +0.158 HD
ATOM     24  C   LIG    1       31.750 -18.388   8.910  0.00  0.00    +0.279 C 
ATOM     25  O   LIG    1       32.631 -17.590   9.124  0.00  0.00    -0.263 OA
ATOM     26  S   LIG    1       30.054 -17.974   8.811  0.00  0.00    -0.054 S 
ENDBRANCH  18  19
ENDBRANCH   4  18
TORSDOF 7
ENDMDL
MODEL 6
REMARK VINA RESULT:      -8.8      2.587      8.649
REMARK  Name = *****
REMARK                            x       y       z     vdW  Elec       q    Type
REMARK                         _______ _______ _______ _____ _____    ______ ____
ROOT
ATOM      1  C   LIG    1       24.904 -20.881   6.550  0.00  0.00    +0.121 A 
ATOM      2  C   LIG    1       25.482 -20.756   7.813  0.00  0.00    +0.046 A 
ATOM      3  C   LIG    1       26.798 -20.320   7.962  0.00  0.00    +0.007 A 
ATOM      4  C   LIG    1       27.580 -20.030   6.841  0.00  0.00    -0.046 A 
ATOM      5  C   LIG    1       27.001 -20.145   5.570  0.00  0.00    +0.007 A 
ATOM      6  C   LIG    1       25.675 -20.582   5.422  0.00  0.00    +0.046 A 
ENDROOT
BRANCH   1   7
ATOM      7  O   LIG    1       23.604 -21.289   6.361  0.00  0.00    -0.490 OA
BRANCH   7   8
ATOM      8  C   LIG    1       23.261 -22.517   7.043  0.00  0.00    +0.248 C 
BRANCH   8   9
ATOM      9  C   LIG    1       23.721 -23.726   6.216  0.00  0.00    +0.147 C 
BRANCH   9  11
ATOM     10  C   LIG    1       25.979 -23.913   7.267  0.00  0.00    +0.131 C 
ATOM     11  N   LIG    1       24.733 -24.578   6.883  0.00  0.00    -0.315 N 
BRANCH  11  12
ATOM     12  C   LIG    1       24.910 -25.832   6.267  0.00  0.00    +0.121 A 
ATOM     13  N   LIG    1       24.014 -26.823   6.465  0.00  0.00    -0.240 NA
ATOM     14  C   LIG    1       24.230 -28.011   5.844  0.00  0.00    +0.113 A 
ATOM     15  C   LIG    1       25.300 -28.275   5.008  0.00  0.00    +0.020 A 
ATOM     16  C   LIG    1       26.211 -27.255   4.795  0.00  0.00    +0.005 A 
ATOM     17  C   LIG    1       26.016 -26.027   5.432  0.00  0.00    +0.043 A 
ENDBRANCH  11  12
ENDBRANCH   9  11
ENDBRANCH   8   9
ENDBRANCH   7   8
ENDBRANCH   1   7
BRANCH   4  18
ATOM     18  C   LIG    1       29.040 -19.661   6.995  0.00  0.00    +0.059 C 
BRANCH  18  19
ATOM     19  C   LIG    1       29.557 -19.592   8.440  0.00  0.00    +0.146 C 
ATOM     20  C   LIG    1       30.781 -20.458   8.651  0.00  0.00    +0.234 C 
ATOM     21  O   LIG    1       30.786 -21.681   8.590  0.00  0.00    -0.274 OA
ATOM     22  N   LIG    1       31.891 -19.717   8.917  0.00  0.00    -0.246 N 
ATOM     23  H   LIG    1       32.785 -20.154   9.069  0.00  0.00    +0.158 HD
ATOM     24  C   LIG    1       31.745 -18.388   9.162  0.00  0.00    +0.279 C 
ATOM     25  O   LIG    1       32.623 -17.638   9.519  0.00  0.00    -0.263 OA
ATOM     26  S   LIG    1       30.071 -17.921   8.976  0.00  0.00    -0.054 S 
ENDBRANCH  18  19
ENDBRANCH   4  18
TORSDOF 7
ENDMDL
MODEL 7
REMARK VINA RESULT:      -8.7      1.487      1.827
REMARK  Name = *****
REMARK                            x       y       z     vdW  Elec       q    Type
REMARK                         _______ _______ _______ _____ _____    ______ ____
ROOT
ATOM      1  C   LIG    1       27.612 -20.240   7.719  0.00  0.00    +0.121 A 
ATOM      2  C   LIG    1       26.634 -20.519   8.673  0.00  0.00    +0.046 A 
ATOM      3  C   LIG    1       25.308 -20.737   8.302  0.00  0.00    +0.007 A 
ATOM      4  C   LIG    1       24.923 -20.646   6.961  0.00  0.00    -0.046 A 
ATOM      5  C   LIG    1       25.904 -20.376   5.998  0.00  0.00    +0.007 A 
ATOM      6  C   LIG    1       27.239 -20.159   6.374  0.00  0.00    +0.046 A 
ENDROOT
BRANCH   1   7
ATOM      7  O   LIG    1       28.934 -20.038   8.042  0.00  0.00    -0.490 OA
BRANCH   7   8
ATOM      8  C   LIG    1       29.612 -19.078   7.200  0.00  0.00    +0.248 C 
BRANCH   8   9
ATOM      9  C   LIG    1       31.119 -19.374   7.169  0.00  0.00    +0.147 C 
BRANCH   9  11
ATOM     10  C   LIG    1       31.476 -20.917   9.101  0.00  0.00    +0.131 C 
ATOM     11  N   LIG    1       31.727 -19.606   8.500  0.00  0.00    -0.315 N 
BRANCH  11  12
ATOM     12  C   LIG    1       31.575 -18.522   9.386  0.00  0.00    +0.121 A 
ATOM     13  N   LIG    1       30.848 -18.660  10.517  0.00  0.00    -0.240 NA
ATOM     14  C   LIG    1       30.737 -17.584  11.337  0.00  0.00    +0.113 A 
ATOM     15  C   LIG    1       31.329 -16.356  11.104  0.00  0.00    +0.020 A 
ATOM     16  C   LIG    1       32.083 -16.219   9.952  0.00  0.00    +0.005 A 
ATOM     17  C   LIG    1       32.203 -17.308   9.086  0.00  0.00    +0.043 A 
ENDBRANCH  11  12
ENDBRANCH   9  11
ENDBRANCH   8   9
ENDBRANCH   7   8
ENDBRANCH   1   7
BRANCH   4  18
ATOM     18  C   LIG    1       23.468 -20.776   6.567  0.00  0.00    +0.059 C 
BRANCH  18  19
ATOM     19  C   LIG    1       23.104 -22.047   5.784  0.00  0.00    +0.146 C 
ATOM     20  C   LIG    1       23.950 -22.212   4.539  0.00  0.00    +0.234 C 
ATOM     21  O   LIG    1       23.908 -21.467   3.567  0.00  0.00    -0.274 OA
ATOM     22  N   LIG    1       24.774 -23.291   4.620  0.00  0.00    -0.246 N 
ATOM     23  H   LIG    1       25.405 -23.522   3.870  0.00  0.00    +0.158 HD
ATOM     24  C   LIG    1       24.604 -24.166   5.645  0.00  0.00    +0.279 C 
ATOM     25  O   LIG    1       25.186 -25.217   5.778  0.00  0.00    -0.263 OA
ATOM     26  S   LIG    1       23.346 -23.600   6.719  0.00  0.00    -0.054 S 
ENDBRANCH  18  19
ENDBRANCH   4  18
TORSDOF 7
ENDMDL
MODEL 8
REMARK VINA RESULT:      -8.5      2.654      3.408
REMARK  Name = *****
REMARK                            x       y       z     vdW  Elec       q    Type
REMARK                         _______ _______ _______ _____ _____    ______ ____
ROOT
ATOM      1  C   LIG    1       26.951 -21.620   8.027  0.00  0.00    +0.121 A 
ATOM      2  C   LIG    1       26.272 -20.403   7.959  0.00  0.00    +0.046 A 
ATOM      3  C   LIG    1       24.956 -20.338   7.502  0.00  0.00    +0.007 A 
ATOM      4  C   LIG    1       24.298 -21.493   7.069  0.00  0.00    -0.046 A 
ATOM      5  C   LIG    1       24.973 -22.719   7.146  0.00  0.00    +0.007 A 
ATOM      6  C   LIG    1       26.297 -22.782   7.607  0.00  0.00    +0.046 A 
ENDROOT
BRANCH   1   7
ATOM      7  O   LIG    1       28.242 -21.729   8.489  0.00  0.00    -0.490 OA
BRANCH   7   8
ATOM      8  C   LIG    1       29.252 -21.338   7.531  0.00  0.00    +0.248 C 
BRANCH   8   9
ATOM      9  C   LIG    1       30.232 -20.345   8.171  0.00  0.00    +0.147 C 
BRANCH   9  11
ATOM     10  C   LIG    1       29.787 -18.485   6.564  0.00  0.00    +0.131 C 
ATOM     11  N   LIG    1       29.890 -18.920   7.958  0.00  0.00    -0.315 N 
BRANCH  11  12
ATOM     12  C   LIG    1       30.604 -18.038   8.791  0.00  0.00    +0.121 A 
ATOM     13  N   LIG    1       31.808 -17.560   8.407  0.00  0.00    -0.240 NA
ATOM     14  C   LIG    1       32.453 -16.709   9.246  0.00  0.00    +0.113 A 
ATOM     15  C   LIG    1       31.956 -16.285  10.466  0.00  0.00    +0.020 A 
ATOM     16  C   LIG    1       30.717 -16.765  10.853  0.00  0.00    +0.005 A 
ATOM     17  C   LIG    1       30.039 -17.650  10.011  0.00  0.00    +0.043 A 
ENDBRANCH  11  12
ENDBRANCH   9  11
ENDBRANCH   8   9
ENDBRANCH   7   8
ENDBRANCH   1   7
BRANCH   4  18
ATOM     18  C   LIG    1       22.910 -21.411   6.473  0.00  0.00    +0.059 C 
BRANCH  18  19
ATOM     19  C   LIG    1       22.849 -21.030   4.985  0.00  0.00    +0.146 C 
ATOM     20  C   LIG    1       22.810 -19.530   4.781  0.00  0.00    +0.234 C 
ATOM     21  O   LIG    1       21.880 -18.807   5.118  0.00  0.00    -0.274 OA
ATOM     22  N   LIG    1       23.937 -19.067   4.175  0.00  0.00    -0.246 N 
ATOM     23  H   LIG    1       24.059 -18.087   3.983  0.00  0.00    +0.158 HD
ATOM     24  C   LIG    1       24.816 -19.965   3.660  0.00  0.00    +0.279 C 
ATOM     25  O   LIG    1       25.794 -19.696   3.003  0.00  0.00    -0.263 OA
ATOM     26  S   LIG    1       24.286 -21.595   4.006  0.00  0.00    -0.054 S 
ENDBRANCH  18  19
ENDBRANCH   4  18
TORSDOF 7
ENDMDL
MODEL 9
REMARK VINA RESULT:      -8.4      5.126      9.241
REMARK  Name = *****
REMARK                            x       y       z     vdW  Elec       q    Type
REMARK                         _______ _______ _______ _____ _____    ______ ____
ROOT
ATOM      1  C   LIG    1       25.153 -25.808   6.279  0.00  0.00    +0.121 A 
ATOM      2  C   LIG    1       23.818 -25.417   6.182  0.00  0.00    +0.046 A 
ATOM      3  C   LIG    1       23.411 -24.143   6.578  0.00  0.00    +0.007 A 
ATOM      4  C   LIG    1       24.332 -23.239   7.113  0.00  0.00    -0.046 A 
ATOM      5  C   LIG    1       25.676 -23.624   7.203  0.00  0.00    +0.007 A 
ATOM      6  C   LIG    1       26.084 -24.906   6.803  0.00  0.00    +0.046 A 
ENDROOT
BRANCH   1   7
ATOM      7  O   LIG    1       25.598 -27.048   5.882  0.00  0.00    -0.490 OA
BRANCH   7   8
ATOM      8  C   LIG    1       24.661 -27.781   5.062  0.00  0.00    +0.248 C 
BRANCH   8   9
ATOM      9  C   LIG    1       24.072 -28.957   5.855  0.00  0.00    +0.147 C 
BRANCH   9  11
ATOM     10  C   LIG    1       25.519 -30.984   6.036  0.00  0.00    +0.131 C 
ATOM     11  N   LIG    1       25.065 -29.729   6.637  0.00  0.00    -0.315 N 
BRANCH  11  12
ATOM     12  C   LIG    1       24.757 -29.820   8.008  0.00  0.00    +0.121 A 
ATOM     13  N   LIG    1       23.559 -30.296   8.410  0.00  0.00    -0.240 NA
ATOM     14  C   LIG    1       23.316 -30.366   9.743  0.00  0.00    +0.113 A 
ATOM     15  C   LIG    1       24.217 -29.993  10.725  0.00  0.00    +0.020 A 
ATOM     16  C   LIG    1       25.449 -29.516  10.313  0.00  0.00    +0.005 A 
ATOM     17  C   LIG    1       25.719 -29.425   8.945  0.00  0.00    +0.043 A 
ENDBRANCH  11  12
ENDBRANCH   9  11
ENDBRANCH   8   9
ENDBRANCH   7   8
ENDBRANCH   1   7
BRANCH   4  18
ATOM     18  C   LIG    1       23.875 -21.897   7.642  0.00  0.00    +0.059 C 
BRANCH  18  19
ATOM     19  C   LIG    1       24.004 -20.720   6.662  0.00  0.00    +0.146 C 
ATOM     20  C   LIG    1       25.398 -20.615   6.078  0.00  0.00    +0.234 C 
ATOM     21  O   LIG    1       26.402 -20.334   6.722  0.00  0.00    -0.274 OA
ATOM     22  N   LIG    1       25.412 -20.871   4.742  0.00  0.00    -0.246 N 
ATOM     23  H   LIG    1       26.270 -20.849   4.217  0.00  0.00    +0.158 HD
ATOM     24  C   LIG    1       24.227 -20.973   4.084  0.00  0.00    +0.279 C 
ATOM     25  O   LIG    1       24.094 -21.086   2.889  0.00  0.00    -0.263 OA
ATOM     26  S   LIG    1       22.898 -20.826   5.211  0.00  0.00    -0.054 S 
ENDBRANCH  18  19
ENDBRANCH   4  18
TORSDOF 7
ENDMDL
