MODEL 1
REMARK VINA RESULT:      -1.3      0.000      0.000
REMARK  Name = *****
REMARK                            x       y       z     vdW  Elec       q    Type
REMARK                         _______ _______ _______ _____ _____    ______ ____
ROOT
ATOM      1  C   LIG    1       25.751 -18.168   3.723  0.00  0.00    +0.150 A 
ATOM      2  C   LIG    1       25.992 -16.754   3.427  0.00  0.00    +0.176 A 
ATOM      3  C   LIG    1       27.198 -16.132   4.040  0.00  0.00    +0.075 A 
ATOM      4  C   LIG    1       28.066 -17.005   4.773  0.00  0.00    +0.042 A 
ATOM      5  C   LIG    1       27.873 -18.367   4.932  0.00  0.00    +0.063 A 
ATOM      6  C   LIG    1       26.711 -18.919   4.448  0.00  0.00    +0.047 A 
ENDROOT
BRANCH   3   7
ATOM      7  N   LIG    1       27.621 -14.785   4.051  0.00  0.00    -0.327 N 
ATOM      8  C   LIG    1       27.591 -13.963   5.311  0.00  0.00    +0.105 C 
ATOM      9  C   LIG    1       28.058 -12.561   4.921  0.00  0.00    +0.020 C 
ATOM     10  C   LIG    1       29.046 -12.892   3.823  0.00  0.00    +0.020 C 
ATOM     11  C   LIG    1       28.281 -13.976   3.015  0.00  0.00    +0.105 C 
ENDBRANCH   3   7
BRANCH   1  12
ATOM     12  S   LIG    1       24.338 -19.320   3.535  0.00  0.00    +0.059 S 
ATOM     13  O   LIG    1       23.041 -18.641   3.674  0.00  0.00    -0.153 OA
ATOM     14  O   LIG    1       24.512 -20.125   2.390  0.00  0.00    -0.153 OA
BRANCH  12  15
ATOM     15  N   LIG    1       24.664 -20.412   4.809  0.00  0.00    -0.203 NA
ATOM     16  H   LIG    1       24.970 -20.036   5.701  0.00  0.00    +0.144 HD
ATOM     17  H   LIG    1       23.984 -21.180   4.900  0.00  0.00    +0.144 HD
ENDBRANCH  12  15
ENDBRANCH   1  12
BRANCH   5  18
ATOM     18  C   LIG    1       28.858 -19.188   5.675  0.00  0.00    +0.337 C 
ATOM     19  O   LIG    1       29.474 -18.751   6.641  0.00  0.00    -0.245 OA
BRANCH  18  20
ATOM     20  O   LIG    1       29.060 -20.427   5.182  0.00  0.00    -0.477 OA
ATOM     21  H   LIG    1       28.410 -20.778   4.543  0.00  0.00    +0.295 HD
ENDBRANCH  18  20
ENDBRANCH   5  18
BRANCH   2  22
ATOM     22  O   LIG    1       25.266 -15.876   2.576  0.00  0.00    -0.452 OA
BRANCH  22  23
ATOM     23  C   LIG    1       24.752 -14.639   2.925  0.00  0.00    +0.129 A 
ATOM     24  C   LIG    1       24.053 -14.428   4.117  0.00  0.00    +0.046 A 
ATOM     25  C   LIG    1       23.837 -13.118   4.613  0.00  0.00    +0.004 A 
ATOM     26  C   LIG    1       24.245 -12.014   3.879  0.00  0.00    +0.000 A 
ATOM     27  C   LIG    1       24.626 -12.236   2.569  0.00  0.00    +0.004 A 
ATOM     28  C   LIG    1       24.764 -13.554   2.085  0.00  0.00    +0.046 A 
ENDBRANCH  22  23
ENDBRANCH   2  22
TORSDOF 7
ENDMDL
MODEL 2
REMARK VINA RESULT:       1.3      2.027      5.415
REMARK  Name = *****
REMARK                            x       y       z     vdW  Elec       q    Type
REMARK                         _______ _______ _______ _____ _____    ______ ____
ROOT
ATOM      1  C   LIG    1       24.377 -18.996   3.962  0.00  0.00    +0.150 A 
ATOM      2  C   LIG    1       25.523 -18.106   3.757  0.00  0.00    +0.176 A 
ATOM      3  C   LIG    1       25.250 -16.643   3.754  0.00  0.00    +0.075 A 
ATOM      4  C   LIG    1       23.909 -16.241   4.060  0.00  0.00    +0.042 A 
ATOM      5  C   LIG    1       22.872 -17.105   4.371  0.00  0.00    +0.063 A 
ATOM      6  C   LIG    1       23.104 -18.457   4.279  0.00  0.00    +0.047 A 
ENDROOT
BRANCH   3   7
ATOM      7  N   LIG    1       26.103 -15.558   3.456  0.00  0.00    -0.327 N 
ATOM      8  C   LIG    1       25.591 -14.323   2.766  0.00  0.00    +0.105 C 
ATOM      9  C   LIG    1       26.801 -13.411   2.564  0.00  0.00    +0.020 C 
ATOM     10  C   LIG    1       27.617 -13.752   3.792  0.00  0.00    +0.020 C 
ATOM     11  C   LIG    1       27.500 -15.301   3.840  0.00  0.00    +0.105 C 
ENDBRANCH   3   7
BRANCH   1  12
ATOM     12  S   LIG    1       24.059 -20.788   3.749  0.00  0.00    +0.059 S 
ATOM     13  O   LIG    1       24.001 -21.180   2.333  0.00  0.00    -0.153 OA
ATOM     14  O   LIG    1       24.917 -21.539   4.579  0.00  0.00    -0.153 OA
BRANCH  12  15
ATOM     15  N   LIG    1       22.554 -20.927   4.548  0.00  0.00    -0.203 NA
ATOM     16  H   LIG    1       22.546 -20.945   5.562  0.00  0.00    +0.144 HD
ATOM     17  H   LIG    1       21.800 -20.356   4.141  0.00  0.00    +0.144 HD
ENDBRANCH  12  15
ENDBRANCH   1  12
BRANCH   5  18
ATOM     18  C   LIG    1       21.530 -16.581   4.716  0.00  0.00    +0.337 C 
ATOM     19  O   LIG    1       20.514 -16.967   4.147  0.00  0.00    -0.245 OA
BRANCH  18  20
ATOM     20  O   LIG    1       21.515 -15.621   5.662  0.00  0.00    -0.477 OA
ATOM     21  H   LIG    1       21.664 -15.888   6.590  0.00  0.00    +0.295 HD
ENDBRANCH  18  20
ENDBRANCH   5  18
BRANCH   2  22
ATOM     22  O   LIG    1       26.900 -18.431   3.615  0.00  0.00    -0.452 OA
BRANCH  22  23
ATOM     23  C   LIG    1       27.749 -18.852   4.624  0.00  0.00    +0.129 A 
ATOM     24  C   LIG    1       28.834 -18.085   5.058  0.00  0.00    +0.046 A 
ATOM     25  C   LIG    1       29.474 -18.360   6.292  0.00  0.00    +0.004 A 
ATOM     26  C   LIG    1       29.085 -19.451   7.056  0.00  0.00    +0.000 A 
ATOM     27  C   LIG    1       28.251 -20.374   6.454  0.00  0.00    +0.004 A 
ATOM     28  C   LIG    1       27.685 -20.100   5.190  0.00  0.00    +0.046 A 
ENDBRANCH  22  23
ENDBRANCH   2  22
TORSDOF 7
ENDMDL
MODEL 3
REMARK VINA RESULT:       1.5      2.280      4.714
REMARK  Name = *****
REMARK                            x       y       z     vdW  Elec       q    Type
REMARK                         _______ _______ _______ _____ _____    ______ ____
ROOT
ATOM      1  C   LIG    1       26.937 -15.682   3.973  0.00  0.00    +0.150 A 
ATOM      2  C   LIG    1       25.636 -16.307   3.721  0.00  0.00    +0.176 A 
ATOM      3  C   LIG    1       25.524 -17.767   3.988  0.00  0.00    +0.075 A 
ATOM      4  C   LIG    1       26.671 -18.401   4.569  0.00  0.00    +0.042 A 
ATOM      5  C   LIG    1       27.848 -17.756   4.910  0.00  0.00    +0.063 A 
ATOM      6  C   LIG    1       27.982 -16.429   4.575  0.00  0.00    +0.047 A 
ENDROOT
BRANCH   3   7
ATOM      7  N   LIG    1       24.466 -18.663   3.724  0.00  0.00    -0.327 N 
ATOM      8  C   LIG    1       24.723 -20.055   3.216  0.00  0.00    +0.105 C 
ATOM      9  C   LIG    1       23.352 -20.692   2.994  0.00  0.00    +0.020 C 
ATOM     10  C   LIG    1       22.555 -20.032   4.099  0.00  0.00    +0.020 C 
ATOM     11  C   LIG    1       23.024 -18.554   3.998  0.00  0.00    +0.105 C 
ENDBRANCH   3   7
BRANCH   1  12
ATOM     12  S   LIG    1       27.725 -14.085   3.543  0.00  0.00    +0.059 S 
ATOM     13  O   LIG    1       27.221 -12.975   4.365  0.00  0.00    -0.153 OA
ATOM     14  O   LIG    1       29.126 -14.234   3.472  0.00  0.00    -0.153 OA
BRANCH  12  15
ATOM     15  N   LIG    1       27.281 -13.959   1.897  0.00  0.00    -0.203 NA
ATOM     16  H   LIG    1       26.364 -13.585   1.672  0.00  0.00    +0.144 HD
ATOM     17  H   LIG    1       28.028 -13.616   1.277  0.00  0.00    +0.144 HD
ENDBRANCH  12  15
ENDBRANCH   1  12
BRANCH   5  18
ATOM     18  C   LIG    1       28.960 -18.499   5.548  0.00  0.00    +0.337 C 
ATOM     19  O   LIG    1       29.360 -19.573   5.113  0.00  0.00    -0.245 OA
BRANCH  18  20
ATOM     20  O   LIG    1       29.462 -17.932   6.664  0.00  0.00    -0.477 OA
ATOM     21  H   LIG    1       30.431 -17.830   6.730  0.00  0.00    +0.295 HD
ENDBRANCH  18  20
ENDBRANCH   5  18
BRANCH   2  22
ATOM     22  O   LIG    1       24.415 -15.707   3.306  0.00  0.00    -0.452 OA
BRANCH  22  23
ATOM     23  C   LIG    1       24.089 -14.365   3.405  0.00  0.00    +0.129 A 
ATOM     24  C   LIG    1       23.816 -13.751   4.631  0.00  0.00    +0.046 A 
ATOM     25  C   LIG    1       23.821 -12.338   4.755  0.00  0.00    +0.004 A 
ATOM     26  C   LIG    1       24.016 -11.537   3.639  0.00  0.00    +0.000 A 
ATOM     27  C   LIG    1       23.950 -12.153   2.404  0.00  0.00    +0.004 A 
ATOM     28  C   LIG    1       23.874 -13.559   2.316  0.00  0.00    +0.046 A 
ENDBRANCH  22  23
ENDBRANCH   2  22
TORSDOF 7
ENDMDL
