MODEL 1
REMARK VINA RESULT:       0.1      0.000      0.000
REMARK  Name = *****
REMARK                            x       y       z     vdW  Elec       q    Type
REMARK                         _______ _______ _______ _____ _____    ______ ____
ROOT
ATOM      1  C   LIG    1       23.933 -18.594   3.941  0.00  0.00    +0.136 C 
ENDROOT
BRANCH   1   2
ATOM      2  N   LIG    1       24.023 -17.126   4.070  0.00  0.00    -0.225 N 
ATOM      3  C   LIG    1       25.104 -16.369   3.720  0.00  0.00    +0.256 C 
ATOM      4  O   LIG    1       26.156 -16.694   3.233  0.00  0.00    -0.269 OA
ATOM      5  C   LIG    1       24.773 -14.970   4.037  0.00  0.00    +0.071 A 
ATOM      6  C   LIG    1       23.487 -14.971   4.548  0.00  0.00    +0.051 A 
ATOM      7  C   LIG    1       22.837 -13.819   4.933  0.00  0.00    +0.014 A 
ATOM      8  C   LIG    1       23.533 -12.628   4.763  0.00  0.00    +0.003 A 
ATOM      9  C   LIG    1       24.852 -12.618   4.247  0.00  0.00    +0.024 A 
ATOM     10  C   LIG    1       25.513 -13.805   3.887  0.00  0.00    +0.046 A 
ATOM     11  C   LIG    1       23.023 -16.341   4.592  0.00  0.00    +0.255 C 
ATOM     12  O   LIG    1       21.934 -16.672   5.053  0.00  0.00    -0.270 OA
BRANCH  10  13
ATOM     13  N   LIG    1       26.847 -13.862   3.408  0.00  0.00    -0.285 N 
ATOM     14  H   LIG    1       26.971 -14.330   2.508  0.00  0.00    +0.155 HD
ATOM     15  C   LIG    1       27.976 -13.361   4.033  0.00  0.00    +0.214 C 
ATOM     16  O   LIG    1       28.006 -12.768   5.109  0.00  0.00    -0.276 OA
ATOM     17  C   LIG    1       29.256 -13.606   3.268  0.00  0.00    +0.109 C 
ENDBRANCH  10  13
ENDBRANCH   1   2
BRANCH   1  22
ATOM     18  C   LIG    1       27.457 -19.683   5.133  0.00  0.00    +0.162 A 
ATOM     19  C   LIG    1       27.166 -20.393   6.312  0.00  0.00    +0.162 A 
ATOM     20  C   LIG    1       25.824 -20.532   6.692  0.00  0.00    +0.050 A 
ATOM     21  C   LIG    1       24.780 -20.012   5.909  0.00  0.00    +0.009 A 
ATOM     22  C   LIG    1       25.048 -19.312   4.733  0.00  0.00    -0.021 A 
ATOM     23  C   LIG    1       26.391 -19.204   4.352  0.00  0.00    +0.055 A 
BRANCH  19  24
ATOM     24  O   LIG    1       28.204 -20.896   7.062  0.00  0.00    -0.491 OA
ATOM     25  C   LIG    1       29.447 -20.194   6.950  0.00  0.00    +0.277 C 
ENDBRANCH  19  24
BRANCH  18  26
ATOM     26  O   LIG    1       28.774 -19.463   4.801  0.00  0.00    -0.489 OA
BRANCH  26  28
ATOM     27  C   LIG    1       28.695 -17.001   4.928  0.00  0.00    +0.048 C 
ATOM     28  C   LIG    1       29.414 -18.287   5.320  0.00  0.00    +0.226 C 
ENDBRANCH  26  28
ENDBRANCH  18  26
ENDBRANCH   1  22
BRANCH   1  29
ATOM     29  C   LIG    1       22.556 -19.181   4.348  0.00  0.00    +0.193 C 
BRANCH  29  30
ATOM     30  S   LIG    1       22.565 -20.975   4.297  0.00  0.00    -0.032 S 
ATOM     31  O   LIG    1       23.755 -21.388   3.593  0.00  0.00    -0.174 OA
ATOM     32  O   LIG    1       21.262 -21.463   3.880  0.00  0.00    -0.174 OA
ATOM     33  C   LIG    1       22.754 -21.472   5.999  0.00  0.00    +0.194 C 
ENDBRANCH  29  30
ENDBRANCH   1  29
TORSDOF 8
ENDMDL
MODEL 2
REMARK VINA RESULT:       0.2      2.582      7.733
REMARK  Name = *****
REMARK                            x       y       z     vdW  Elec       q    Type
REMARK                         _______ _______ _______ _____ _____    ______ ____
ROOT
ATOM      1  C   LIG    1       27.826 -15.902   3.825  0.00  0.00    +0.136 C 
ENDROOT
BRANCH   1   2
ATOM      2  N   LIG    1       27.496 -17.249   4.330  0.00  0.00    -0.225 N 
ATOM      3  C   LIG    1       26.332 -17.920   4.085  0.00  0.00    +0.256 C 
ATOM      4  O   LIG    1       25.377 -17.603   3.425  0.00  0.00    -0.269 OA
ATOM      5  C   LIG    1       26.417 -19.207   4.794  0.00  0.00    +0.071 A 
ATOM      6  C   LIG    1       27.654 -19.239   5.415  0.00  0.00    +0.051 A 
ATOM      7  C   LIG    1       28.089 -20.317   6.155  0.00  0.00    +0.014 A 
ATOM      8  C   LIG    1       27.224 -21.401   6.238  0.00  0.00    +0.003 A 
ATOM      9  C   LIG    1       25.954 -21.374   5.612  0.00  0.00    +0.024 A 
ATOM     10  C   LIG    1       25.513 -20.256   4.884  0.00  0.00    +0.046 A 
ATOM     11  C   LIG    1       28.326 -17.987   5.140  0.00  0.00    +0.255 C 
ATOM     12  O   LIG    1       29.423 -17.693   5.604  0.00  0.00    -0.270 OA
BRANCH  10  13
ATOM     13  N   LIG    1       24.236 -20.153   4.275  0.00  0.00    -0.285 N 
ATOM     14  H   LIG    1       24.237 -20.137   3.253  0.00  0.00    +0.155 HD
ATOM     15  C   LIG    1       23.012 -20.068   4.917  0.00  0.00    +0.214 C 
ATOM     16  O   LIG    1       22.831 -20.081   6.132  0.00  0.00    -0.276 OA
ATOM     17  C   LIG    1       21.837 -19.946   3.977  0.00  0.00    +0.109 C 
ENDBRANCH  10  13
ENDBRANCH   1   2
BRANCH   1  22
ATOM     18  C   LIG    1       24.273 -14.355   3.739  0.00  0.00    +0.162 A 
ATOM     19  C   LIG    1       24.318 -13.570   2.574  0.00  0.00    +0.162 A 
ATOM     20  C   LIG    1       25.496 -13.573   1.813  0.00  0.00    +0.050 A 
ATOM     21  C   LIG    1       26.601 -14.361   2.173  0.00  0.00    +0.009 A 
ATOM     22  C   LIG    1       26.573 -15.153   3.321  0.00  0.00    -0.021 A 
ATOM     23  C   LIG    1       25.380 -15.161   4.056  0.00  0.00    +0.055 A 
BRANCH  19  24
ATOM     24  O   LIG    1       23.223 -12.807   2.239  0.00  0.00    -0.491 OA
ATOM     25  C   LIG    1       23.501 -11.453   1.866  0.00  0.00    +0.277 C 
ENDBRANCH  19  24
BRANCH  18  26
ATOM     26  O   LIG    1       23.155 -14.288   4.540  0.00  0.00    -0.489 OA
BRANCH  26  28
ATOM     27  C   LIG    1       22.129 -16.529   4.623  0.00  0.00    +0.048 C 
ATOM     28  C   LIG    1       22.853 -15.418   5.374  0.00  0.00    +0.226 C 
ENDBRANCH  26  28
ENDBRANCH  18  26
ENDBRANCH   1  22
BRANCH   1  29
ATOM     29  C   LIG    1       28.579 -15.011   4.848  0.00  0.00    +0.193 C 
BRANCH  29  30
ATOM     30  S   LIG    1       28.087 -13.290   4.707  0.00  0.00    -0.032 S 
ATOM     31  O   LIG    1       26.748 -13.173   5.233  0.00  0.00    -0.174 OA
ATOM     32  O   LIG    1       28.396 -12.795   3.377  0.00  0.00    -0.174 OA
ATOM     33  C   LIG    1       29.173 -12.420   5.821  0.00  0.00    +0.194 C 
ENDBRANCH  29  30
ENDBRANCH   1  29
TORSDOF 8
ENDMDL
