MODEL 1
REMARK VINA RESULT:      12.7      0.000      0.000
REMARK  Name = *****
REMARK                            x       y       z     vdW  Elec       q    Type
REMARK                         _______ _______ _______ _____ _____    ______ ____
ROOT
ATOM      1  C   LIG    1       23.984 -14.400   4.047  0.00  0.00    +0.057 A 
ATOM      2  C   LIG    1       23.562 -13.570   5.130  0.00  0.00    +0.055 A 
ATOM      3  C   LIG    1       22.491 -14.071   5.884  0.00  0.00    +0.072 A 
ATOM      4  C   LIG    1       22.067 -15.405   5.828  0.00  0.00    +0.143 A 
ATOM      5  C   LIG    1       22.441 -16.220   4.760  0.00  0.00    +0.078 A 
ATOM      6  C   LIG    1       23.374 -15.666   3.868  0.00  0.00    +0.052 A 
ENDROOT
BRANCH   1   8
ATOM      7  C   LIG    1       25.973 -14.962   2.596  0.00  0.00    +0.241 C 
ATOM      8  N   LIG    1       25.072 -14.055   3.182  0.00  0.00    -0.280 N 
ATOM      9  H   LIG    1       25.192 -13.072   3.024  0.00  0.00    +0.155 HD
ATOM     10  O   LIG    1       25.934 -16.159   2.635  0.00  0.00    -0.271 OA
BRANCH   7  12
ATOM     11  C   LIG    1       27.741 -13.252   2.347  0.00  0.00    +0.013 C 
ATOM     12  C   LIG    1       27.064 -14.271   1.812  0.00  0.00    +0.060 C 
ENDBRANCH   7  12
ENDBRANCH   1   8
BRANCH   2  13
ATOM     13  N   LIG    1       24.035 -12.307   5.485  0.00  0.00    -0.330 N 
ATOM     14  C   LIG    1       23.264 -11.475   6.405  0.00  0.00    +0.129 C 
BRANCH  13  15
ATOM     15  C   LIG    1       25.163 -11.593   4.800  0.00  0.00    +0.120 C 
BRANCH  15  16
ATOM     16  C   LIG    1       26.631 -11.557   5.325  0.00  0.00    +0.102 C 
BRANCH  16  17
ATOM     17  N   LIG    1       27.530 -12.733   5.165  0.00  0.00    -0.307 NA
ATOM     18  C   LIG    1       26.998 -13.860   5.957  0.00  0.00    +0.104 C 
ATOM     19  C   LIG    1       28.889 -12.442   5.626  0.00  0.00    +0.104 C 
ENDBRANCH  16  17
ENDBRANCH  15  16
ENDBRANCH  13  15
ENDBRANCH   2  13
BRANCH   4  20
ATOM     20  O   LIG    1       21.264 -15.924   6.797  0.00  0.00    -0.493 OA
ATOM     21  C   LIG    1       20.024 -15.309   7.052  0.00  0.00    +0.277 C 
ENDBRANCH   4  20
BRANCH   5  22
ATOM     22  N   LIG    1       22.095 -17.576   4.565  0.00  0.00    -0.281 N 
ATOM     23  H   LIG    1       21.114 -17.747   4.385  0.00  0.00    +0.155 HD
BRANCH  22  24
ATOM     24  C   LIG    1       22.694 -18.789   4.912  0.00  0.00    +0.220 A 
ATOM     25  N   LIG    1       24.015 -18.803   5.118  0.00  0.00    -0.214 NA
ATOM     26  C   LIG    1       24.580 -20.006   5.392  0.00  0.00    +0.078 A 
ATOM     27  C   LIG    1       23.871 -21.189   5.441  0.00  0.00    +0.048 A 
ATOM     28  C   LIG    1       22.537 -21.074   5.239  0.00  0.00    +0.116 A 
ATOM     29  N   LIG    1       21.970 -19.903   4.988  0.00  0.00    -0.223 NA
BRANCH  26  30
ATOM     30  C   LIG    1       26.017 -20.012   5.642  0.00  0.00    +0.026 C 
ATOM     31  C   LIG    1       27.019 -19.069   5.251  0.00  0.00    +0.009 C 
ATOM     32  C   LIG    1       28.248 -19.539   5.730  0.00  0.00    +0.050 C 
ATOM     33  C   LIG    1       29.452 -18.858   5.495  0.00  0.00    +0.026 C 
ATOM     34  C   LIG    1       29.402 -17.669   4.762  0.00  0.00    +0.002 C 
ATOM     35  C   LIG    1       28.193 -17.170   4.289  0.00  0.00    +0.001 C 
ATOM     36  N   LIG    1       27.995 -20.713   6.403  0.00  0.00    -0.349 NA
ATOM     37  C   LIG    1       28.989 -21.530   7.061  0.00  0.00    +0.149 C 
ATOM     38  C   LIG    1       26.999 -17.856   4.530  0.00  0.00    +0.010 C 
ATOM     39  C   LIG    1       26.663 -21.019   6.338  0.00  0.00    +0.096 C 
ENDBRANCH  26  30
ENDBRANCH  22  24
ENDBRANCH   5  22
TORSDOF 10
ENDMDL
