MODEL 1
REMARK VINA RESULT:      -9.0      0.000      0.000
REMARK  Name = *****
REMARK                            x       y       z     vdW  Elec       q    Type
REMARK                         _______ _______ _______ _____ _____    ______ ____
ROOT
ATOM      1  C   LIG    1       28.872 -19.748   7.679  0.00  0.00    -0.030 A 
ATOM      2  C   LIG    1       27.658 -20.262   8.191  0.00  0.00    +0.050 A 
ATOM      3  C   LIG    1       26.553 -20.491   7.350  0.00  0.00    +0.129 A 
ATOM      4  C   LIG    1       26.674 -20.295   5.976  0.00  0.00    +0.046 A 
ATOM      5  C   LIG    1       27.853 -19.767   5.459  0.00  0.00    +0.004 A 
ATOM      6  C   LIG    1       28.935 -19.489   6.300  0.00  0.00    +0.005 A 
ENDROOT
BRANCH   1   8
ATOM      7  C   LIG    1       30.847 -18.196   8.200  0.00  0.00    +0.024 C 
ATOM      8  C   LIG    1       30.068 -19.468   8.597  0.00  0.00    +0.124 C 
BRANCH   8   9
ATOM      9  C   LIG    1       31.090 -20.607   8.735  0.00  0.00    +0.312 C 
ATOM     10  O   LIG    1       32.188 -20.471   9.247  0.00  0.00    -0.250 OA
BRANCH   9  11
ATOM     11  O   LIG    1       30.671 -21.826   8.328  0.00  0.00    -0.480 OA
ATOM     12  H   LIG    1       29.904 -22.186   8.805  0.00  0.00    +0.295 HD
ENDBRANCH   9  11
ENDBRANCH   8   9
ENDBRANCH   1   8
BRANCH   3  13
ATOM     13  O   LIG    1       25.398 -20.975   7.928  0.00  0.00    -0.456 OA
BRANCH  13  14
ATOM     14  C   LIG    1       24.888 -22.188   7.501  0.00  0.00    +0.128 A 
ATOM     15  C   LIG    1       23.514 -22.229   7.238  0.00  0.00    +0.046 A 
ATOM     16  C   LIG    1       22.915 -23.403   6.769  0.00  0.00    +0.004 A 
ATOM     17  C   LIG    1       23.689 -24.539   6.541  0.00  0.00    +0.000 A 
ATOM     18  C   LIG    1       25.064 -24.497   6.774  0.00  0.00    +0.004 A 
ATOM     19  C   LIG    1       25.665 -23.323   7.244  0.00  0.00    +0.046 A 
ENDBRANCH  13  14
ENDBRANCH   3  13
TORSDOF 5
ENDMDL
MODEL 2
REMARK VINA RESULT:      -8.8      1.089      1.841
REMARK  Name = *****
REMARK                            x       y       z     vdW  Elec       q    Type
REMARK                         _______ _______ _______ _____ _____    ______ ____
ROOT
ATOM      1  C   LIG    1       29.369 -20.335   7.386  0.00  0.00    -0.030 A 
ATOM      2  C   LIG    1       28.253 -20.905   8.043  0.00  0.00    +0.050 A 
ATOM      3  C   LIG    1       26.969 -20.857   7.469  0.00  0.00    +0.129 A 
ATOM      4  C   LIG    1       26.797 -20.321   6.195  0.00  0.00    +0.046 A 
ATOM      5  C   LIG    1       27.879 -19.734   5.545  0.00  0.00    +0.004 A 
ATOM      6  C   LIG    1       29.147 -19.735   6.136  0.00  0.00    +0.005 A 
ENDROOT
BRANCH   1   8
ATOM      7  C   LIG    1       30.989 -21.582   8.935  0.00  0.00    +0.024 C 
ATOM      8  C   LIG    1       30.765 -20.358   8.021  0.00  0.00    +0.124 C 
BRANCH   8   9
ATOM      9  C   LIG    1       31.157 -19.108   8.823  0.00  0.00    +0.312 C 
ATOM     10  O   LIG    1       31.018 -19.009  10.030  0.00  0.00    -0.250 OA
BRANCH   9  11
ATOM     11  O   LIG    1       31.763 -18.124   8.121  0.00  0.00    -0.480 OA
ATOM     12  H   LIG    1       32.433 -17.615   8.607  0.00  0.00    +0.295 HD
ENDBRANCH   9  11
ENDBRANCH   8   9
ENDBRANCH   1   8
BRANCH   3  13
ATOM     13  O   LIG    1       25.929 -21.417   8.181  0.00  0.00    -0.456 OA
BRANCH  13  14
ATOM     14  C   LIG    1       25.155 -22.398   7.584  0.00  0.00    +0.128 A 
ATOM     15  C   LIG    1       25.799 -23.602   7.283  0.00  0.00    +0.046 A 
ATOM     16  C   LIG    1       25.091 -24.663   6.710  0.00  0.00    +0.004 A 
ATOM     17  C   LIG    1       23.727 -24.533   6.452  0.00  0.00    +0.000 A 
ATOM     18  C   LIG    1       23.072 -23.345   6.777  0.00  0.00    +0.004 A 
ATOM     19  C   LIG    1       23.780 -22.282   7.350  0.00  0.00    +0.046 A 
ENDBRANCH  13  14
ENDBRANCH   3  13
TORSDOF 5
ENDMDL
MODEL 3
REMARK VINA RESULT:      -8.6      1.930      2.536
REMARK  Name = *****
REMARK                            x       y       z     vdW  Elec       q    Type
REMARK                         _______ _______ _______ _____ _____    ______ ____
ROOT
ATOM      1  C   LIG    1       29.504 -18.949   7.937  0.00  0.00    -0.030 A 
ATOM      2  C   LIG    1       28.506 -19.951   7.893  0.00  0.00    +0.050 A 
ATOM      3  C   LIG    1       27.886 -20.305   6.680  0.00  0.00    +0.129 A 
ATOM      4  C   LIG    1       28.317 -19.731   5.486  0.00  0.00    +0.046 A 
ATOM      5  C   LIG    1       29.280 -18.727   5.515  0.00  0.00    +0.004 A 
ATOM      6  C   LIG    1       29.861 -18.336   6.726  0.00  0.00    +0.005 A 
ENDROOT
BRANCH   1   8
ATOM      7  C   LIG    1       30.137 -17.012   9.495  0.00  0.00    +0.024 C 
ATOM      8  C   LIG    1       30.160 -18.538   9.261  0.00  0.00    +0.124 C 
BRANCH   8   9
ATOM      9  C   LIG    1       31.606 -19.012   9.470  0.00  0.00    +0.312 C 
ATOM     10  O   LIG    1       32.036 -20.072   9.050  0.00  0.00    -0.250 OA
BRANCH   9  11
ATOM     11  O   LIG    1       32.430 -18.136  10.088  0.00  0.00    -0.480 OA
ATOM     12  H   LIG    1       32.446 -18.189  11.058  0.00  0.00    +0.295 HD
ENDBRANCH   9  11
ENDBRANCH   8   9
ENDBRANCH   1   8
BRANCH   3  13
ATOM     13  O   LIG    1       26.908 -21.277   6.722  0.00  0.00    -0.456 OA
BRANCH  13  14
ATOM     14  C   LIG    1       25.615 -20.947   6.354  0.00  0.00    +0.128 A 
ATOM     15  C   LIG    1       24.648 -20.999   7.363  0.00  0.00    +0.046 A 
ATOM     16  C   LIG    1       23.320 -20.649   7.094  0.00  0.00    +0.004 A 
ATOM     17  C   LIG    1       22.954 -20.227   5.817  0.00  0.00    +0.000 A 
ATOM     18  C   LIG    1       23.920 -20.146   4.813  0.00  0.00    +0.004 A 
ATOM     19  C   LIG    1       25.249 -20.496   5.080  0.00  0.00    +0.046 A 
ENDBRANCH  13  14
ENDBRANCH   3  13
TORSDOF 5
ENDMDL
MODEL 4
REMARK VINA RESULT:      -8.4      2.649      5.145
REMARK  Name = *****
REMARK                            x       y       z     vdW  Elec       q    Type
REMARK                         _______ _______ _______ _____ _____    ______ ____
ROOT
ATOM      1  C   LIG    1       24.897 -22.105   6.862  0.00  0.00    -0.030 A 
ATOM      2  C   LIG    1       25.660 -23.237   6.492  0.00  0.00    +0.050 A 
ATOM      3  C   LIG    1       25.059 -24.500   6.336  0.00  0.00    +0.129 A 
ATOM      4  C   LIG    1       23.677 -24.632   6.458  0.00  0.00    +0.046 A 
ATOM      5  C   LIG    1       22.915 -23.534   6.846  0.00  0.00    +0.004 A 
ATOM      6  C   LIG    1       23.518 -22.289   7.053  0.00  0.00    +0.005 A 
ENDROOT
BRANCH   1   8
ATOM      7  C   LIG    1       26.507 -20.348   5.914  0.00  0.00    +0.024 C 
ATOM      8  C   LIG    1       25.553 -20.734   7.064  0.00  0.00    +0.124 C 
BRANCH   8   9
ATOM      9  C   LIG    1       26.322 -20.545   8.381  0.00  0.00    +0.312 C 
ATOM     10  O   LIG    1       25.836 -20.745   9.481  0.00  0.00    -0.250 OA
BRANCH   9  11
ATOM     11  O   LIG    1       27.628 -20.219   8.258  0.00  0.00    -0.480 OA
ATOM     12  H   LIG    1       28.068 -19.937   9.078  0.00  0.00    +0.295 HD
ENDBRANCH   9  11
ENDBRANCH   8   9
ENDBRANCH   1   8
BRANCH   3  13
ATOM     13  O   LIG    1       25.874 -25.559   5.993  0.00  0.00    -0.456 OA
BRANCH  13  14
ATOM     14  C   LIG    1       25.459 -26.848   6.278  0.00  0.00    +0.128 A 
ATOM     15  C   LIG    1       25.909 -27.395   7.484  0.00  0.00    +0.046 A 
ATOM     16  C   LIG    1       25.515 -28.679   7.874  0.00  0.00    +0.004 A 
ATOM     17  C   LIG    1       24.651 -29.418   7.068  0.00  0.00    +0.000 A 
ATOM     18  C   LIG    1       24.175 -28.868   5.878  0.00  0.00    +0.004 A 
ATOM     19  C   LIG    1       24.570 -27.583   5.486  0.00  0.00    +0.046 A 
ENDBRANCH  13  14
ENDBRANCH   3  13
TORSDOF 5
ENDMDL
MODEL 5
REMARK VINA RESULT:      -8.3      2.119      2.589
REMARK  Name = *****
REMARK                            x       y       z     vdW  Elec       q    Type
REMARK                         _______ _______ _______ _____ _____    ______ ____
ROOT
ATOM      1  C   LIG    1       29.984 -19.883   7.357  0.00  0.00    -0.030 A 
ATOM      2  C   LIG    1       28.890 -20.779   7.367  0.00  0.00    +0.050 A 
ATOM      3  C   LIG    1       27.823 -20.633   6.460  0.00  0.00    +0.129 A 
ATOM      4  C   LIG    1       27.878 -19.649   5.475  0.00  0.00    +0.046 A 
ATOM      5  C   LIG    1       28.936 -18.745   5.467  0.00  0.00    +0.004 A 
ATOM      6  C   LIG    1       29.971 -18.856   6.401  0.00  0.00    +0.005 A 
ENDROOT
BRANCH   1   8
ATOM      7  C   LIG    1       31.166 -21.399   9.057  0.00  0.00    +0.024 C 
ATOM      8  C   LIG    1       31.133 -20.020   8.364  0.00  0.00    +0.124 C 
BRANCH   8   9
ATOM      9  C   LIG    1       31.191 -18.951   9.466  0.00  0.00    +0.312 C 
ATOM     10  O   LIG    1       32.227 -18.453   9.870  0.00  0.00    -0.250 OA
BRANCH   9  11
ATOM     11  O   LIG    1       29.996 -18.512   9.924  0.00  0.00    -0.480 OA
ATOM     12  H   LIG    1       29.303 -18.408   9.251  0.00  0.00    +0.295 HD
ENDBRANCH   9  11
ENDBRANCH   8   9
ENDBRANCH   1   8
BRANCH   3  13
ATOM     13  O   LIG    1       26.782 -21.535   6.546  0.00  0.00    -0.456 OA
BRANCH  13  14
ATOM     14  C   LIG    1       25.502 -21.118   6.225  0.00  0.00    +0.128 A 
ATOM     15  C   LIG    1       24.611 -20.966   7.292  0.00  0.00    +0.046 A 
ATOM     16  C   LIG    1       23.305 -20.516   7.069  0.00  0.00    +0.004 A 
ATOM     17  C   LIG    1       22.888 -20.197   5.778  0.00  0.00    +0.000 A 
ATOM     18  C   LIG    1       23.781 -20.319   4.713  0.00  0.00    +0.004 A 
ATOM     19  C   LIG    1       25.088 -20.769   4.934  0.00  0.00    +0.046 A 
ENDBRANCH  13  14
ENDBRANCH   3  13
TORSDOF 5
ENDMDL
MODEL 6
REMARK VINA RESULT:      -8.2      2.229      6.444
REMARK  Name = *****
REMARK                            x       y       z     vdW  Elec       q    Type
REMARK                         _______ _______ _______ _____ _____    ______ ____
ROOT
ATOM      1  C   LIG    1       24.837 -23.883   6.890  0.00  0.00    -0.030 A 
ATOM      2  C   LIG    1       25.983 -23.231   7.402  0.00  0.00    +0.050 A 
ATOM      3  C   LIG    1       25.911 -21.914   7.894  0.00  0.00    +0.129 A 
ATOM      4  C   LIG    1       24.681 -21.265   7.964  0.00  0.00    +0.046 A 
ATOM      5  C   LIG    1       23.548 -21.882   7.441  0.00  0.00    +0.004 A 
ATOM      6  C   LIG    1       23.627 -23.171   6.904  0.00  0.00    +0.005 A 
ENDROOT
BRANCH   1   8
ATOM      7  C   LIG    1       25.920 -26.200   7.084  0.00  0.00    +0.024 C 
ATOM      8  C   LIG    1       24.917 -25.306   6.324  0.00  0.00    +0.124 C 
BRANCH   8   9
ATOM      9  C   LIG    1       25.247 -25.417   4.828  0.00  0.00    +0.312 C 
ATOM     10  O   LIG    1       25.822 -26.370   4.332  0.00  0.00    -0.250 OA
BRANCH   9  11
ATOM     11  O   LIG    1       24.781 -24.417   4.046  0.00  0.00    -0.480 OA
ATOM     12  H   LIG    1       25.420 -24.046   3.415  0.00  0.00    +0.295 HD
ENDBRANCH   9  11
ENDBRANCH   8   9
ENDBRANCH   1   8
BRANCH   3  13
ATOM     13  O   LIG    1       27.076 -21.340   8.358  0.00  0.00    -0.456 OA
BRANCH  13  14
ATOM     14  C   LIG    1       27.784 -20.486   7.530  0.00  0.00    +0.128 A 
ATOM     15  C   LIG    1       28.935 -19.904   8.071  0.00  0.00    +0.046 A 
ATOM     16  C   LIG    1       29.733 -19.054   7.299  0.00  0.00    +0.004 A 
ATOM     17  C   LIG    1       29.395 -18.795   5.971  0.00  0.00    +0.000 A 
ATOM     18  C   LIG    1       28.264 -19.395   5.416  0.00  0.00    +0.004 A 
ATOM     19  C   LIG    1       27.464 -20.245   6.189  0.00  0.00    +0.046 A 
ENDBRANCH  13  14
ENDBRANCH   3  13
TORSDOF 5
ENDMDL
MODEL 7
REMARK VINA RESULT:      -8.2      2.759      6.628
REMARK  Name = *****
REMARK                            x       y       z     vdW  Elec       q    Type
REMARK                         _______ _______ _______ _____ _____    ______ ____
ROOT
ATOM      1  C   LIG    1       25.197 -25.090   6.572  0.00  0.00    -0.030 A 
ATOM      2  C   LIG    1       25.854 -24.020   7.222  0.00  0.00    +0.050 A 
ATOM      3  C   LIG    1       25.172 -22.829   7.532  0.00  0.00    +0.129 A 
ATOM      4  C   LIG    1       23.806 -22.725   7.279  0.00  0.00    +0.046 A 
ATOM      5  C   LIG    1       23.149 -23.759   6.617  0.00  0.00    +0.004 A 
ATOM      6  C   LIG    1       23.838 -24.923   6.262  0.00  0.00    +0.005 A 
ENDROOT
BRANCH   1   8
ATOM      7  C   LIG    1       25.813 -26.745   4.711  0.00  0.00    +0.024 C 
ATOM      8  C   LIG    1       25.945 -26.378   6.204  0.00  0.00    +0.124 C 
BRANCH   8   9
ATOM      9  C   LIG    1       25.573 -27.626   7.019  0.00  0.00    +0.312 C 
ATOM     10  O   LIG    1       24.668 -28.385   6.716  0.00  0.00    -0.250 OA
BRANCH   9  11
ATOM     11  O   LIG    1       26.373 -27.902   8.073  0.00  0.00    -0.480 OA
ATOM     12  H   LIG    1       27.326 -27.914   7.883  0.00  0.00    +0.295 HD
ENDBRANCH   9  11
ENDBRANCH   8   9
ENDBRANCH   1   8
BRANCH   3  13
ATOM     13  O   LIG    1       25.887 -21.823   8.148  0.00  0.00    -0.456 OA
BRANCH  13  14
ATOM     14  C   LIG    1       26.853 -21.143   7.427  0.00  0.00    +0.128 A 
ATOM     15  C   LIG    1       28.167 -21.244   7.896  0.00  0.00    +0.046 A 
ATOM     16  C   LIG    1       29.216 -20.620   7.213  0.00  0.00    +0.004 A 
ATOM     17  C   LIG    1       28.960 -19.905   6.044  0.00  0.00    +0.000 A 
ATOM     18  C   LIG    1       27.656 -19.824   5.555  0.00  0.00    +0.004 A 
ATOM     19  C   LIG    1       26.605 -20.448   6.238  0.00  0.00    +0.046 A 
ENDBRANCH  13  14
ENDBRANCH   3  13
TORSDOF 5
ENDMDL
MODEL 8
REMARK VINA RESULT:      -8.2      2.742      3.733
REMARK  Name = *****
REMARK                            x       y       z     vdW  Elec       q    Type
REMARK                         _______ _______ _______ _____ _____    ______ ____
ROOT
ATOM      1  C   LIG    1       28.155 -20.373   7.210  0.00  0.00    -0.030 A 
ATOM      2  C   LIG    1       27.279 -20.709   6.151  0.00  0.00    +0.050 A 
ATOM      3  C   LIG    1       25.923 -20.995   6.393  0.00  0.00    +0.129 A 
ATOM      4  C   LIG    1       25.403 -20.861   7.679  0.00  0.00    +0.046 A 
ATOM      5  C   LIG    1       26.257 -20.555   8.736  0.00  0.00    +0.004 A 
ATOM      6  C   LIG    1       27.616 -20.322   8.505  0.00  0.00    +0.005 A 
ENDROOT
BRANCH   1   8
ATOM      7  C   LIG    1       30.555 -20.612   8.084  0.00  0.00    +0.024 C 
ATOM      8  C   LIG    1       29.641 -20.092   6.954  0.00  0.00    +0.124 C 
BRANCH   8   9
ATOM      9  C   LIG    1       30.013 -18.623   6.703  0.00  0.00    +0.312 C 
ATOM     10  O   LIG    1       30.566 -17.916   7.528  0.00  0.00    -0.250 OA
BRANCH   9  11
ATOM     11  O   LIG    1       29.769 -18.158   5.457  0.00  0.00    -0.480 OA
ATOM     12  H   LIG    1       30.470 -18.322   4.805  0.00  0.00    +0.295 HD
ENDBRANCH   9  11
ENDBRANCH   8   9
ENDBRANCH   1   8
BRANCH   3  13
ATOM     13  O   LIG    1       25.137 -21.334   5.311  0.00  0.00    -0.456 OA
BRANCH  13  14
ATOM     14  C   LIG    1       24.225 -20.412   4.825  0.00  0.00    +0.128 A 
ATOM     15  C   LIG    1       22.934 -20.472   5.360  0.00  0.00    +0.046 A 
ATOM     16  C   LIG    1       21.955 -19.559   4.955  0.00  0.00    +0.004 A 
ATOM     17  C   LIG    1       22.266 -18.567   4.026  0.00  0.00    +0.000 A 
ATOM     18  C   LIG    1       23.559 -18.484   3.511  0.00  0.00    +0.004 A 
ATOM     19  C   LIG    1       24.541 -19.398   3.914  0.00  0.00    +0.046 A 
ENDBRANCH  13  14
ENDBRANCH   3  13
TORSDOF 5
ENDMDL
MODEL 9
REMARK VINA RESULT:      -8.1      2.399      6.930
REMARK  Name = *****
REMARK                            x       y       z     vdW  Elec       q    Type
REMARK                         _______ _______ _______ _____ _____    ______ ____
ROOT
ATOM      1  C   LIG    1       25.139 -20.613   5.838  0.00  0.00    -0.030 A 
ATOM      2  C   LIG    1       26.537 -20.535   5.633  0.00  0.00    +0.050 A 
ATOM      3  C   LIG    1       27.435 -20.606   6.714  0.00  0.00    +0.129 A 
ATOM      4  C   LIG    1       26.956 -20.846   8.001  0.00  0.00    +0.046 A 
ATOM      5  C   LIG    1       25.583 -20.900   8.223  0.00  0.00    +0.004 A 
ATOM      6  C   LIG    1       24.687 -20.778   7.157  0.00  0.00    +0.005 A 
ENDROOT
BRANCH   1   8
ATOM      7  C   LIG    1       24.577 -19.448   3.623  0.00  0.00    +0.024 C 
ATOM      8  C   LIG    1       24.155 -20.504   4.667  0.00  0.00    +0.124 C 
BRANCH   8   9
ATOM      9  C   LIG    1       22.693 -20.220   5.042  0.00  0.00    +0.312 C 
ATOM     10  O   LIG    1       22.264 -19.107   5.289  0.00  0.00    -0.250 OA
BRANCH   9  11
ATOM     11  O   LIG    1       21.858 -21.283   5.001  0.00  0.00    -0.480 OA
ATOM     12  H   LIG    1       20.965 -21.100   4.664  0.00  0.00    +0.295 HD
ENDBRANCH   9  11
ENDBRANCH   8   9
ENDBRANCH   1   8
BRANCH   3  13
ATOM     13  O   LIG    1       28.782 -20.502   6.435  0.00  0.00    -0.456 OA
BRANCH  13  14
ATOM     14  C   LIG    1       29.614 -19.879   7.350  0.00  0.00    +0.128 A 
ATOM     15  C   LIG    1       30.445 -20.714   8.104  0.00  0.00    +0.046 A 
ATOM     16  C   LIG    1       31.344 -20.173   9.029  0.00  0.00    +0.004 A 
ATOM     17  C   LIG    1       31.431 -18.792   9.193  0.00  0.00    +0.000 A 
ATOM     18  C   LIG    1       30.625 -17.953   8.424  0.00  0.00    +0.004 A 
ATOM     19  C   LIG    1       29.724 -18.492   7.498  0.00  0.00    +0.046 A 
ENDBRANCH  13  14
ENDBRANCH   3  13
TORSDOF 5
ENDMDL
