MODEL 1
REMARK VINA RESULT:      -6.8      0.000      0.000
REMARK  Name = *****
REMARK                            x       y       z     vdW  Elec       q    Type
REMARK                         _______ _______ _______ _____ _____    ______ ____
ROOT
ATOM      1  O   LIG    1       26.591 -27.469   8.905  0.00  0.00    -0.285 OA
ATOM      2  C   LIG    1       25.933 -27.983   8.022  0.00  0.00    +0.211 C 
ATOM      3  C   LIG    1       25.278 -27.318   6.835  0.00  0.00    +0.104 C 
ATOM      4  C   LIG    1       25.373 -26.000   6.655  0.00  0.00    +0.104 C 
ATOM      5  C   LIG    1       24.671 -25.324   5.502  0.00  0.00    +0.211 C 
ATOM      6  O   LIG    1       23.980 -25.830   4.641  0.00  0.00    -0.285 OA
ATOM      7  C   LIG    1       24.976 -23.890   5.670  0.00  0.00    +0.047 A 
ATOM      8  C   LIG    1       25.765 -23.777   6.827  0.00  0.00    +0.043 A 
ATOM      9  C   LIG    1       26.232 -22.544   7.230  0.00  0.00    +0.026 A 
ATOM     10  C   LIG    1       25.874 -21.422   6.469  0.00  0.00    +0.031 A 
ATOM     11  C   LIG    1       25.074 -21.564   5.313  0.00  0.00    +0.118 A 
ATOM     12  C   LIG    1       24.603 -22.811   4.895  0.00  0.00    +0.043 A 
ATOM     13  N   LIG    1       26.024 -25.023   7.378  0.00  0.00    -0.309 N 
ATOM     14  H   LIG    1       26.457 -25.228   8.271  0.00  0.00    +0.152 HD
ATOM     15  N   LIG    1       24.633 -28.298   6.112  0.00  0.00    -0.309 N 
ATOM     16  H   LIG    1       24.011 -28.065   5.346  0.00  0.00    +0.152 HD
ATOM     17  C   LIG    1       24.766 -29.522   6.752  0.00  0.00    +0.043 A 
ATOM     18  C   LIG    1       24.290 -30.755   6.361  0.00  0.00    +0.026 A 
ATOM     19  C   LIG    1       24.609 -31.867   7.153  0.00  0.00    +0.031 A 
ATOM     20  C   LIG    1       25.412 -31.721   8.306  0.00  0.00    +0.118 A 
ATOM     21  C   LIG    1       25.905 -30.476   8.704  0.00  0.00    +0.043 A 
ATOM     22  C   LIG    1       25.569 -29.407   7.899  0.00  0.00    +0.047 A 
ENDROOT
BRANCH  11  23
ATOM     23  S   LIG    1       24.635 -20.122   4.382  0.00  0.00    +0.110 S 
ATOM     24  O   LIG    1       25.829 -19.324   4.228  0.00  0.00    -0.142 OA
ATOM     25  O   LIG    1       23.415 -19.579   4.937  0.00  0.00    -0.142 OA
BRANCH  23  26
ATOM     26  O   LIG    1       24.224 -20.680   2.926  0.00  0.00    -0.250 OA
ATOM     27  H   LIG    1       23.355 -20.287   2.693  0.00  0.00    +0.245 HD
ENDBRANCH  23  26
ENDBRANCH  11  23
BRANCH  20  28
ATOM     28  S   LIG    1       25.785 -33.147   9.291  0.00  0.00    +0.110 S 
ATOM     29  O   LIG    1       26.898 -33.825   8.669  0.00  0.00    -0.142 OA
ATOM     30  O   LIG    1       24.544 -33.825   9.594  0.00  0.00    -0.142 OA
BRANCH  28  31
ATOM     31  O   LIG    1       26.293 -32.550  10.700  0.00  0.00    -0.250 OA
ATOM     32  H   LIG    1       25.721 -32.924  11.403  0.00  0.00    +0.245 HD
ENDBRANCH  28  31
ENDBRANCH  20  28
TORSDOF 4
ENDMDL
MODEL 2
REMARK VINA RESULT:      -6.8      0.059      9.844
REMARK  Name = *****
REMARK                            x       y       z     vdW  Elec       q    Type
REMARK                         _______ _______ _______ _____ _____    ______ ____
ROOT
ATOM      1  O   LIG    1       24.018 -25.795   4.624  0.00  0.00    -0.285 OA
ATOM      2  C   LIG    1       24.707 -25.294   5.490  0.00  0.00    +0.211 C 
ATOM      3  C   LIG    1       25.402 -25.977   6.644  0.00  0.00    +0.104 C 
ATOM      4  C   LIG    1       25.295 -27.296   6.818  0.00  0.00    +0.104 C 
ATOM      5  C   LIG    1       25.941 -27.973   8.003  0.00  0.00    +0.211 C 
ATOM      6  O   LIG    1       26.597 -27.470   8.892  0.00  0.00    -0.285 OA
ATOM      7  C   LIG    1       25.565 -29.394   7.869  0.00  0.00    +0.047 A 
ATOM      8  C   LIG    1       24.765 -29.494   6.718  0.00  0.00    +0.043 A 
ATOM      9  C   LIG    1       24.278 -30.720   6.316  0.00  0.00    +0.026 A 
ATOM     10  C   LIG    1       24.585 -31.840   7.100  0.00  0.00    +0.031 A 
ATOM     11  C   LIG    1       25.387 -31.710   8.257  0.00  0.00    +0.118 A 
ATOM     12  C   LIG    1       25.890 -30.472   8.666  0.00  0.00    +0.043 A 
ATOM     13  N   LIG    1       24.642 -28.265   6.088  0.00  0.00    -0.309 N 
ATOM     14  H   LIG    1       24.029 -28.022   5.318  0.00  0.00    +0.152 HD
ATOM     15  N   LIG    1       26.059 -25.006   7.369  0.00  0.00    -0.309 N 
ATOM     16  H   LIG    1       26.483 -25.214   8.265  0.00  0.00    +0.152 HD
ATOM     17  C   LIG    1       25.806 -23.757   6.821  0.00  0.00    +0.043 A 
ATOM     18  C   LIG    1       26.278 -22.527   7.227  0.00  0.00    +0.026 A 
ATOM     19  C   LIG    1       25.927 -21.402   6.468  0.00  0.00    +0.031 A 
ATOM     20  C   LIG    1       25.128 -21.537   5.311  0.00  0.00    +0.118 A 
ATOM     21  C   LIG    1       24.652 -22.781   4.889  0.00  0.00    +0.043 A 
ATOM     22  C   LIG    1       25.020 -23.863   5.662  0.00  0.00    +0.047 A 
ENDROOT
BRANCH  11  23
ATOM     23  S   LIG    1       25.747 -33.148   9.226  0.00  0.00    +0.110 S 
ATOM     24  O   LIG    1       26.861 -33.825   8.604  0.00  0.00    -0.142 OA
ATOM     25  O   LIG    1       24.501 -33.825   9.512  0.00  0.00    -0.142 OA
BRANCH  23  26
ATOM     26  O   LIG    1       26.249 -32.573  10.647  0.00  0.00    -0.250 OA
ATOM     27  H   LIG    1       26.885 -33.221  11.021  0.00  0.00    +0.245 HD
ENDBRANCH  23  26
ENDBRANCH  11  23
BRANCH  20  28
ATOM     28  S   LIG    1       24.693 -20.092   4.381  0.00  0.00    +0.110 S 
ATOM     29  O   LIG    1       25.877 -19.273   4.271  0.00  0.00    -0.142 OA
ATOM     30  O   LIG    1       23.447 -19.575   4.905  0.00  0.00    -0.142 OA
BRANCH  28  31
ATOM     31  O   LIG    1       24.332 -20.643   2.910  0.00  0.00    -0.250 OA
ATOM     32  H   LIG    1       23.379 -20.872   2.904  0.00  0.00    +0.245 HD
ENDBRANCH  28  31
ENDBRANCH  20  28
TORSDOF 4
ENDMDL
MODEL 3
REMARK VINA RESULT:      -4.9      7.855      9.866
REMARK  Name = *****
REMARK                            x       y       z     vdW  Elec       q    Type
REMARK                         _______ _______ _______ _____ _____    ______ ____
ROOT
ATOM      1  O   LIG    1       23.237 -30.267  10.163  0.00  0.00    -0.285 OA
ATOM      2  C   LIG    1       22.834 -30.473  11.290  0.00  0.00    +0.211 C 
ATOM      3  C   LIG    1       23.616 -30.458  12.582  0.00  0.00    +0.104 C 
ATOM      4  C   LIG    1       24.926 -30.203  12.581  0.00  0.00    +0.104 C 
ATOM      5  C   LIG    1       25.722 -30.245  13.863  0.00  0.00    +0.211 C 
ATOM      6  O   LIG    1       25.329 -30.490  14.985  0.00  0.00    -0.285 OA
ATOM      7  C   LIG    1       27.109 -29.958  13.448  0.00  0.00    +0.047 A 
ATOM      8  C   LIG    1       27.088 -29.789  12.054  0.00  0.00    +0.043 A 
ATOM      9  C   LIG    1       28.248 -29.482  11.374  0.00  0.00    +0.026 A 
ATOM     10  C   LIG    1       29.434 -29.371  12.113  0.00  0.00    +0.031 A 
ATOM     11  C   LIG    1       29.428 -29.552  13.514  0.00  0.00    +0.118 A 
ATOM     12  C   LIG    1       28.255 -29.857  14.210  0.00  0.00    +0.043 A 
ATOM     13  N   LIG    1       25.798 -29.899  11.557  0.00  0.00    -0.309 N 
ATOM     14  H   LIG    1       25.508 -29.944  10.587  0.00  0.00    +0.152 HD
ATOM     15  N   LIG    1       22.741 -30.758  13.603  0.00  0.00    -0.309 N 
ATOM     16  H   LIG    1       23.071 -30.937  14.545  0.00  0.00    +0.152 HD
ATOM     17  C   LIG    1       21.481 -31.018  13.084  0.00  0.00    +0.043 A 
ATOM     18  C   LIG    1       20.322 -31.339  13.756  0.00  0.00    +0.026 A 
ATOM     19  C   LIG    1       19.146 -31.498  13.007  0.00  0.00    +0.031 A 
ATOM     20  C   LIG    1       19.157 -31.313  11.607  0.00  0.00    +0.118 A 
ATOM     21  C   LIG    1       20.326 -30.979  10.919  0.00  0.00    +0.043 A 
ATOM     22  C   LIG    1       21.461 -30.832  11.691  0.00  0.00    +0.047 A 
ENDROOT
BRANCH  11  23
ATOM     23  S   LIG    1       30.949 -29.413  14.411  0.00  0.00    +0.110 S 
ATOM     24  O   LIG    1       31.420 -30.751  14.681  0.00  0.00    -0.142 OA
ATOM     25  O   LIG    1       30.767 -28.436  15.463  0.00  0.00    -0.142 OA
BRANCH  23  26
ATOM     26  O   LIG    1       31.978 -28.727  13.375  0.00  0.00    -0.250 OA
ATOM     27  H   LIG    1       31.894 -29.197  12.519  0.00  0.00    +0.245 HD
ENDBRANCH  23  26
ENDBRANCH  11  23
BRANCH  20  28
ATOM     28  S   LIG    1       17.656 -31.534  10.690  0.00  0.00    +0.110 S 
ATOM     29  O   LIG    1       16.559 -31.186  11.562  0.00  0.00    -0.142 OA
ATOM     30  O   LIG    1       17.724 -32.810  10.011  0.00  0.00    -0.142 OA
BRANCH  28  31
ATOM     31  O   LIG    1       17.726 -30.430   9.517  0.00  0.00    -0.250 OA
ATOM     32  H   LIG    1       16.854 -30.418   9.069  0.00  0.00    +0.245 HD
ENDBRANCH  28  31
ENDBRANCH  20  28
TORSDOF 4
ENDMDL
MODEL 4
REMARK VINA RESULT:      -4.4      8.318     10.030
REMARK  Name = *****
REMARK                            x       y       z     vdW  Elec       q    Type
REMARK                         _______ _______ _______ _____ _____    ______ ____
ROOT
ATOM      1  O   LIG    1       23.624 -29.703  15.500  0.00  0.00    -0.285 OA
ATOM      2  C   LIG    1       23.480 -29.909  14.311  0.00  0.00    +0.211 C 
ATOM      3  C   LIG    1       24.546 -30.030  13.248  0.00  0.00    +0.104 C 
ATOM      4  C   LIG    1       25.836 -29.900  13.560  0.00  0.00    +0.104 C 
ATOM      5  C   LIG    1       26.900 -29.962  12.490  0.00  0.00    +0.211 C 
ATOM      6  O   LIG    1       26.757 -30.128  11.296  0.00  0.00    -0.285 OA
ATOM      7  C   LIG    1       28.167 -29.735  13.212  0.00  0.00    +0.047 A 
ATOM      8  C   LIG    1       27.834 -29.545  14.564  0.00  0.00    +0.043 A 
ATOM      9  C   LIG    1       28.825 -29.334  15.499  0.00  0.00    +0.026 A 
ATOM     10  C   LIG    1       30.153 -29.291  15.054  0.00  0.00    +0.031 A 
ATOM     11  C   LIG    1       30.460 -29.479  13.687  0.00  0.00    +0.118 A 
ATOM     12  C   LIG    1       29.461 -29.700  12.735  0.00  0.00    +0.043 A 
ATOM     13  N   LIG    1       26.469 -29.679  14.765  0.00  0.00    -0.309 N 
ATOM     14  H   LIG    1       25.943 -29.474  15.606  0.00  0.00    +0.152 HD
ATOM     15  N   LIG    1       23.911 -30.255  12.045  0.00  0.00    -0.309 N 
ATOM     16  H   LIG    1       24.420 -30.235  11.169  0.00  0.00    +0.152 HD
ATOM     17  C   LIG    1       22.536 -30.236  12.227  0.00  0.00    +0.043 A 
ATOM     18  C   LIG    1       21.541 -30.432  11.293  0.00  0.00    +0.026 A 
ATOM     19  C   LIG    1       20.210 -30.425  11.735  0.00  0.00    +0.031 A 
ATOM     20  C   LIG    1       19.909 -30.239  13.104  0.00  0.00    +0.118 A 
ATOM     21  C   LIG    1       20.912 -30.048  14.056  0.00  0.00    +0.043 A 
ATOM     22  C   LIG    1       22.208 -30.062  13.582  0.00  0.00    +0.047 A 
ENDROOT
BRANCH  11  23
ATOM     23  S   LIG    1       32.150 -29.409  13.162  0.00  0.00    +0.110 S 
ATOM     24  O   LIG    1       32.662 -30.760  13.162  0.00  0.00    -0.142 OA
ATOM     25  O   LIG    1       32.804 -28.340  13.884  0.00  0.00    -0.142 OA
BRANCH  23  26
ATOM     26  O   LIG    1       32.086 -28.905  11.631  0.00  0.00    -0.250 OA
ATOM     27  H   LIG    1       31.200 -28.511  11.485  0.00  0.00    +0.245 HD
ENDBRANCH  23  26
ENDBRANCH  11  23
BRANCH  20  28
ATOM     28  S   LIG    1       18.215 -30.224  13.625  0.00  0.00    +0.110 S 
ATOM     29  O   LIG    1       17.923 -28.897  14.115  0.00  0.00    -0.142 OA
ATOM     30  O   LIG    1       17.977 -31.407  14.423  0.00  0.00    -0.142 OA
BRANCH  28  31
ATOM     31  O   LIG    1       17.367 -30.452  12.273  0.00  0.00    -0.250 OA
ATOM     32  H   LIG    1       17.349 -31.415  12.094  0.00  0.00    +0.245 HD
ENDBRANCH  28  31
ENDBRANCH  20  28
TORSDOF 4
ENDMDL
MODEL 5
REMARK VINA RESULT:      -4.2      8.786      9.872
REMARK  Name = *****
REMARK                            x       y       z     vdW  Elec       q    Type
REMARK                         _______ _______ _______ _____ _____    ______ ____
ROOT
ATOM      1  O   LIG    1       22.091 -29.381  14.114  0.00  0.00    -0.285 OA
ATOM      2  C   LIG    1       22.348 -30.168  13.225  0.00  0.00    +0.211 C 
ATOM      3  C   LIG    1       23.705 -30.636  12.754  0.00  0.00    +0.104 C 
ATOM      4  C   LIG    1       24.819 -30.175  13.323  0.00  0.00    +0.104 C 
ATOM      5  C   LIG    1       26.178 -30.597  12.816  0.00  0.00    +0.211 C 
ATOM      6  O   LIG    1       26.438 -31.352  11.902  0.00  0.00    -0.285 OA
ATOM      7  C   LIG    1       27.136 -29.853  13.658  0.00  0.00    +0.047 A 
ATOM      8  C   LIG    1       26.374 -29.072  14.543  0.00  0.00    +0.043 A 
ATOM      9  C   LIG    1       27.001 -28.278  15.481  0.00  0.00    +0.026 A 
ATOM     10  C   LIG    1       28.402 -28.261  15.500  0.00  0.00    +0.031 A 
ATOM     11  C   LIG    1       29.143 -29.051  14.593  0.00  0.00    +0.118 A 
ATOM     12  C   LIG    1       28.515 -29.864  13.644  0.00  0.00    +0.043 A 
ATOM     13  N   LIG    1       25.018 -29.294  14.365  0.00  0.00    -0.309 N 
ATOM     14  H   LIG    1       24.246 -28.781  14.776  0.00  0.00    +0.152 HD
ATOM     15  N   LIG    1       23.503 -31.520  11.716  0.00  0.00    -0.309 N 
ATOM     16  H   LIG    1       24.276 -31.860  11.155  0.00  0.00    +0.152 HD
ATOM     17  C   LIG    1       22.147 -31.622  11.440  0.00  0.00    +0.043 A 
ATOM     18  C   LIG    1       21.517 -32.403  10.494  0.00  0.00    +0.026 A 
ATOM     19  C   LIG    1       20.116 -32.380  10.447  0.00  0.00    +0.031 A 
ATOM     20  C   LIG    1       19.379 -31.589  11.358  0.00  0.00    +0.118 A 
ATOM     21  C   LIG    1       20.011 -30.802  12.323  0.00  0.00    +0.043 A 
ATOM     22  C   LIG    1       21.389 -30.853  12.338  0.00  0.00    +0.047 A 
ENDROOT
BRANCH  11  23
ATOM     23  S   LIG    1       30.913 -28.996  14.642  0.00  0.00    +0.110 S 
ATOM     24  O   LIG    1       31.371 -30.227  15.242  0.00  0.00    -0.142 OA
ATOM     25  O   LIG    1       31.311 -27.700  15.147  0.00  0.00    -0.142 OA
BRANCH  23  26
ATOM     26  O   LIG    1       31.369 -29.001  13.094  0.00  0.00    -0.250 OA
ATOM     27  H   LIG    1       30.932 -28.241  12.654  0.00  0.00    +0.245 HD
ENDBRANCH  23  26
ENDBRANCH  11  23
BRANCH  20  28
ATOM     28  S   LIG    1       17.610 -31.574  11.261  0.00  0.00    +0.110 S 
ATOM     29  O   LIG    1       17.117 -30.841  12.403  0.00  0.00    -0.142 OA
ATOM     30  O   LIG    1       17.162 -32.916  10.957  0.00  0.00    -0.142 OA
BRANCH  28  31
ATOM     31  O   LIG    1       17.278 -30.712   9.939  0.00  0.00    -0.250 OA
ATOM     32  H   LIG    1       17.523 -29.781  10.123  0.00  0.00    +0.245 HD
ENDBRANCH  28  31
ENDBRANCH  20  28
TORSDOF 4
ENDMDL
