MODEL 1
REMARK VINA RESULT:      -3.7      0.000      0.000
REMARK  Name = *****
REMARK                            x       y       z     vdW  Elec       q    Type
REMARK                         _______ _______ _______ _____ _____    ______ ____
ROOT
ATOM      1  C   LIG    1       27.746 -14.142   4.511  0.00  0.00    +0.015 C 
ATOM      2  C   LIG    1       26.300 -13.694   4.742  0.00  0.00    +0.112 C 
ATOM      3  N   LIG    1       25.523 -14.542   3.873  0.00  0.00    -0.290 N 
ATOM      4  C   LIG    1       26.213 -15.686   3.487  0.00  0.00    +0.216 C 
ATOM      5  O   LIG    1       25.789 -16.599   2.809  0.00  0.00    -0.276 OA
ATOM      6  C   LIG    1       27.586 -15.625   4.139  0.00  0.00    +0.101 C 
ENDROOT
BRANCH   1   7
ATOM      7  C   LIG    1       28.450 -13.346   3.395  0.00  0.00    +0.005 C 
BRANCH   7   9
ATOM      8  C   LIG    1       29.055 -11.867   5.359  0.00  0.00    +0.004 C 
ATOM      9  C   LIG    1       29.420 -12.292   3.946  0.00  0.00    -0.003 C 
ENDBRANCH   7   9
ENDBRANCH   1   7
BRANCH   3  10
ATOM     10  C   LIG    1       24.114 -14.308   3.564  0.00  0.00    +0.161 C 
BRANCH  10  11
ATOM     11  C   LIG    1       23.924 -12.842   3.126  0.00  0.00    +0.231 C 
ATOM     12  O   LIG    1       23.620 -11.929   3.887  0.00  0.00    -0.274 OA
ATOM     13  N   LIG    1       24.200 -12.578   1.814  0.00  0.00    -0.328 N 
ATOM     14  H   LIG    1       24.151 -11.611   1.517  0.00  0.00    +0.145 HD
ATOM     15  H   LIG    1       24.703 -13.238   1.235  0.00  0.00    +0.145 HD
ENDBRANCH  10  11
BRANCH  10  16
ATOM     16  C   LIG    1       23.187 -14.620   4.748  0.00  0.00    +0.028 C 
ATOM     17  C   LIG    1       22.613 -16.029   4.709  0.00  0.00    +0.006 C 
ENDBRANCH  10  16
ENDBRANCH   3  10
TORSDOF 5
ENDMDL
MODEL 2
REMARK VINA RESULT:      -3.6      2.136      4.741
REMARK  Name = *****
REMARK                            x       y       z     vdW  Elec       q    Type
REMARK                         _______ _______ _______ _____ _____    ______ ____
ROOT
ATOM      1  C   LIG    1       23.854 -13.123   3.785  0.00  0.00    +0.015 C 
ATOM      2  C   LIG    1       24.981 -13.226   4.816  0.00  0.00    +0.112 C 
ATOM      3  N   LIG    1       26.134 -13.621   4.043  0.00  0.00    -0.290 N 
ATOM      4  C   LIG    1       25.979 -13.362   2.686  0.00  0.00    +0.216 C 
ATOM      5  O   LIG    1       26.803 -13.537   1.813  0.00  0.00    -0.276 OA
ATOM      6  C   LIG    1       24.603 -12.739   2.499  0.00  0.00    +0.101 C 
ENDROOT
BRANCH   1   7
ATOM      7  C   LIG    1       23.071 -14.440   3.618  0.00  0.00    +0.005 C 
BRANCH   7   9
ATOM      8  C   LIG    1       22.299 -16.588   4.714  0.00  0.00    +0.004 C 
ATOM      9  C   LIG    1       23.073 -15.292   4.894  0.00  0.00    -0.003 C 
ENDBRANCH   7   9
ENDBRANCH   1   7
BRANCH   3  10
ATOM     10  C   LIG    1       27.383 -14.090   4.638  0.00  0.00    +0.161 C 
BRANCH  10  11
ATOM     11  C   LIG    1       28.482 -13.030   4.419  0.00  0.00    +0.231 C 
ATOM     12  O   LIG    1       28.722 -12.115   5.201  0.00  0.00    -0.274 OA
ATOM     13  N   LIG    1       29.263 -13.210   3.314  0.00  0.00    -0.328 N 
ATOM     14  H   LIG    1       30.036 -12.569   3.184  0.00  0.00    +0.145 HD
ATOM     15  H   LIG    1       29.269 -14.085   2.806  0.00  0.00    +0.145 HD
ENDBRANCH  10  11
BRANCH  10  16
ATOM     16  C   LIG    1       27.843 -15.439   4.067  0.00  0.00    +0.028 C 
ATOM     17  C   LIG    1       26.690 -16.354   3.679  0.00  0.00    +0.006 C 
ENDBRANCH  10  16
ENDBRANCH   3  10
TORSDOF 5
ENDMDL
MODEL 3
REMARK VINA RESULT:      -3.5      1.883      3.344
REMARK  Name = *****
REMARK                            x       y       z     vdW  Elec       q    Type
REMARK                         _______ _______ _______ _____ _____    ______ ____
ROOT
ATOM      1  C   LIG    1       27.265 -15.341   3.121  0.00  0.00    +0.015 C 
ATOM      2  C   LIG    1       25.955 -14.786   2.555  0.00  0.00    +0.112 C 
ATOM      3  N   LIG    1       25.340 -14.116   3.676  0.00  0.00    -0.290 N 
ATOM      4  C   LIG    1       26.250 -13.823   4.685  0.00  0.00    +0.216 C 
ATOM      5  O   LIG    1       26.028 -13.217   5.713  0.00  0.00    -0.276 OA
ATOM      6  C   LIG    1       27.609 -14.335   4.231  0.00  0.00    +0.101 C 
ENDROOT
BRANCH   1   7
ATOM      7  C   LIG    1       27.122 -16.773   3.672  0.00  0.00    +0.005 C 
BRANCH   7   9
ATOM      8  C   LIG    1       25.751 -18.902   3.640  0.00  0.00    +0.004 C 
ATOM      9  C   LIG    1       25.794 -17.428   3.271  0.00  0.00    -0.003 C 
ENDBRANCH   7   9
ENDBRANCH   1   7
BRANCH   3  10
ATOM     10  C   LIG    1       23.954 -13.654   3.680  0.00  0.00    +0.161 C 
BRANCH  10  11
ATOM     11  C   LIG    1       23.929 -12.113   3.639  0.00  0.00    +0.231 C 
ATOM     12  O   LIG    1       24.096 -11.447   2.621  0.00  0.00    -0.274 OA
ATOM     13  N   LIG    1       23.618 -11.497   4.817  0.00  0.00    -0.328 N 
ATOM     14  H   LIG    1       23.526 -10.489   4.802  0.00  0.00    +0.145 HD
ATOM     15  H   LIG    1       23.217 -12.008   5.593  0.00  0.00    +0.145 HD
ENDBRANCH  10  11
BRANCH  10  16
ATOM     16  C   LIG    1       23.166 -14.154   4.899  0.00  0.00    +0.028 C 
ATOM     17  C   LIG    1       22.799 -15.628   4.817  0.00  0.00    +0.006 C 
ENDBRANCH  10  16
ENDBRANCH   3  10
TORSDOF 5
ENDMDL
MODEL 4
REMARK VINA RESULT:      -3.3      1.518      5.399
REMARK  Name = *****
REMARK                            x       y       z     vdW  Elec       q    Type
REMARK                         _______ _______ _______ _____ _____    ______ ____
ROOT
ATOM      1  C   LIG    1       23.470 -14.329   4.581  0.00  0.00    +0.015 C 
ATOM      2  C   LIG    1       24.919 -14.697   4.916  0.00  0.00    +0.112 C 
ATOM      3  N   LIG    1       25.647 -14.403   3.706  0.00  0.00    -0.290 N 
ATOM      4  C   LIG    1       24.956 -13.539   2.864  0.00  0.00    +0.216 C 
ATOM      5  O   LIG    1       25.348 -13.078   1.812  0.00  0.00    -0.276 OA
ATOM      6  C   LIG    1       23.635 -13.208   3.543  0.00  0.00    +0.101 C 
ENDROOT
BRANCH   1   7
ATOM      7  C   LIG    1       22.665 -15.516   4.018  0.00  0.00    +0.005 C 
BRANCH   7   9
ATOM      8  C   LIG    1       22.203 -17.944   4.569  0.00  0.00    +0.004 C 
ATOM      9  C   LIG    1       22.261 -16.522   5.103  0.00  0.00    -0.003 C 
ENDBRANCH   7   9
ENDBRANCH   1   7
BRANCH   3  10
ATOM     10  C   LIG    1       27.022 -14.834   3.466  0.00  0.00    +0.161 C 
BRANCH  10  11
ATOM     11  C   LIG    1       27.115 -16.363   3.636  0.00  0.00    +0.231 C 
ATOM     12  O   LIG    1       26.373 -17.166   3.077  0.00  0.00    -0.274 OA
ATOM     13  N   LIG    1       28.155 -16.810   4.401  0.00  0.00    -0.328 N 
ATOM     14  H   LIG    1       28.280 -17.812   4.472  0.00  0.00    +0.145 HD
ATOM     15  H   LIG    1       28.928 -16.206   4.649  0.00  0.00    +0.145 HD
ENDBRANCH  10  11
BRANCH  10  16
ATOM     16  C   LIG    1       28.031 -14.146   4.398  0.00  0.00    +0.028 C 
ATOM     17  C   LIG    1       28.911 -13.128   3.687  0.00  0.00    +0.006 C 
ENDBRANCH  10  16
ENDBRANCH   3  10
TORSDOF 5
ENDMDL
MODEL 5
REMARK VINA RESULT:      -3.2      5.917      6.980
REMARK  Name = *****
REMARK                            x       y       z     vdW  Elec       q    Type
REMARK                         _______ _______ _______ _____ _____    ______ ____
ROOT
ATOM      1  C   LIG    1       25.184 -21.348   6.512  0.00  0.00    +0.015 C 
ATOM      2  C   LIG    1       23.746 -20.831   6.618  0.00  0.00    +0.112 C 
ATOM      3  N   LIG    1       23.518 -20.156   5.364  0.00  0.00    -0.290 N 
ATOM      4  C   LIG    1       24.418 -20.545   4.378  0.00  0.00    +0.216 C 
ATOM      5  O   LIG    1       24.428 -20.187   3.219  0.00  0.00    -0.276 OA
ATOM      6  C   LIG    1       25.353 -21.571   5.001  0.00  0.00    +0.101 C 
ENDROOT
BRANCH   1   7
ATOM      7  C   LIG    1       26.222 -20.350   7.061  0.00  0.00    +0.005 C 
BRANCH   7   9
ATOM      8  C   LIG    1       28.684 -20.695   6.583  0.00  0.00    +0.004 C 
ATOM      9  C   LIG    1       27.377 -20.103   6.082  0.00  0.00    -0.003 C 
ENDBRANCH   7   9
ENDBRANCH   1   7
BRANCH   3  10
ATOM     10  C   LIG    1       22.372 -19.286   5.111  0.00  0.00    +0.161 C 
BRANCH  10  11
ATOM     11  C   LIG    1       21.250 -20.101   4.436  0.00  0.00    +0.231 C 
ATOM     12  O   LIG    1       20.367 -19.611   3.738  0.00  0.00    -0.274 OA
ATOM     13  N   LIG    1       21.333 -21.456   4.586  0.00  0.00    -0.328 N 
ATOM     14  H   LIG    1       20.649 -22.018   4.095  0.00  0.00    +0.145 HD
ATOM     15  H   LIG    1       22.178 -21.901   4.919  0.00  0.00    +0.145 HD
ENDBRANCH  10  11
BRANCH  10  16
ATOM     16  C   LIG    1       22.728 -18.073   4.240  0.00  0.00    +0.028 C 
ATOM     17  C   LIG    1       22.300 -16.746   4.850  0.00  0.00    +0.006 C 
ENDBRANCH  10  16
ENDBRANCH   3  10
TORSDOF 5
ENDMDL
MODEL 6
REMARK VINA RESULT:      -2.9      2.298      4.081
REMARK  Name = *****
REMARK                            x       y       z     vdW  Elec       q    Type
REMARK                         _______ _______ _______ _____ _____    ______ ____
ROOT
ATOM      1  C   LIG    1       26.818 -16.024   3.209  0.00  0.00    +0.015 C 
ATOM      2  C   LIG    1       26.340 -14.741   2.522  0.00  0.00    +0.112 C 
ATOM      3  N   LIG    1       26.208 -13.790   3.600  0.00  0.00    -0.290 N 
ATOM      4  C   LIG    1       26.922 -14.166   4.732  0.00  0.00    +0.216 C 
ATOM      5  O   LIG    1       27.039 -13.535   5.761  0.00  0.00    -0.276 OA
ATOM      6  C   LIG    1       27.603 -15.489   4.417  0.00  0.00    +0.101 C 
ENDROOT
BRANCH   1   7
ATOM      7  C   LIG    1       25.658 -16.941   3.641  0.00  0.00    +0.005 C 
BRANCH   7   9
ATOM      8  C   LIG    1       24.717 -19.292   3.631  0.00  0.00    +0.004 C 
ATOM      9  C   LIG    1       25.914 -18.415   3.301  0.00  0.00    -0.003 C 
ENDBRANCH   7   9
ENDBRANCH   1   7
BRANCH   3  10
ATOM     10  C   LIG    1       25.535 -12.501   3.461  0.00  0.00    +0.161 C 
BRANCH  10  11
ATOM     11  C   LIG    1       24.224 -12.520   4.273  0.00  0.00    +0.231 C 
ATOM     12  O   LIG    1       23.739 -11.535   4.822  0.00  0.00    -0.274 OA
ATOM     13  N   LIG    1       23.555 -13.710   4.286  0.00  0.00    -0.328 N 
ATOM     14  H   LIG    1       22.657 -13.731   4.753  0.00  0.00    +0.145 HD
ATOM     15  H   LIG    1       23.780 -14.452   3.635  0.00  0.00    +0.145 HD
ENDBRANCH  10  11
BRANCH  10  16
ATOM     16  C   LIG    1       25.234 -12.142   1.999  0.00  0.00    +0.028 C 
ATOM     17  C   LIG    1       23.893 -11.447   1.812  0.00  0.00    +0.006 C 
ENDBRANCH  10  16
ENDBRANCH   3  10
TORSDOF 5
ENDMDL
MODEL 7
REMARK VINA RESULT:      -2.9      5.680      6.514
REMARK  Name = *****
REMARK                            x       y       z     vdW  Elec       q    Type
REMARK                         _______ _______ _______ _____ _____    ______ ____
ROOT
ATOM      1  C   LIG    1       26.629 -20.689   5.217  0.00  0.00    +0.015 C 
ATOM      2  C   LIG    1       25.290 -21.425   5.112  0.00  0.00    +0.112 C 
ATOM      3  N   LIG    1       24.369 -20.418   4.644  0.00  0.00    -0.290 N 
ATOM      4  C   LIG    1       25.015 -19.335   4.058  0.00  0.00    +0.216 C 
ATOM      5  O   LIG    1       24.495 -18.375   3.530  0.00  0.00    -0.276 OA
ATOM      6  C   LIG    1       26.510 -19.610   4.130  0.00  0.00    +0.101 C 
ENDROOT
BRANCH   1   7
ATOM      7  C   LIG    1       26.869 -20.074   6.609  0.00  0.00    +0.005 C 
BRANCH   7   9
ATOM      8  C   LIG    1       29.230 -19.200   6.336  0.00  0.00    +0.004 C 
ATOM      9  C   LIG    1       28.331 -20.190   7.060  0.00  0.00    -0.003 C 
ENDBRANCH   7   9
ENDBRANCH   1   7
BRANCH   3  10
ATOM     10  C   LIG    1       22.918 -20.590   4.639  0.00  0.00    +0.161 C 
BRANCH  10  11
ATOM     11  C   LIG    1       22.240 -19.220   4.839  0.00  0.00    +0.231 C 
ATOM     12  O   LIG    1       22.411 -18.503   5.821  0.00  0.00    -0.274 OA
ATOM     13  N   LIG    1       21.474 -18.782   3.796  0.00  0.00    -0.328 N 
ATOM     14  H   LIG    1       21.074 -17.856   3.873  0.00  0.00    +0.145 HD
ATOM     15  H   LIG    1       21.528 -19.213   2.882  0.00  0.00    +0.145 HD
ENDBRANCH  10  11
BRANCH  10  16
ATOM     16  C   LIG    1       22.433 -21.571   5.716  0.00  0.00    +0.028 C 
ATOM     17  C   LIG    1       23.124 -21.381   7.059  0.00  0.00    +0.006 C 
ENDBRANCH  10  16
ENDBRANCH   3  10
TORSDOF 5
ENDMDL
MODEL 8
REMARK VINA RESULT:      -2.8      5.248      6.635
REMARK  Name = *****
REMARK                            x       y       z     vdW  Elec       q    Type
REMARK                         _______ _______ _______ _____ _____    ______ ____
ROOT
ATOM      1  C   LIG    1       26.538 -20.788   5.278  0.00  0.00    +0.015 C 
ATOM      2  C   LIG    1       25.052 -21.060   5.528  0.00  0.00    +0.112 C 
ATOM      3  N   LIG    1       24.386 -19.889   5.012  0.00  0.00    -0.290 N 
ATOM      4  C   LIG    1       25.183 -19.168   4.130  0.00  0.00    +0.216 C 
ATOM      5  O   LIG    1       24.866 -18.178   3.504  0.00  0.00    -0.276 OA
ATOM      6  C   LIG    1       26.515 -19.896   4.027  0.00  0.00    +0.101 C 
ENDROOT
BRANCH   1   7
ATOM      7  C   LIG    1       27.229 -20.090   6.465  0.00  0.00    +0.005 C 
BRANCH   7   9
ATOM      8  C   LIG    1       29.352 -18.741   6.177  0.00  0.00    +0.004 C 
ATOM      9  C   LIG    1       28.759 -20.129   6.362  0.00  0.00    -0.003 C 
ENDBRANCH   7   9
ENDBRANCH   1   7
BRANCH   3  10
ATOM     10  C   LIG    1       22.979 -19.583   5.262  0.00  0.00    +0.161 C 
BRANCH  10  11
ATOM     11  C   LIG    1       22.199 -20.897   5.461  0.00  0.00    +0.231 C 
ATOM     12  O   LIG    1       22.232 -21.571   6.487  0.00  0.00    -0.274 OA
ATOM     13  N   LIG    1       21.369 -21.252   4.436  0.00  0.00    -0.328 N 
ATOM     14  H   LIG    1       20.793 -22.074   4.570  0.00  0.00    +0.145 HD
ATOM     15  H   LIG    1       21.116 -20.597   3.708  0.00  0.00    +0.145 HD
ENDBRANCH  10  11
BRANCH  10  16
ATOM     16  C   LIG    1       22.339 -18.766   4.130  0.00  0.00    +0.028 C 
ATOM     17  C   LIG    1       21.938 -17.361   4.555  0.00  0.00    +0.006 C 
ENDBRANCH  10  16
ENDBRANCH   3  10
TORSDOF 5
ENDMDL
MODEL 9
REMARK VINA RESULT:      -2.7      4.790      6.313
REMARK  Name = *****
REMARK                            x       y       z     vdW  Elec       q    Type
REMARK                         _______ _______ _______ _____ _____    ______ ____
ROOT
ATOM      1  C   LIG    1       24.042 -21.094   6.157  0.00  0.00    +0.015 C 
ATOM      2  C   LIG    1       22.901 -20.160   5.741  0.00  0.00    +0.112 C 
ATOM      3  N   LIG    1       23.321 -19.635   4.464  0.00  0.00    -0.290 N 
ATOM      4  C   LIG    1       24.306 -20.412   3.866  0.00  0.00    +0.216 C 
ATOM      5  O   LIG    1       24.802 -20.243   2.772  0.00  0.00    -0.276 OA
ATOM      6  C   LIG    1       24.598 -21.572   4.807  0.00  0.00    +0.101 C 
ENDROOT
BRANCH   1   7
ATOM      7  C   LIG    1       25.119 -20.386   7.001  0.00  0.00    +0.005 C 
BRANCH   7   9
ATOM      8  C   LIG    1       27.529 -20.129   6.266  0.00  0.00    +0.004 C 
ATOM      9  C   LIG    1       26.494 -21.056   6.883  0.00  0.00    -0.003 C 
ENDBRANCH   7   9
ENDBRANCH   1   7
BRANCH   3  10
ATOM     10  C   LIG    1       22.671 -18.506   3.802  0.00  0.00    +0.161 C 
BRANCH  10  11
ATOM     11  C   LIG    1       23.460 -17.216   4.099  0.00  0.00    +0.231 C 
ATOM     12  O   LIG    1       24.608 -17.006   3.719  0.00  0.00    -0.274 OA
ATOM     13  N   LIG    1       22.769 -16.241   4.761  0.00  0.00    -0.328 N 
ATOM     14  H   LIG    1       23.241 -15.357   4.907  0.00  0.00    +0.145 HD
ATOM     15  H   LIG    1       21.761 -16.272   4.848  0.00  0.00    +0.145 HD
ENDBRANCH  10  11
BRANCH  10  16
ATOM     16  C   LIG    1       21.207 -18.329   4.231  0.00  0.00    +0.028 C 
ATOM     17  C   LIG    1       20.218 -18.504   3.087  0.00  0.00    +0.006 C 
ENDBRANCH  10  16
ENDBRANCH   3  10
TORSDOF 5
ENDMDL
