MODEL 1
REMARK VINA RESULT:      29.8      0.000      0.000
REMARK  Name = *****
REMARK                            x       y       z     vdW  Elec       q    Type
REMARK                         _______ _______ _______ _____ _____    ______ ____
ROOT
ATOM      1  C   LIG    1       23.738 -31.555  10.325  0.00  0.00    +0.186 C 
ATOM      2  O   LIG    1       22.059 -31.726  10.248  0.00  0.00    -0.459 OA
ATOM      3  C   LIG    1       20.736 -31.817  10.300  0.00  0.00    +0.328 C 
ATOM      4  O   LIG    1       20.078 -31.882   9.270  0.00  0.00    -0.249 OA
ATOM      5  C   LIG    1       20.101 -31.784  11.692  0.00  0.00    +0.185 C 
ATOM      6  N   LIG    1       19.762 -30.401  12.065  0.00  0.00    -0.281 N 
ATOM      7  C   LIG    1       18.909 -30.252  13.242  0.00  0.00    +0.109 C 
ATOM      8  C   LIG    1       17.700 -31.182  13.266  0.00  0.00    +0.019 C 
ATOM      9  C   LIG    1       18.088 -32.622  12.956  0.00  0.00    +0.004 C 
ATOM     10  C   LIG    1       20.788 -29.439  12.029  0.00  0.00    +0.288 C 
ATOM     11  O   LIG    1       20.618 -28.226  12.064  0.00  0.00    -0.267 OA
ATOM     12  C   LIG    1       22.207 -29.958  12.142  0.00  0.00    +0.276 C 
ATOM     13  O   LIG    1       22.479 -30.638  13.127  0.00  0.00    -0.281 OA
ATOM     14  C   LIG    1       23.198 -29.553  11.027  0.00  0.00    +0.240 C 
ATOM     15  O   LIG    1       22.626 -29.847   9.376  0.00  0.00    -0.339 OA
ATOM     16  C   LIG    1       23.275 -31.069   8.188  0.00  0.00    +0.125 C 
ATOM     17  C   LIG    1       25.086 -31.719   8.474  0.00  0.00    +0.032 C 
ATOM     18  C   LIG    1       25.865 -31.444  10.250  0.00  0.00    +0.011 C 
ATOM     19  C   LIG    1       22.598 -30.700   6.830  0.00  0.00    +0.067 C 
ATOM     20  C   LIG    1       23.369 -30.337   5.565  0.00  0.00    +0.146 C 
ATOM     21  C   LIG    1       24.419 -29.308   5.842  0.00  0.00    -0.044 C 
ATOM     22  C   LIG    1       25.852 -29.697   5.541  0.00  0.00    +0.041 C 
ATOM     23  C   LIG    1       24.182 -28.080   6.344  0.00  0.00    +0.001 C 
ATOM     24  C   LIG    1       22.983 -27.267   6.500  0.00  0.00    +0.000 C 
ATOM     25  C   LIG    1       23.112 -26.072   7.113  0.00  0.00    -0.000 C 
ATOM     26  C   LIG    1       22.375 -24.872   6.762  0.00  0.00    -0.004 C 
ATOM     27  C   LIG    1       22.928 -23.661   6.983  0.00  0.00    -0.024 C 
ATOM     28  C   LIG    1       22.494 -22.380   6.305  0.00  0.00    +0.009 C 
ATOM     29  C   LIG    1       22.372 -21.245   7.327  0.00  0.00    +0.012 C 
ATOM     30  C   LIG    1       23.436 -21.917   5.150  0.00  0.00    +0.018 C 
ATOM     31  C   LIG    1       24.254 -23.024   4.440  0.00  0.00    +0.056 C 
ATOM     32  C   LIG    1       24.730 -22.536   3.070  0.00  0.00    +0.015 C 
ATOM     33  C   LIG    1       25.475 -23.428   5.275  0.00  0.00    +0.167 C 
ATOM     34  O   LIG    1       26.015 -22.582   6.004  0.00  0.00    -0.294 OA
ATOM     35  C   LIG    1       26.113 -24.845   5.123  0.00  0.00    +0.216 C 
ATOM     36  C   LIG    1       26.819 -25.178   6.519  0.00  0.00    +0.176 C 
ATOM     37  C   LIG    1       27.565 -26.505   6.643  0.00  0.00    -0.045 C 
ATOM     38  C   LIG    1       28.620 -26.725   5.576  0.00  0.00    +0.041 C 
ATOM     39  C   LIG    1       27.456 -27.445   7.618  0.00  0.00    -0.015 C 
ATOM     40  C   LIG    1       26.534 -27.647   8.840  0.00  0.00    +0.075 C 
ATOM     41  C   LIG    1       27.236 -26.918   9.986  0.00  0.00    +0.019 C 
ATOM     42  C   LIG    1       26.360 -29.241   9.080  0.00  0.00    +0.143 C 
ATOM     43  O   LIG    1       27.342 -29.942   8.805  0.00  0.00    -0.297 OA
ATOM     44  C   LIG    1       24.951 -30.237  11.489  0.00  0.00    +0.054 C 
ATOM     45  C   LIG    1       25.860 -29.156  12.071  0.00  0.00    +0.013 C 
ATOM     46  C   LIG    1       18.844 -32.671  11.639  0.00  0.00    +0.034 C 
ATOM     47  C   LIG    1       24.719 -29.891   9.440  0.00  0.00    +0.119 C 
ENDROOT
BRANCH   1  48
ATOM     48  C   LIG    1       24.043 -32.948  11.512  0.00  0.00    +0.027 C 
ATOM     49  C   LIG    1       22.784 -33.825  11.733  0.00  0.00    +0.011 C 
BRANCH  48  50
ATOM     50  C   LIG    1       24.836 -32.892  12.882  0.00  0.00    +0.010 C 
BRANCH  50  55
ATOM     51  C   LIG    1       26.996 -30.928  14.475  0.00  0.00    +0.147 C 
ATOM     52  C   LIG    1       27.482 -31.979  15.500  0.00  0.00    +0.143 C 
ATOM     53  C   LIG    1       26.842 -33.354  15.290  0.00  0.00    +0.034 C 
ATOM     54  C   LIG    1       27.028 -33.825  13.851  0.00  0.00    +0.006 C 
ATOM     55  C   LIG    1       26.400 -32.850  12.832  0.00  0.00    -0.008 C 
ATOM     56  C   LIG    1       27.034 -31.461  13.030  0.00  0.00    +0.037 C 
BRANCH  51  58
ATOM     57  C   LIG    1       25.619 -29.128  15.224  0.00  0.00    +0.194 C 
ATOM     58  O   LIG    1       25.668 -30.461  14.730  0.00  0.00    -0.377 OA
ENDBRANCH  51  58
BRANCH  52  59
ATOM     59  O   LIG    1       28.907 -32.085  15.396  0.00  0.00    -0.389 OA
ATOM     60  H   LIG    1       29.140 -32.176  14.456  0.00  0.00    +0.210 HD
ENDBRANCH  52  59
ENDBRANCH  50  55
ENDBRANCH  48  50
ENDBRANCH   1  48
BRANCH  14  61
ATOM     61  O   LIG    1       23.263 -28.103  11.170  0.00  0.00    -0.358 OA
ATOM     62  H   LIG    1       23.086 -27.895  12.111  0.00  0.00    +0.213 HD
ENDBRANCH  14  61
BRANCH  20  63
ATOM     63  O   LIG    1       23.982 -31.472   4.947  0.00  0.00    -0.375 OA
ATOM     64  C   LIG    1       23.381 -32.724   5.226  0.00  0.00    +0.194 C 
ENDBRANCH  20  63
BRANCH  35  65
ATOM     65  O   LIG    1       25.244 -25.921   4.833  0.00  0.00    -0.369 OA
ATOM     66  C   LIG    1       25.595 -26.868   3.845  0.00  0.00    +0.195 C 
ENDBRANCH  35  65
BRANCH  36  67
ATOM     67  O   LIG    1       27.825 -24.196   6.823  0.00  0.00    -0.385 OA
ATOM     68  H   LIG    1       28.399 -24.591   7.514  0.00  0.00    +0.210 HD
ENDBRANCH  36  67
TORSDOF 9
ENDMDL
MODEL 2
REMARK VINA RESULT:      31.6      2.802      9.747
REMARK  Name = *****
REMARK                            x       y       z     vdW  Elec       q    Type
REMARK                         _______ _______ _______ _____ _____    ______ ____
ROOT
ATOM      1  C   LIG    1       26.609 -25.762   7.129  0.00  0.00    +0.186 C 
ATOM      2  O   LIG    1       26.092 -24.415   8.007  0.00  0.00    -0.459 OA
ATOM      3  C   LIG    1       25.622 -23.325   8.601  0.00  0.00    +0.328 C 
ATOM      4  O   LIG    1       25.626 -23.233   9.822  0.00  0.00    -0.249 OA
ATOM      5  C   LIG    1       25.043 -22.244   7.687  0.00  0.00    +0.185 C 
ATOM      6  N   LIG    1       23.598 -22.452   7.502  0.00  0.00    -0.281 N 
ATOM      7  C   LIG    1       22.872 -21.347   6.880  0.00  0.00    +0.109 C 
ATOM      8  C   LIG    1       23.200 -19.974   7.456  0.00  0.00    +0.019 C 
ATOM      9  C   LIG    1       24.703 -19.749   7.563  0.00  0.00    +0.004 C 
ATOM     10  C   LIG    1       23.169 -23.704   7.025  0.00  0.00    +0.288 C 
ATOM     11  O   LIG    1       22.014 -24.112   7.057  0.00  0.00    -0.267 OA
ATOM     12  C   LIG    1       24.185 -24.517   6.250  0.00  0.00    +0.276 C 
ATOM     13  O   LIG    1       24.695 -23.989   5.266  0.00  0.00    -0.281 OA
ATOM     14  C   LIG    1       24.463 -25.956   6.743  0.00  0.00    +0.240 C 
ATOM     15  O   LIG    1       24.836 -26.095   8.470  0.00  0.00    -0.339 OA
ATOM     16  C   LIG    1       26.434 -26.555   9.217  0.00  0.00    +0.125 C 
ATOM     17  C   LIG    1       27.692 -27.537   8.104  0.00  0.00    +0.032 C 
ATOM     18  C   LIG    1       27.394 -27.495   6.168  0.00  0.00    +0.011 C 
ATOM     19  C   LIG    1       26.114 -26.789  10.727  0.00  0.00    +0.067 C 
ATOM     20  C   LIG    1       26.370 -28.103  11.458  0.00  0.00    +0.146 C 
ATOM     21  C   LIG    1       25.826 -29.268  10.693  0.00  0.00    -0.044 C 
ATOM     22  C   LIG    1       26.819 -30.332  10.273  0.00  0.00    +0.041 C 
ATOM     23  C   LIG    1       24.534 -29.429  10.349  0.00  0.00    +0.001 C 
ATOM     24  C   LIG    1       23.288 -28.803  10.778  0.00  0.00    +0.000 C 
ATOM     25  C   LIG    1       22.151 -29.185  10.159  0.00  0.00    -0.000 C 
ATOM     26  C   LIG    1       20.857 -29.315  10.804  0.00  0.00    -0.004 C 
ATOM     27  C   LIG    1       19.960 -30.203  10.325  0.00  0.00    -0.024 C 
ATOM     28  C   LIG    1       18.786 -30.748  11.109  0.00  0.00    +0.009 C 
ATOM     29  C   LIG    1       17.514 -30.730  10.254  0.00  0.00    +0.012 C 
ATOM     30  C   LIG    1       19.001 -32.192  11.659  0.00  0.00    +0.018 C 
ATOM     31  C   LIG    1       20.467 -32.628  11.905  0.00  0.00    +0.056 C 
ATOM     32  C   LIG    1       20.513 -33.816  12.867  0.00  0.00    +0.015 C 
ATOM     33  C   LIG    1       21.150 -33.027  10.591  0.00  0.00    +0.167 C 
ATOM     34  O   LIG    1       20.466 -33.516   9.679  0.00  0.00    -0.294 OA
ATOM     35  C   LIG    1       22.701 -32.938  10.438  0.00  0.00    +0.216 C 
ATOM     36  C   LIG    1       22.993 -32.728   8.880  0.00  0.00    +0.176 C 
ATOM     37  C   LIG    1       24.451 -32.644   8.433  0.00  0.00    -0.045 C 
ATOM     38  C   LIG    1       25.300 -33.824   8.863  0.00  0.00    +0.041 C 
ATOM     39  C   LIG    1       25.038 -31.705   7.645  0.00  0.00    -0.015 C 
ATOM     40  C   LIG    1       24.587 -30.366   7.022  0.00  0.00    +0.075 C 
ATOM     41  C   LIG    1       23.986 -30.746   5.669  0.00  0.00    +0.019 C 
ATOM     42  C   LIG    1       25.882 -29.397   6.920  0.00  0.00    +0.143 C 
ATOM     43  O   LIG    1       26.963 -29.957   6.698  0.00  0.00    -0.297 OA
ATOM     44  C   LIG    1       25.690 -26.801   5.504  0.00  0.00    +0.054 C 
ATOM     45  C   LIG    1       24.978 -27.748   4.539  0.00  0.00    +0.013 C 
ATOM     46  C   LIG    1       25.330 -20.886   8.353  0.00  0.00    +0.034 C 
ATOM     47  C   LIG    1       25.715 -27.670   7.406  0.00  0.00    +0.119 C 
ENDROOT
BRANCH   1  48
ATOM     48  C   LIG    1       27.724 -24.845   5.963  0.00  0.00    +0.027 C 
ATOM     49  C   LIG    1       28.617 -25.796   5.126  0.00  0.00    +0.011 C 
BRANCH  48  50
ATOM     50  C   LIG    1       28.562 -23.534   6.259  0.00  0.00    +0.010 C 
BRANCH  50  55
ATOM     51  C   LIG    1       29.716 -21.070   8.171  0.00  0.00    +0.147 C 
ATOM     52  C   LIG    1       29.705 -19.971   7.084  0.00  0.00    +0.143 C 
ATOM     53  C   LIG    1       29.153 -20.465   5.744  0.00  0.00    +0.034 C 
ATOM     54  C   LIG    1       27.781 -21.107   5.927  0.00  0.00    +0.006 C 
ATOM     55  C   LIG    1       27.823 -22.310   6.894  0.00  0.00    -0.008 C 
ATOM     56  C   LIG    1       28.377 -21.828   8.248  0.00  0.00    +0.037 C 
BRANCH  51  58
ATOM     57  C   LIG    1       31.502 -22.302   9.166  0.00  0.00    +0.194 C 
ATOM     58  O   LIG    1       30.752 -22.038   7.986  0.00  0.00    -0.377 OA
ENDBRANCH  51  58
BRANCH  52  59
ATOM     59  O   LIG    1       28.916 -18.873   7.560  0.00  0.00    -0.389 OA
ATOM     60  H   LIG    1       29.493 -18.279   8.069  0.00  0.00    +0.210 HD
ENDBRANCH  52  59
ENDBRANCH  50  55
ENDBRANCH  48  50
ENDBRANCH   1  48
BRANCH  14  61
ATOM     61  O   LIG    1       23.171 -26.608   6.564  0.00  0.00    -0.358 OA
ATOM     62  H   LIG    1       22.943 -27.042   7.413  0.00  0.00    +0.213 HD
ENDBRANCH  14  61
BRANCH  20  63
ATOM     63  O   LIG    1       27.758 -28.326  11.721  0.00  0.00    -0.375 OA
ATOM     64  C   LIG    1       28.093 -28.599  13.070  0.00  0.00    +0.194 C 
ENDBRANCH  20  63
BRANCH  35  65
ATOM     65  O   LIG    1       23.363 -31.898  11.127  0.00  0.00    -0.369 OA
ATOM     66  C   LIG    1       24.032 -32.167  12.342  0.00  0.00    +0.195 C 
ENDBRANCH  35  65
BRANCH  36  67
ATOM     67  O   LIG    1       22.468 -33.825   8.114  0.00  0.00    -0.385 OA
ATOM     68  H   LIG    1       22.938 -33.813   7.253  0.00  0.00    +0.210 HD
ENDBRANCH  36  67
TORSDOF 9
ENDMDL
