MODEL 1
REMARK VINA RESULT:      -8.6      0.000      0.000
REMARK  Name = *****
REMARK                            x       y       z     vdW  Elec       q    Type
REMARK                         _______ _______ _______ _____ _____    ______ ____
ROOT
ATOM      1  C   LIG    1       30.198 -17.660   8.999  0.00  0.00    +0.170 A 
ATOM      2  S   LIG    1       30.676 -19.194   9.620  0.00  0.00    -0.056 S 
ATOM      3  C   LIG    1       30.003 -20.007   8.300  0.00  0.00    -0.001 A 
ATOM      4  C   LIG    1       30.001 -21.481   8.100  0.00  0.00    +0.058 C 
ATOM      5  C   LIG    1       28.728 -21.916   7.303  0.00  0.00    +0.091 C 
ATOM      6  N   LIG    1       27.952 -20.899   6.545  0.00  0.00    -0.285 NA
ATOM      7  C   LIG    1       28.736 -19.710   6.186  0.00  0.00    +0.121 C 
ATOM      8  C   LIG    1       29.406 -19.163   7.399  0.00  0.00    -0.019 A 
ATOM      9  C   LIG    1       29.497 -17.809   7.820  0.00  0.00    +0.059 A 
ENDROOT
BRANCH   1  10
ATOM     10  O   LIG    1       30.524 -16.564   9.690  0.00  0.00    -0.419 OA
BRANCH  10  12
ATOM     11  C   LIG    1       32.234 -16.163  11.203  0.00  0.00    +0.136 C 
ATOM     12  C   LIG    1       31.817 -16.189   9.787  0.00  0.00    +0.310 C 
ATOM     13  O   LIG    1       32.597 -15.938   8.880  0.00  0.00    -0.251 OA
ENDBRANCH  10  12
ENDBRANCH   1  10
BRANCH   6  14
ATOM     14  C   LIG    1       26.564 -20.656   7.049  0.00  0.00    +0.157 C 
BRANCH  14  15
ATOM     15  C   LIG    1       25.485 -20.355   6.008  0.00  0.00    +0.012 A 
ATOM     16  C   LIG    1       24.140 -20.280   6.406  0.00  0.00    +0.129 A 
ATOM     17  F   LIG    1       23.799 -20.521   7.680  0.00  0.00    -0.205 F 
ATOM     18  C   LIG    1       23.110 -19.984   5.513  0.00  0.00    +0.039 A 
ATOM     19  C   LIG    1       23.401 -19.793   4.169  0.00  0.00    +0.003 A 
ATOM     20  C   LIG    1       24.722 -19.877   3.736  0.00  0.00    +0.001 A 
ATOM     21  C   LIG    1       25.757 -20.144   4.647  0.00  0.00    +0.008 A 
ENDBRANCH  14  15
BRANCH  14  22
ATOM     22  C   LIG    1       26.155 -21.762   8.072  0.00  0.00    +0.158 C 
ATOM     23  O   LIG    1       25.903 -21.564   9.270  0.00  0.00    -0.295 OA
BRANCH  22  24
ATOM     24  C   LIG    1       25.988 -23.153   7.522  0.00  0.00    +0.057 C 
ATOM     25  C   LIG    1       24.628 -23.745   7.208  0.00  0.00    +0.012 C 
ATOM     26  C   LIG    1       25.533 -23.328   6.088  0.00  0.00    +0.012 C 
ENDBRANCH  22  24
ENDBRANCH  14  22
ENDBRANCH   6  14
TORSDOF 6
ENDMDL
MODEL 2
REMARK VINA RESULT:      -7.7      2.562      3.685
REMARK  Name = *****
REMARK                            x       y       z     vdW  Elec       q    Type
REMARK                         _______ _______ _______ _____ _____    ______ ____
ROOT
ATOM      1  C   LIG    1       28.793 -20.855   6.950  0.00  0.00    +0.170 A 
ATOM      2  S   LIG    1       27.822 -19.647   7.703  0.00  0.00    -0.056 S 
ATOM      3  C   LIG    1       26.614 -20.765   8.081  0.00  0.00    -0.001 A 
ATOM      4  C   LIG    1       25.338 -20.458   8.784  0.00  0.00    +0.058 C 
ATOM      5  C   LIG    1       24.209 -21.422   8.299  0.00  0.00    +0.091 C 
ATOM      6  N   LIG    1       24.569 -22.676   7.584  0.00  0.00    -0.285 NA
ATOM      7  C   LIG    1       25.932 -23.142   7.867  0.00  0.00    +0.121 C 
ATOM      8  C   LIG    1       26.901 -22.032   7.645  0.00  0.00    -0.019 A 
ATOM      9  C   LIG    1       28.149 -22.076   6.966  0.00  0.00    +0.059 A 
ENDROOT
BRANCH   1  10
ATOM     10  O   LIG    1       29.979 -20.499   6.450  0.00  0.00    -0.419 OA
BRANCH  10  12
ATOM     11  C   LIG    1       31.352 -19.028   7.600  0.00  0.00    +0.136 C 
ATOM     12  C   LIG    1       30.374 -19.210   6.509  0.00  0.00    +0.310 C 
ATOM     13  O   LIG    1       30.048 -18.289   5.775  0.00  0.00    -0.251 OA
ENDBRANCH  10  12
ENDBRANCH   1  10
BRANCH   6  14
ATOM     14  C   LIG    1       24.123 -22.741   6.158  0.00  0.00    +0.157 C 
BRANCH  14  15
ATOM     15  C   LIG    1       24.230 -21.458   5.333  0.00  0.00    +0.012 A 
ATOM     16  C   LIG    1       23.064 -20.745   5.006  0.00  0.00    +0.129 A 
ATOM     17  F   LIG    1       21.863 -21.213   5.373  0.00  0.00    -0.205 F 
ATOM     18  C   LIG    1       23.093 -19.555   4.279  0.00  0.00    +0.039 A 
ATOM     19  C   LIG    1       24.305 -19.062   3.816  0.00  0.00    +0.003 A 
ATOM     20  C   LIG    1       25.480 -19.753   4.107  0.00  0.00    +0.001 A 
ATOM     21  C   LIG    1       25.446 -20.933   4.866  0.00  0.00    +0.008 A 
ENDBRANCH  14  15
BRANCH  14  22
ATOM     22  C   LIG    1       24.736 -23.990   5.452  0.00  0.00    +0.158 C 
ATOM     23  O   LIG    1       25.013 -24.061   4.244  0.00  0.00    -0.295 OA
BRANCH  22  24
ATOM     24  C   LIG    1       25.077 -25.159   6.337  0.00  0.00    +0.057 C 
ATOM     25  C   LIG    1       24.483 -26.538   6.127  0.00  0.00    +0.012 C 
ATOM     26  C   LIG    1       25.918 -26.287   5.775  0.00  0.00    +0.012 C 
ENDBRANCH  22  24
ENDBRANCH  14  22
ENDBRANCH   6  14
TORSDOF 6
ENDMDL
MODEL 3
REMARK VINA RESULT:      -7.6      2.567      4.528
REMARK  Name = *****
REMARK                            x       y       z     vdW  Elec       q    Type
REMARK                         _______ _______ _______ _____ _____    ______ ____
ROOT
ATOM      1  C   LIG    1       29.449 -20.566   7.597  0.00  0.00    +0.170 A 
ATOM      2  S   LIG    1       28.262 -19.330   7.780  0.00  0.00    -0.056 S 
ATOM      3  C   LIG    1       27.054 -20.456   8.133  0.00  0.00    -0.001 A 
ATOM      4  C   LIG    1       25.630 -20.137   8.423  0.00  0.00    +0.058 C 
ATOM      5  C   LIG    1       24.707 -21.304   7.944  0.00  0.00    +0.091 C 
ATOM      6  N   LIG    1       25.296 -22.641   7.667  0.00  0.00    -0.285 NA
ATOM      7  C   LIG    1       26.566 -22.879   8.365  0.00  0.00    +0.121 C 
ATOM      8  C   LIG    1       27.504 -21.752   8.104  0.00  0.00    -0.019 A 
ATOM      9  C   LIG    1       28.883 -21.813   7.766  0.00  0.00    +0.059 A 
ENDROOT
BRANCH   1  10
ATOM     10  O   LIG    1       30.704 -20.206   7.313  0.00  0.00    -0.419 OA
BRANCH  10  12
ATOM     11  C   LIG    1       31.795 -18.380   8.233  0.00  0.00    +0.136 C 
ATOM     12  C   LIG    1       31.538 -19.832   8.306  0.00  0.00    +0.310 C 
ATOM     13  O   LIG    1       32.010 -20.527   9.192  0.00  0.00    -0.251 OA
ENDBRANCH  10  12
ENDBRANCH   1  10
BRANCH   6  14
ATOM     14  C   LIG    1       25.227 -23.079   6.238  0.00  0.00    +0.157 C 
BRANCH  14  15
ATOM     15  C   LIG    1       25.176 -24.584   5.970  0.00  0.00    +0.012 A 
ATOM     16  C   LIG    1       24.018 -25.308   6.301  0.00  0.00    +0.129 A 
ATOM     17  F   LIG    1       22.984 -24.692   6.892  0.00  0.00    -0.205 F 
ATOM     18  C   LIG    1       23.895 -26.676   6.060  0.00  0.00    +0.039 A 
ATOM     19  C   LIG    1       24.962 -27.375   5.512  0.00  0.00    +0.003 A 
ATOM     20  C   LIG    1       26.132 -26.693   5.187  0.00  0.00    +0.001 A 
ATOM     21  C   LIG    1       26.236 -25.309   5.403  0.00  0.00    +0.008 A 
ENDBRANCH  14  15
BRANCH  14  22
ATOM     22  C   LIG    1       24.135 -22.270   5.472  0.00  0.00    +0.158 C 
ATOM     23  O   LIG    1       22.930 -22.249   5.764  0.00  0.00    -0.295 OA
BRANCH  22  24
ATOM     24  C   LIG    1       24.617 -21.400   4.342  0.00  0.00    +0.057 C 
ATOM     25  C   LIG    1       24.270 -19.927   4.247  0.00  0.00    +0.012 C 
ATOM     26  C   LIG    1       25.661 -20.339   4.624  0.00  0.00    +0.012 C 
ENDBRANCH  22  24
ENDBRANCH  14  22
ENDBRANCH   6  14
TORSDOF 6
ENDMDL
MODEL 4
REMARK VINA RESULT:      -7.6      5.026      8.303
REMARK  Name = *****
REMARK                            x       y       z     vdW  Elec       q    Type
REMARK                         _______ _______ _______ _____ _____    ______ ____
ROOT
ATOM      1  C   LIG    1       25.596 -28.568   8.295  0.00  0.00    +0.170 A 
ATOM      2  S   LIG    1       24.388 -28.752   7.081  0.00  0.00    -0.056 S 
ATOM      3  C   LIG    1       24.941 -27.397   6.237  0.00  0.00    -0.001 A 
ATOM      4  C   LIG    1       24.354 -26.860   4.979  0.00  0.00    +0.058 C 
ATOM      5  C   LIG    1       24.544 -25.311   4.914  0.00  0.00    +0.091 C 
ATOM      6  N   LIG    1       25.543 -24.654   5.798  0.00  0.00    -0.285 NA
ATOM      7  C   LIG    1       26.607 -25.557   6.254  0.00  0.00    +0.121 C 
ATOM      8  C   LIG    1       26.007 -26.785   6.846  0.00  0.00    -0.019 A 
ATOM      9  C   LIG    1       26.365 -27.449   8.050  0.00  0.00    +0.059 A 
ENDROOT
BRANCH   1  10
ATOM     10  O   LIG    1       25.643 -29.462   9.287  0.00  0.00    -0.419 OA
BRANCH  10  12
ATOM     11  C   LIG    1       26.734 -31.439   8.762  0.00  0.00    +0.136 C 
ATOM     12  C   LIG    1       26.775 -30.164   9.506  0.00  0.00    +0.310 C 
ATOM     13  O   LIG    1       27.746 -29.837  10.171  0.00  0.00    -0.251 OA
ENDBRANCH  10  12
ENDBRANCH   1  10
BRANCH   6  14
ATOM     14  C   LIG    1       24.968 -23.728   6.824  0.00  0.00    +0.157 C 
BRANCH  14  15
ATOM     15  C   LIG    1       25.852 -22.572   7.295  0.00  0.00    +0.012 A 
ATOM     16  C   LIG    1       25.384 -21.706   8.297  0.00  0.00    +0.129 A 
ATOM     17  F   LIG    1       24.152 -21.862   8.802  0.00  0.00    -0.205 F 
ATOM     18  C   LIG    1       26.148 -20.648   8.789  0.00  0.00    +0.039 A 
ATOM     19  C   LIG    1       27.405 -20.401   8.253  0.00  0.00    +0.003 A 
ATOM     20  C   LIG    1       27.894 -21.229   7.245  0.00  0.00    +0.001 A 
ATOM     21  C   LIG    1       27.131 -22.311   6.777  0.00  0.00    +0.008 A 
ENDBRANCH  14  15
BRANCH  14  22
ATOM     22  C   LIG    1       23.528 -23.288   6.415  0.00  0.00    +0.158 C 
ATOM     23  O   LIG    1       22.481 -23.820   6.815  0.00  0.00    -0.295 OA
BRANCH  22  24
ATOM     24  C   LIG    1       23.425 -22.079   5.525  0.00  0.00    +0.057 C 
ATOM     25  C   LIG    1       22.093 -21.483   5.113  0.00  0.00    +0.012 C 
ATOM     26  C   LIG    1       22.948 -20.768   6.116  0.00  0.00    +0.012 C 
ENDBRANCH  22  24
ENDBRANCH  14  22
ENDBRANCH   6  14
TORSDOF 6
ENDMDL
MODEL 5
REMARK VINA RESULT:      -6.7      9.177     11.607
REMARK  Name = *****
REMARK                            x       y       z     vdW  Elec       q    Type
REMARK                         _______ _______ _______ _____ _____    ______ ____
ROOT
ATOM      1  C   LIG    1       25.057 -29.803   6.765  0.00  0.00    +0.170 A 
ATOM      2  S   LIG    1       26.028 -31.097   7.358  0.00  0.00    -0.056 S 
ATOM      3  C   LIG    1       25.045 -31.295   8.717  0.00  0.00    -0.001 A 
ATOM      4  C   LIG    1       25.255 -32.293   9.801  0.00  0.00    +0.058 C 
ATOM      5  C   LIG    1       24.722 -31.735  11.159  0.00  0.00    +0.091 C 
ATOM      6  N   LIG    1       23.786 -30.579  11.163  0.00  0.00    -0.285 NA
ATOM      7  C   LIG    1       23.049 -30.416   9.903  0.00  0.00    +0.121 C 
ATOM      8  C   LIG    1       24.003 -30.404   8.759  0.00  0.00    -0.019 A 
ATOM      9  C   LIG    1       24.029 -29.524   7.643  0.00  0.00    +0.059 A 
ENDROOT
BRANCH   1  10
ATOM     10  O   LIG    1       25.392 -29.236   5.603  0.00  0.00    -0.419 OA
BRANCH  10  12
ATOM     11  C   LIG    1       26.492 -27.257   5.106  0.00  0.00    +0.136 C 
ATOM     12  C   LIG    1       25.207 -27.911   5.422  0.00  0.00    +0.310 C 
ATOM     13  O   LIG    1       24.157 -27.288   5.455  0.00  0.00    -0.251 OA
ENDBRANCH  10  12
ENDBRANCH   1  10
BRANCH   6  14
ATOM     14  C   LIG    1       24.324 -29.330  11.788  0.00  0.00    +0.157 C 
BRANCH  14  15
ATOM     15  C   LIG    1       23.339 -28.458  12.567  0.00  0.00    +0.012 A 
ATOM     16  C   LIG    1       23.766 -27.224  13.085  0.00  0.00    +0.129 A 
ATOM     17  F   LIG    1       25.041 -26.837  12.941  0.00  0.00    -0.205 F 
ATOM     18  C   LIG    1       22.913 -26.369  13.783  0.00  0.00    +0.039 A 
ATOM     19  C   LIG    1       21.599 -26.752  14.019  0.00  0.00    +0.003 A 
ATOM     20  C   LIG    1       21.147 -27.977  13.534  0.00  0.00    +0.001 A 
ATOM     21  C   LIG    1       22.003 -28.818  12.805  0.00  0.00    +0.008 A 
ENDBRANCH  14  15
BRANCH  14  22
ATOM     22  C   LIG    1       25.641 -29.635  12.567  0.00  0.00    +0.158 C 
ATOM     23  O   LIG    1       25.722 -30.360  13.571  0.00  0.00    -0.295 OA
BRANCH  22  24
ATOM     24  C   LIG    1       26.907 -29.055  11.997  0.00  0.00    +0.057 C 
ATOM     25  C   LIG    1       27.664 -29.716  10.862  0.00  0.00    +0.012 C 
ATOM     26  C   LIG    1       26.882 -28.464  10.602  0.00  0.00    +0.012 C 
ENDBRANCH  22  24
ENDBRANCH  14  22
ENDBRANCH   6  14
TORSDOF 6
ENDMDL
MODEL 6
REMARK VINA RESULT:      -6.7      8.302     11.632
REMARK  Name = *****
REMARK                            x       y       z     vdW  Elec       q    Type
REMARK                         _______ _______ _______ _____ _____    ______ ____
ROOT
ATOM      1  C   LIG    1       24.802 -28.132   6.705  0.00  0.00    +0.170 A 
ATOM      2  S   LIG    1       26.111 -27.542   7.658  0.00  0.00    -0.056 S 
ATOM      3  C   LIG    1       25.988 -28.834   8.740  0.00  0.00    -0.001 A 
ATOM      4  C   LIG    1       26.840 -29.042   9.942  0.00  0.00    +0.058 C 
ATOM      5  C   LIG    1       26.032 -29.782  11.055  0.00  0.00    +0.091 C 
ATOM      6  N   LIG    1       24.778 -30.499  10.700  0.00  0.00    -0.285 NA
ATOM      7  C   LIG    1       24.704 -30.887   9.285  0.00  0.00    +0.121 C 
ATOM      8  C   LIG    1       24.975 -29.703   8.423  0.00  0.00    -0.019 A 
ATOM      9  C   LIG    1       24.274 -29.279   7.262  0.00  0.00    +0.059 A 
ENDROOT
BRANCH   1  10
ATOM     10  O   LIG    1       24.454 -27.451   5.611  0.00  0.00    -0.419 OA
BRANCH  10  12
ATOM     11  C   LIG    1       25.169 -25.452   4.680  0.00  0.00    +0.136 C 
ATOM     12  C   LIG    1       24.298 -26.111   5.673  0.00  0.00    +0.310 C 
ATOM     13  O   LIG    1       23.537 -25.475   6.387  0.00  0.00    -0.251 OA
ENDBRANCH  10  12
ENDBRANCH   1  10
BRANCH   6  14
ATOM     14  C   LIG    1       23.532 -29.932  11.302  0.00  0.00    +0.157 C 
BRANCH  14  15
ATOM     15  C   LIG    1       22.269 -30.792  11.236  0.00  0.00    +0.012 A 
ATOM     16  C   LIG    1       22.299 -32.108  11.728  0.00  0.00    +0.129 A 
ATOM     17  F   LIG    1       23.441 -32.622  12.207  0.00  0.00    -0.205 F 
ATOM     18  C   LIG    1       21.178 -32.937  11.720  0.00  0.00    +0.039 A 
ATOM     19  C   LIG    1       19.988 -32.477  11.173  0.00  0.00    +0.003 A 
ATOM     20  C   LIG    1       19.926 -31.183  10.660  0.00  0.00    +0.001 A 
ATOM     21  C   LIG    1       21.051 -30.344  10.700  0.00  0.00    +0.008 A 
ENDBRANCH  14  15
BRANCH  14  22
ATOM     22  C   LIG    1       23.825 -29.361  12.725  0.00  0.00    +0.158 C 
ATOM     23  O   LIG    1       24.243 -30.026  13.685  0.00  0.00    -0.295 OA
BRANCH  22  24
ATOM     24  C   LIG    1       23.650 -27.877  12.899  0.00  0.00    +0.057 C 
ATOM     25  C   LIG    1       22.297 -27.243  13.158  0.00  0.00    +0.012 C 
ATOM     26  C   LIG    1       23.298 -27.333  14.269  0.00  0.00    +0.012 C 
ENDBRANCH  22  24
ENDBRANCH  14  22
ENDBRANCH   6  14
TORSDOF 6
ENDMDL
MODEL 7
REMARK VINA RESULT:      -6.7      3.525      7.466
REMARK  Name = *****
REMARK                            x       y       z     vdW  Elec       q    Type
REMARK                         _______ _______ _______ _____ _____    ______ ____
ROOT
ATOM      1  C   LIG    1       25.242 -26.308   5.357  0.00  0.00    +0.170 A 
ATOM      2  S   LIG    1       26.292 -26.237   6.721  0.00  0.00    -0.056 S 
ATOM      3  C   LIG    1       25.574 -24.812   7.277  0.00  0.00    -0.001 A 
ATOM      4  C   LIG    1       25.970 -24.062   8.500  0.00  0.00    +0.058 C 
ATOM      5  C   LIG    1       25.703 -22.535   8.307  0.00  0.00    +0.091 C 
ATOM      6  N   LIG    1       24.797 -22.079   7.219  0.00  0.00    -0.285 NA
ATOM      7  C   LIG    1       23.842 -23.105   6.782  0.00  0.00    +0.121 C 
ATOM      8  C   LIG    1       24.568 -24.365   6.460  0.00  0.00    -0.019 A 
ATOM      9  C   LIG    1       24.398 -25.217   5.336  0.00  0.00    +0.059 A 
ENDROOT
BRANCH   1  10
ATOM     10  O   LIG    1       25.363 -27.338   4.514  0.00  0.00    -0.419 OA
BRANCH  10  12
ATOM     11  C   LIG    1       23.849 -28.753   5.552  0.00  0.00    +0.136 C 
ATOM     12  C   LIG    1       25.194 -28.599   4.964  0.00  0.00    +0.310 C 
ATOM     13  O   LIG    1       25.976 -29.535   4.888  0.00  0.00    -0.251 OA
ENDBRANCH  10  12
ENDBRANCH   1  10
BRANCH   6  14
ATOM     14  C   LIG    1       25.455 -21.276   6.142  0.00  0.00    +0.157 C 
BRANCH  14  15
ATOM     15  C   LIG    1       24.548 -20.431   5.247  0.00  0.00    +0.012 A 
ATOM     16  C   LIG    1       23.338 -19.933   5.759  0.00  0.00    +0.129 A 
ATOM     17  F   LIG    1       22.958 -20.237   7.008  0.00  0.00    -0.205 F 
ATOM     18  C   LIG    1       22.477 -19.135   5.005  0.00  0.00    +0.039 A 
ATOM     19  C   LIG    1       22.790 -18.846   3.683  0.00  0.00    +0.003 A 
ATOM     20  C   LIG    1       23.974 -19.338   3.137  0.00  0.00    +0.001 A 
ATOM     21  C   LIG    1       24.850 -20.113   3.913  0.00  0.00    +0.008 A 
ENDBRANCH  14  15
BRANCH  14  22
ATOM     22  C   LIG    1       26.675 -20.490   6.716  0.00  0.00    +0.158 C 
ATOM     23  O   LIG    1       26.740 -20.014   7.859  0.00  0.00    -0.295 OA
BRANCH  22  24
ATOM     24  C   LIG    1       27.879 -20.378   5.821  0.00  0.00    +0.057 C 
ATOM     25  C   LIG    1       28.461 -19.041   5.405  0.00  0.00    +0.012 C 
ATOM     26  C   LIG    1       29.188 -19.887   6.406  0.00  0.00    +0.012 C 
ENDBRANCH  22  24
ENDBRANCH  14  22
ENDBRANCH   6  14
TORSDOF 6
ENDMDL
MODEL 8
REMARK VINA RESULT:      -6.7      9.361     12.987
REMARK  Name = *****
REMARK                            x       y       z     vdW  Elec       q    Type
REMARK                         _______ _______ _______ _____ _____    ______ ____
ROOT
ATOM      1  C   LIG    1       20.793 -32.301  10.309  0.00  0.00    +0.170 A 
ATOM      2  S   LIG    1       21.935 -33.565  10.049  0.00  0.00    -0.056 S 
ATOM      3  C   LIG    1       23.216 -32.468   9.937  0.00  0.00    -0.001 A 
ATOM      4  C   LIG    1       24.640 -32.821   9.688  0.00  0.00    +0.058 C 
ATOM      5  C   LIG    1       25.352 -31.672   8.905  0.00  0.00    +0.091 C 
ATOM      6  N   LIG    1       24.734 -30.320   8.861  0.00  0.00    -0.285 NA
ATOM      7  C   LIG    1       23.812 -30.059   9.973  0.00  0.00    +0.121 C 
ATOM      8  C   LIG    1       22.817 -31.163  10.072  0.00  0.00    -0.019 A 
ATOM      9  C   LIG    1       21.411 -31.069  10.260  0.00  0.00    +0.059 A 
ENDROOT
BRANCH   1  10
ATOM     10  O   LIG    1       19.513 -32.631  10.502  0.00  0.00    -0.419 OA
BRANCH  10  12
ATOM     11  C   LIG    1       17.863 -31.248   9.643  0.00  0.00    +0.136 C 
ATOM     12  C   LIG    1       18.616 -31.679  10.837  0.00  0.00    +0.310 C 
ATOM     13  O   LIG    1       18.378 -31.227  11.947  0.00  0.00    -0.251 OA
ENDBRANCH  10  12
ENDBRANCH   1  10
BRANCH   6  14
ATOM     14  C   LIG    1       24.288 -29.872   7.504  0.00  0.00    +0.157 C 
BRANCH  14  15
ATOM     15  C   LIG    1       24.851 -28.548   6.986  0.00  0.00    +0.012 A 
ATOM     16  C   LIG    1       24.351 -28.003   5.791  0.00  0.00    +0.129 A 
ATOM     17  F   LIG    1       23.423 -28.664   5.085  0.00  0.00    -0.205 F 
ATOM     18  C   LIG    1       24.802 -26.788   5.276  0.00  0.00    +0.039 A 
ATOM     19  C   LIG    1       25.811 -26.095   5.933  0.00  0.00    +0.003 A 
ATOM     20  C   LIG    1       26.341 -26.615   7.111  0.00  0.00    +0.001 A 
ATOM     21  C   LIG    1       25.860 -27.823   7.640  0.00  0.00    +0.008 A 
ENDBRANCH  14  15
BRANCH  14  22
ATOM     22  C   LIG    1       24.401 -31.043   6.479  0.00  0.00    +0.158 C 
ATOM     23  O   LIG    1       23.502 -31.862   6.234  0.00  0.00    -0.295 OA
BRANCH  22  24
ATOM     24  C   LIG    1       25.678 -31.120   5.688  0.00  0.00    +0.057 C 
ATOM     25  C   LIG    1       26.554 -32.358   5.676  0.00  0.00    +0.012 C 
ATOM     26  C   LIG    1       25.736 -32.015   4.468  0.00  0.00    +0.012 C 
ENDBRANCH  22  24
ENDBRANCH  14  22
ENDBRANCH   6  14
TORSDOF 6
ENDMDL
MODEL 9
REMARK VINA RESULT:      -6.6      7.364     10.576
REMARK  Name = *****
REMARK                            x       y       z     vdW  Elec       q    Type
REMARK                         _______ _______ _______ _____ _____    ______ ____
ROOT
ATOM      1  C   LIG    1       25.940 -26.387   6.171  0.00  0.00    +0.170 A 
ATOM      2  S   LIG    1       26.223 -27.430   4.829  0.00  0.00    -0.056 S 
ATOM      3  C   LIG    1       25.336 -28.682   5.536  0.00  0.00    -0.001 A 
ATOM      4  C   LIG    1       25.112 -30.028   4.942  0.00  0.00    +0.058 C 
ATOM      5  C   LIG    1       24.977 -31.100   6.071  0.00  0.00    +0.091 C 
ATOM      6  N   LIG    1       24.694 -30.668   7.466  0.00  0.00    -0.285 NA
ATOM      7  C   LIG    1       24.052 -29.350   7.553  0.00  0.00    +0.121 C 
ATOM      8  C   LIG    1       24.838 -28.354   6.771  0.00  0.00    -0.019 A 
ATOM      9  C   LIG    1       25.212 -27.036   7.147  0.00  0.00    +0.059 A 
ENDROOT
BRANCH   1  10
ATOM     10  O   LIG    1       26.438 -25.148   6.130  0.00  0.00    -0.419 OA
BRANCH  10  12
ATOM     11  C   LIG    1       25.881 -23.277   7.380  0.00  0.00    +0.136 C 
ATOM     12  C   LIG    1       25.606 -24.086   6.176  0.00  0.00    +0.310 C 
ATOM     13  O   LIG    1       24.761 -23.758   5.357  0.00  0.00    -0.251 OA
ENDBRANCH  10  12
ENDBRANCH   1  10
BRANCH   6  14
ATOM     14  C   LIG    1       25.787 -30.945   8.449  0.00  0.00    +0.157 C 
BRANCH  14  15
ATOM     15  C   LIG    1       25.911 -29.996   9.642  0.00  0.00    +0.012 A 
ATOM     16  C   LIG    1       24.886 -29.951  10.602  0.00  0.00    +0.129 A 
ATOM     17  F   LIG    1       23.784 -30.700  10.446  0.00  0.00    -0.205 F 
ATOM     18  C   LIG    1       24.947 -29.128  11.726  0.00  0.00    +0.039 A 
ATOM     19  C   LIG    1       26.035 -28.283  11.899  0.00  0.00    +0.003 A 
ATOM     20  C   LIG    1       27.062 -28.288  10.958  0.00  0.00    +0.001 A 
ATOM     21  C   LIG    1       27.008 -29.143   9.846  0.00  0.00    +0.008 A 
ENDBRANCH  14  15
BRANCH  14  22
ATOM     22  C   LIG    1       25.793 -32.453   8.847  0.00  0.00    +0.158 C 
ATOM     23  O   LIG    1       24.897 -33.024   9.487  0.00  0.00    -0.295 OA
BRANCH  22  24
ATOM     24  C   LIG    1       26.949 -33.274   8.342  0.00  0.00    +0.057 C 
ATOM     25  C   LIG    1       27.000 -33.824   6.930  0.00  0.00    +0.012 C 
ATOM     26  C   LIG    1       27.883 -32.674   7.310  0.00  0.00    +0.012 C 
ENDBRANCH  22  24
ENDBRANCH  14  22
ENDBRANCH   6  14
TORSDOF 6
ENDMDL
