MODEL 1
REMARK VINA RESULT:      -4.4      0.000      0.000
REMARK  Name = *****
REMARK                            x       y       z     vdW  Elec       q    Type
REMARK                         _______ _______ _______ _____ _____    ______ ____
ROOT
ATOM      1  O   LIG    1       23.103 -21.129   7.062  0.00  0.00    -0.619 OA
ATOM      2  N   LIG    1       23.578 -20.578   6.015  0.00  0.00    -0.165 NA
ATOM      3  C   LIG    1       24.931 -20.665   5.653  0.00  0.00    +0.251 C 
ATOM      4  C   LIG    1       25.379 -20.027   4.482  0.00  0.00    +0.087 C 
ATOM      5  C   LIG    1       24.491 -19.313   3.679  0.00  0.00    +0.013 C 
ATOM      6  C   LIG    1       23.153 -19.225   4.035  0.00  0.00    +0.071 C 
ATOM      7  C   LIG    1       22.716 -19.857   5.196  0.00  0.00    +0.323 C 
ENDROOT
BRANCH   3   8
ATOM      8  S   LIG    1       26.095 -21.571   6.668  0.00  0.00    -0.073 S 
ATOM      9  H   LIG    1       26.306 -20.623   7.590  0.00  0.00    +0.113 HD
ENDBRANCH   3   8
TORSDOF 1
ENDMDL
MODEL 2
REMARK VINA RESULT:      -4.4      1.788      2.308
REMARK  Name = *****
REMARK                            x       y       z     vdW  Elec       q    Type
REMARK                         _______ _______ _______ _____ _____    ______ ____
ROOT
ATOM      1  O   LIG    1       26.331 -20.163   4.690  0.00  0.00    -0.619 OA
ATOM      2  N   LIG    1       25.077 -19.955   4.789  0.00  0.00    -0.165 NA
ATOM      3  C   LIG    1       24.290 -20.507   5.810  0.00  0.00    +0.251 C 
ATOM      4  C   LIG    1       22.911 -20.232   5.851  0.00  0.00    +0.087 C 
ATOM      5  C   LIG    1       22.323 -19.412   4.888  0.00  0.00    +0.013 C 
ATOM      6  C   LIG    1       23.099 -18.863   3.878  0.00  0.00    +0.071 C 
ATOM      7  C   LIG    1       24.463 -19.142   3.842  0.00  0.00    +0.323 C 
ENDROOT
BRANCH   3   8
ATOM      8  S   LIG    1       25.017 -21.568   7.056  0.00  0.00    -0.073 S 
ATOM      9  H   LIG    1       26.302 -21.295   6.798  0.00  0.00    +0.113 HD
ENDBRANCH   3   8
TORSDOF 1
ENDMDL
MODEL 3
REMARK VINA RESULT:      -4.3      2.051      2.584
REMARK  Name = *****
REMARK                            x       y       z     vdW  Elec       q    Type
REMARK                         _______ _______ _______ _____ _____    ______ ____
ROOT
ATOM      1  O   LIG    1       25.702 -19.759   3.823  0.00  0.00    -0.619 OA
ATOM      2  N   LIG    1       24.952 -20.123   4.788  0.00  0.00    -0.165 NA
ATOM      3  C   LIG    1       25.453 -20.495   6.044  0.00  0.00    +0.251 C 
ATOM      4  C   LIG    1       24.561 -20.887   7.059  0.00  0.00    +0.087 C 
ATOM      5  C   LIG    1       23.186 -20.903   6.828  0.00  0.00    +0.013 C 
ATOM      6  C   LIG    1       22.689 -20.534   5.586  0.00  0.00    +0.071 C 
ATOM      7  C   LIG    1       23.577 -20.150   4.585  0.00  0.00    +0.323 C 
ENDROOT
BRANCH   3   8
ATOM      8  S   LIG    1       27.214 -20.489   6.368  0.00  0.00    -0.073 S 
ATOM      9  H   LIG    1       27.176 -19.878   7.559  0.00  0.00    +0.113 HD
ENDBRANCH   3   8
TORSDOF 1
ENDMDL
MODEL 4
REMARK VINA RESULT:      -4.0      1.622      1.934
REMARK  Name = *****
REMARK                            x       y       z     vdW  Elec       q    Type
REMARK                         _______ _______ _______ _____ _____    ______ ____
ROOT
ATOM      1  O   LIG    1       21.972 -19.822   5.004  0.00  0.00    -0.619 OA
ATOM      2  N   LIG    1       23.238 -19.873   4.862  0.00  0.00    -0.165 NA
ATOM      3  C   LIG    1       24.072 -20.625   5.703  0.00  0.00    +0.251 C 
ATOM      4  C   LIG    1       25.461 -20.629   5.482  0.00  0.00    +0.087 C 
ATOM      5  C   LIG    1       26.014 -19.897   4.433  0.00  0.00    +0.013 C 
ATOM      6  C   LIG    1       25.192 -19.153   3.599  0.00  0.00    +0.071 C 
ATOM      7  C   LIG    1       23.819 -19.151   3.825  0.00  0.00    +0.323 C 
ENDROOT
BRANCH   3   8
ATOM      8  S   LIG    1       23.389 -21.571   7.062  0.00  0.00    -0.073 S 
ATOM      9  H   LIG    1       24.546 -21.937   7.627  0.00  0.00    +0.113 HD
ENDBRANCH   3   8
TORSDOF 1
ENDMDL
MODEL 5
REMARK VINA RESULT:      -3.9      7.467      7.951
REMARK  Name = *****
REMARK                            x       y       z     vdW  Elec       q    Type
REMARK                         _______ _______ _______ _____ _____    ______ ____
ROOT
ATOM      1  O   LIG    1       26.131 -14.075   1.812  0.00  0.00    -0.619 OA
ATOM      2  N   LIG    1       26.604 -13.764   2.954  0.00  0.00    -0.165 NA
ATOM      3  C   LIG    1       25.837 -13.779   4.128  0.00  0.00    +0.251 C 
ATOM      4  C   LIG    1       26.432 -13.421   5.352  0.00  0.00    +0.087 C 
ATOM      5  C   LIG    1       27.776 -13.057   5.407  0.00  0.00    +0.013 C 
ATOM      6  C   LIG    1       28.538 -13.042   4.248  0.00  0.00    +0.071 C 
ATOM      7  C   LIG    1       27.942 -13.395   3.040  0.00  0.00    +0.323 C 
ENDROOT
BRANCH   3   8
ATOM      8  S   LIG    1       24.107 -14.238   4.087  0.00  0.00    -0.073 S 
ATOM      9  H   LIG    1       23.950 -14.232   2.757  0.00  0.00    +0.113 HD
ENDBRANCH   3   8
TORSDOF 1
ENDMDL
MODEL 6
REMARK VINA RESULT:      -3.9      2.678      3.599
REMARK  Name = *****
REMARK                            x       y       z     vdW  Elec       q    Type
REMARK                         _______ _______ _______ _____ _____    ______ ____
ROOT
ATOM      1  O   LIG    1       25.291 -19.445   3.763  0.00  0.00    -0.619 OA
ATOM      2  N   LIG    1       24.844 -20.059   4.787  0.00  0.00    -0.165 NA
ATOM      3  C   LIG    1       23.511 -19.960   5.214  0.00  0.00    +0.251 C 
ATOM      4  C   LIG    1       23.093 -20.668   6.356  0.00  0.00    +0.087 C 
ATOM      5  C   LIG    1       23.990 -21.469   7.062  0.00  0.00    +0.013 C 
ATOM      6  C   LIG    1       25.308 -21.569   6.641  0.00  0.00    +0.071 C 
ATOM      7  C   LIG    1       25.716 -20.864   5.512  0.00  0.00    +0.323 C 
ENDROOT
BRANCH   3   8
ATOM      8  S   LIG    1       22.339 -18.935   4.331  0.00  0.00    -0.073 S 
ATOM      9  H   LIG    1       23.194 -18.403   3.448  0.00  0.00    +0.113 HD
ENDBRANCH   3   8
TORSDOF 1
ENDMDL
MODEL 7
REMARK VINA RESULT:      -3.9      2.438      3.183
REMARK  Name = *****
REMARK                            x       y       z     vdW  Elec       q    Type
REMARK                         _______ _______ _______ _____ _____    ______ ____
ROOT
ATOM      1  O   LIG    1       26.703 -20.181   5.615  0.00  0.00    -0.619 OA
ATOM      2  N   LIG    1       25.461 -20.447   5.733  0.00  0.00    -0.165 NA
ATOM      3  C   LIG    1       24.505 -20.066   4.780  0.00  0.00    +0.251 C 
ATOM      4  C   LIG    1       23.152 -20.397   4.983  0.00  0.00    +0.087 C 
ATOM      5  C   LIG    1       22.757 -21.102   6.119  0.00  0.00    +0.013 C 
ATOM      6  C   LIG    1       23.701 -21.480   7.062  0.00  0.00    +0.071 C 
ATOM      7  C   LIG    1       25.038 -21.148   6.857  0.00  0.00    +0.323 C 
ENDROOT
BRANCH   3   8
ATOM      8  S   LIG    1       24.983 -19.155   3.315  0.00  0.00    -0.073 S 
ATOM      9  H   LIG    1       24.093 -18.161   3.422  0.00  0.00    +0.113 HD
ENDBRANCH   3   8
TORSDOF 1
ENDMDL
MODEL 8
REMARK VINA RESULT:      -3.8      2.580      3.429
REMARK  Name = *****
REMARK                            x       y       z     vdW  Elec       q    Type
REMARK                         _______ _______ _______ _____ _____    ______ ____
ROOT
ATOM      1  O   LIG    1       24.600 -19.805   3.345  0.00  0.00    -0.619 OA
ATOM      2  N   LIG    1       25.001 -20.105   4.517  0.00  0.00    -0.165 NA
ATOM      3  C   LIG    1       24.144 -20.590   5.516  0.00  0.00    +0.251 C 
ATOM      4  C   LIG    1       24.663 -20.897   6.788  0.00  0.00    +0.087 C 
ATOM      5  C   LIG    1       26.020 -20.728   7.060  0.00  0.00    +0.013 C 
ATOM      6  C   LIG    1       26.869 -20.249   6.073  0.00  0.00    +0.071 C 
ATOM      7  C   LIG    1       26.349 -19.944   4.818  0.00  0.00    +0.323 C 
ENDROOT
BRANCH   3   8
ATOM      8  S   LIG    1       22.397 -20.812   5.197  0.00  0.00    -0.073 S 
ATOM      9  H   LIG    1       21.970 -19.654   5.714  0.00  0.00    +0.113 HD
ENDBRANCH   3   8
TORSDOF 1
ENDMDL
MODEL 9
REMARK VINA RESULT:      -3.8      7.406      7.721
REMARK  Name = *****
REMARK                            x       y       z     vdW  Elec       q    Type
REMARK                         _______ _______ _______ _____ _____    ______ ____
ROOT
ATOM      1  O   LIG    1       26.799 -14.076   1.812  0.00  0.00    -0.619 OA
ATOM      2  N   LIG    1       25.976 -13.564   2.641  0.00  0.00    -0.165 NA
ATOM      3  C   LIG    1       26.164 -13.610   4.030  0.00  0.00    +0.251 C 
ATOM      4  C   LIG    1       25.210 -13.023   4.881  0.00  0.00    +0.087 C 
ATOM      5  C   LIG    1       24.082 -12.394   4.354  0.00  0.00    +0.013 C 
ATOM      6  C   LIG    1       23.894 -12.347   2.980  0.00  0.00    +0.071 C 
ATOM      7  C   LIG    1       24.842 -12.931   2.144  0.00  0.00    +0.323 C 
ENDROOT
BRANCH   3   8
ATOM      8  S   LIG    1       27.600 -14.416   4.734  0.00  0.00    -0.073 S 
ATOM      9  H   LIG    1       28.149 -14.840   3.589  0.00  0.00    +0.113 HD
ENDBRANCH   3   8
TORSDOF 1
ENDMDL
