MODEL 1
REMARK VINA RESULT:      -1.4      0.000      0.000
REMARK  Name = *****
REMARK                            x       y       z     vdW  Elec       q    Type
REMARK                         _______ _______ _______ _____ _____    ______ ____
ROOT
ATOM      1  C   LIG    1       20.698 -21.460   5.171  0.00  0.00    +0.044 C 
ATOM      2  C   LIG    1       21.928 -20.678   4.802  0.00  0.00    -0.045 A 
ATOM      3  C   LIG    1       21.855 -19.560   3.957  0.00  0.00    -0.045 A 
ATOM      4  C   LIG    1       20.548 -19.094   3.372  0.00  0.00    +0.044 C 
ATOM      5  C   LIG    1       23.026 -18.838   3.665  0.00  0.00    +0.031 A 
ATOM      6  C   LIG    1       24.285 -19.208   4.162  0.00  0.00    +0.069 A 
ATOM      7  C   LIG    1       24.344 -20.345   5.003  0.00  0.00    +0.089 A 
ATOM      8  N   LIG    1       25.544 -20.815   5.572  0.00  0.00    -0.237 NA
ATOM      9  C   LIG    1       26.624 -20.124   5.376  0.00  0.00    +0.171 A 
ATOM     10  C   LIG    1       26.625 -18.833   4.589  0.00  0.00    +0.171 A 
ATOM     11  N   LIG    1       27.684 -18.084   4.638  0.00  0.00    -0.173 NA
ATOM     12  C   LIG    1       28.742 -18.407   5.443  0.00  0.00    +0.350 C 
ATOM     13  O   LIG    1       29.474 -17.558   5.925  0.00  0.00    -0.245 OA
ATOM     14  N   LIG    1       28.964 -19.720   5.741  0.00  0.00    -0.272 N 
ATOM     15  H   LIG    1       29.765 -19.872   6.337  0.00  0.00    +0.173 HD
ATOM     16  C   LIG    1       27.933 -20.577   5.975  0.00  0.00    +0.282 C 
ATOM     17  O   LIG    1       28.030 -21.567   6.683  0.00  0.00    -0.265 OA
ATOM     18  N   LIG    1       25.471 -18.487   3.890  0.00  0.00    -0.320 N 
ATOM     19  C   LIG    1       23.175 -21.051   5.321  0.00  0.00    +0.033 A 
ENDROOT
BRANCH  18  20
ATOM     20  C   LIG    1       25.420 -17.213   3.154  0.00  0.00    +0.158 C 
BRANCH  20  21
ATOM     21  C   LIG    1       25.387 -15.933   4.022  0.00  0.00    +0.165 C 
BRANCH  21  22
ATOM     22  O   LIG    1       26.750 -15.516   4.256  0.00  0.00    -0.387 OA
ATOM     23  H   LIG    1       27.335 -16.279   4.101  0.00  0.00    +0.210 HD
ENDBRANCH  21  22
BRANCH  21  24
ATOM     24  C   LIG    1       24.597 -14.763   3.388  0.00  0.00    +0.175 C 
BRANCH  24  25
ATOM     25  O   LIG    1       24.094 -13.872   4.387  0.00  0.00    -0.387 OA
ATOM     26  H   LIG    1       23.256 -14.271   4.700  0.00  0.00    +0.210 HD
ENDBRANCH  24  25
BRANCH  24  27
ATOM     27  C   LIG    1       25.459 -13.953   2.394  0.00  0.00    +0.172 C 
BRANCH  27  28
ATOM     28  O   LIG    1       26.661 -14.696   2.120  0.00  0.00    -0.387 OA
ATOM     29  H   LIG    1       26.423 -15.634   2.265  0.00  0.00    +0.210 HD
ENDBRANCH  27  28
BRANCH  27  30
ATOM     30  C   LIG    1       25.868 -12.592   2.972  0.00  0.00    +0.206 C 
BRANCH  30  31
ATOM     31  O   LIG    1       27.285 -12.469   2.884  0.00  0.00    -0.284 OA
BRANCH  31  32
ATOM     32  P   LIG    1       28.150 -12.830   4.181  0.00  0.00    +0.472 P 
ATOM     33  O   LIG    1       29.202 -11.842   4.549  0.00  0.00    -0.228 OA
BRANCH  32  34
ATOM     34  O   LIG    1       28.757 -14.284   3.952  0.00  0.00    -0.303 OA
ATOM     35  H   LIG    1       29.732 -14.251   3.949  0.00  0.00    +0.222 HD
ENDBRANCH  32  34
BRANCH  32  36
ATOM     36  O   LIG    1       27.107 -13.042   5.367  0.00  0.00    -0.303 OA
ATOM     37  H   LIG    1       27.574 -13.272   6.191  0.00  0.00    +0.222 HD
ENDBRANCH  32  36
ENDBRANCH  31  32
ENDBRANCH  30  31
ENDBRANCH  27  30
ENDBRANCH  24  27
ENDBRANCH  21  24
ENDBRANCH  20  21
ENDBRANCH  18  20
TORSDOF 12
ENDMDL
MODEL 2
REMARK VINA RESULT:       1.1      1.338      2.123
REMARK  Name = *****
REMARK                            x       y       z     vdW  Elec       q    Type
REMARK                         _______ _______ _______ _____ _____    ______ ____
ROOT
ATOM      1  C   LIG    1       20.173 -19.995   4.471  0.00  0.00    +0.044 C 
ATOM      2  C   LIG    1       21.591 -19.568   4.214  0.00  0.00    -0.045 A 
ATOM      3  C   LIG    1       21.896 -18.583   3.263  0.00  0.00    -0.045 A 
ATOM      4  C   LIG    1       20.822 -17.912   2.448  0.00  0.00    +0.044 C 
ATOM      5  C   LIG    1       23.233 -18.190   3.079  0.00  0.00    +0.031 A 
ATOM      6  C   LIG    1       24.295 -18.768   3.793  0.00  0.00    +0.069 A 
ATOM      7  C   LIG    1       23.973 -19.769   4.740  0.00  0.00    +0.089 A 
ATOM      8  N   LIG    1       24.944 -20.421   5.524  0.00  0.00    -0.237 NA
ATOM      9  C   LIG    1       26.176 -20.025   5.425  0.00  0.00    +0.171 A 
ATOM     10  C   LIG    1       26.586 -18.882   4.524  0.00  0.00    +0.171 A 
ATOM     11  N   LIG    1       27.781 -18.393   4.658  0.00  0.00    -0.173 NA
ATOM     12  C   LIG    1       28.623 -18.841   5.638  0.00  0.00    +0.350 C 
ATOM     13  O   LIG    1       29.475 -18.125   6.139  0.00  0.00    -0.245 OA
ATOM     14  N   LIG    1       28.481 -20.120   6.094  0.00  0.00    -0.272 N 
ATOM     15  H   LIG    1       29.143 -20.370   6.814  0.00  0.00    +0.173 HD
ATOM     16  C   LIG    1       27.252 -20.681   6.254  0.00  0.00    +0.282 C 
ATOM     17  O   LIG    1       27.020 -21.567   7.062  0.00  0.00    -0.265 OA
ATOM     18  N   LIG    1       25.644 -18.377   3.631  0.00  0.00    -0.320 N 
ATOM     19  C   LIG    1       22.638 -20.144   4.948  0.00  0.00    +0.033 A 
ENDROOT
BRANCH  18  20
ATOM     20  C   LIG    1       25.994 -17.232   2.775  0.00  0.00    +0.158 C 
BRANCH  20  21
ATOM     21  C   LIG    1       25.586 -15.839   3.311  0.00  0.00    +0.165 C 
BRANCH  21  22
ATOM     22  O   LIG    1       24.678 -16.032   4.417  0.00  0.00    -0.387 OA
ATOM     23  H   LIG    1       24.489 -16.986   4.495  0.00  0.00    +0.210 HD
ENDBRANCH  21  22
BRANCH  21  24
ATOM     24  C   LIG    1       26.780 -14.970   3.775  0.00  0.00    +0.175 C 
BRANCH  24  25
ATOM     25  O   LIG    1       27.937 -15.770   4.030  0.00  0.00    -0.387 OA
ATOM     26  H   LIG    1       27.769 -16.215   4.887  0.00  0.00    +0.210 HD
ENDBRANCH  24  25
BRANCH  24  27
ATOM     27  C   LIG    1       27.149 -13.889   2.735  0.00  0.00    +0.172 C 
BRANCH  27  28
ATOM     28  O   LIG    1       27.869 -12.837   3.405  0.00  0.00    -0.387 OA
ATOM     29  H   LIG    1       27.286 -12.551   4.136  0.00  0.00    +0.210 HD
ENDBRANCH  27  28
BRANCH  27  30
ATOM     30  C   LIG    1       25.903 -13.270   2.089  0.00  0.00    +0.206 C 
BRANCH  30  31
ATOM     31  O   LIG    1       24.759 -13.660   2.846  0.00  0.00    -0.284 OA
BRANCH  31  32
ATOM     32  P   LIG    1       24.280 -12.695   4.029  0.00  0.00    +0.472 P 
ATOM     33  O   LIG    1       23.572 -11.456   3.603  0.00  0.00    -0.228 OA
BRANCH  32  34
ATOM     34  O   LIG    1       25.560 -12.369   4.919  0.00  0.00    -0.303 OA
ATOM     35  H   LIG    1       25.301 -12.212   5.846  0.00  0.00    +0.222 HD
ENDBRANCH  32  34
BRANCH  32  36
ATOM     36  O   LIG    1       23.372 -13.585   4.990  0.00  0.00    -0.303 OA
ATOM     37  H   LIG    1       23.533 -13.347   5.922  0.00  0.00    +0.222 HD
ENDBRANCH  32  36
ENDBRANCH  31  32
ENDBRANCH  30  31
ENDBRANCH  27  30
ENDBRANCH  24  27
ENDBRANCH  21  24
ENDBRANCH  20  21
ENDBRANCH  18  20
TORSDOF 12
ENDMDL
