MODEL 1
REMARK VINA RESULT:       0.2      0.000      0.000
REMARK  Name = *****
REMARK                            x       y       z     vdW  Elec       q    Type
REMARK                         _______ _______ _______ _____ _____    ______ ____
ROOT
ATOM      1  C   LIG    1       26.837 -17.238   4.115  0.00  0.00    +0.255 A 
ATOM      2  N   LIG    1       28.044 -17.544   4.649  0.00  0.00    -0.194 NA
ATOM      3  C   LIG    1       28.227 -18.771   5.188  0.00  0.00    +0.149 A 
ATOM      4  C   LIG    1       27.154 -19.680   5.198  0.00  0.00    +0.147 A 
ATOM      5  N   LIG    1       27.015 -20.960   5.693  0.00  0.00    -0.231 NA
ATOM      6  C   LIG    1       25.772 -21.298   5.409  0.00  0.00    +0.203 A 
ATOM      7  N   LIG    1       25.100 -20.297   4.748  0.00  0.00    -0.285 N 
ATOM      8  C   LIG    1       25.973 -19.248   4.624  0.00  0.00    +0.170 A 
ATOM      9  N   LIG    1       25.750 -18.047   4.073  0.00  0.00    -0.191 NA
ENDROOT
BRANCH   1  12
ATOM     10  C   LIG    1       25.807 -13.934   3.013  0.00  0.00    +0.075 A 
ATOM     11  C   LIG    1       25.607 -15.053   3.801  0.00  0.00    +0.130 A 
ATOM     12  N   LIG    1       26.658 -15.915   3.579  0.00  0.00    -0.205 N 
ATOM     13  N   LIG    1       27.565 -15.370   2.716  0.00  0.00    -0.172 NA
ATOM     14  C   LIG    1       27.027 -14.205   2.362  0.00  0.00    +0.148 A 
BRANCH  10  18
ATOM     15  C   LIG    1       23.220 -11.448   4.074  0.00  0.00    +0.128 C 
ATOM     16  N   LIG    1       24.145 -12.549   4.018  0.00  0.00    -0.314 N 
ATOM     17  H   LIG    1       24.176 -13.177   4.808  0.00  0.00    +0.149 HD
ATOM     18  C   LIG    1       24.927 -12.782   2.912  0.00  0.00    +0.247 C 
ATOM     19  O   LIG    1       24.893 -12.070   1.906  0.00  0.00    -0.270 OA
ENDBRANCH  10  18
ENDBRANCH   1  12
BRANCH   7  20
ATOM     20  C1* LIG    1       23.722 -20.388   4.283  0.00  0.00    +0.253 C 
ATOM     21  C2* LIG    1       22.679 -20.286   5.395  0.00  0.00    +0.195 C 
ATOM     22  C3* LIG    1       21.505 -19.635   4.680  0.00  0.00    +0.178 C 
ATOM     23  C4* LIG    1       22.161 -18.760   3.616  0.00  0.00    +0.177 C 
ATOM     24  O4* LIG    1       23.449 -19.349   3.319  0.00  0.00    -0.346 OA
BRANCH  21  25
ATOM     25  O2* LIG    1       22.302 -21.569   5.910  0.00  0.00    -0.385 OA
ATOM     26  H2* LIG    1       22.787 -22.217   5.353  0.00  0.00    +0.210 HD
ENDBRANCH  21  25
BRANCH  22  27
ATOM     27  O3* LIG    1       20.734 -20.681   4.055  0.00  0.00    -0.386 OA
ATOM     28  H3* LIG    1       19.878 -20.719   4.523  0.00  0.00    +0.210 HD
ENDBRANCH  22  27
BRANCH  23  29
ATOM     29  C5* LIG    1       22.324 -17.313   4.079  0.00  0.00    +0.190 C 
BRANCH  29  30
ATOM     30  O5* LIG    1       21.971 -17.188   5.447  0.00  0.00    -0.392 OA
ATOM     31  H5* LIG    1       21.530 -18.043   5.656  0.00  0.00    +0.209 HD
ENDBRANCH  29  30
ENDBRANCH  23  29
ENDBRANCH   7  20
BRANCH   3  32
ATOM     32  N   LIG    1       29.475 -19.048   5.729  0.00  0.00    -0.341 N 
ATOM     33  H   LIG    1       29.416 -19.686   6.513  0.00  0.00    +0.144 HD
ATOM     34  H   LIG    1       30.185 -19.233   5.028  0.00  0.00    +0.144 HD
ENDBRANCH   3  32
TORSDOF 8
ENDMDL
MODEL 2
REMARK VINA RESULT:       0.5      2.332      6.060
REMARK  Name = *****
REMARK                            x       y       z     vdW  Elec       q    Type
REMARK                         _______ _______ _______ _____ _____    ______ ____
ROOT
ATOM      1  C   LIG    1       25.612 -20.066   5.366  0.00  0.00    +0.255 A 
ATOM      2  N   LIG    1       26.377 -20.899   6.112  0.00  0.00    -0.194 NA
ATOM      3  C   LIG    1       27.683 -20.597   6.295  0.00  0.00    +0.149 A 
ATOM      4  C   LIG    1       28.210 -19.444   5.685  0.00  0.00    +0.147 A 
ATOM      5  N   LIG    1       29.475 -18.898   5.651  0.00  0.00    -0.231 NA
ATOM      6  C   LIG    1       29.353 -17.811   4.913  0.00  0.00    +0.203 A 
ATOM      7  N   LIG    1       28.065 -17.626   4.471  0.00  0.00    -0.285 N 
ATOM      8  C   LIG    1       27.327 -18.678   4.946  0.00  0.00    +0.170 A 
ATOM      9  N   LIG    1       26.027 -18.935   4.746  0.00  0.00    -0.191 NA
ENDROOT
BRANCH   1  12
ATOM     10  C   LIG    1       22.078 -20.403   4.594  0.00  0.00    +0.075 A 
ATOM     11  C   LIG    1       23.280 -19.734   4.450  0.00  0.00    +0.130 A 
ATOM     12  N   LIG    1       24.234 -20.428   5.159  0.00  0.00    -0.205 N 
ATOM     13  N   LIG    1       23.707 -21.558   5.714  0.00  0.00    -0.172 NA
ATOM     14  C   LIG    1       22.415 -21.511   5.398  0.00  0.00    +0.148 A 
BRANCH  10  18
ATOM     15  C   LIG    1       19.569 -18.197   2.910  0.00  0.00    +0.128 C 
ATOM     16  N   LIG    1       20.764 -18.740   3.501  0.00  0.00    -0.314 N 
ATOM     17  H   LIG    1       21.577 -18.143   3.548  0.00  0.00    +0.149 HD
ATOM     18  C   LIG    1       20.798 -20.006   4.036  0.00  0.00    +0.247 C 
ATOM     19  O   LIG    1       19.819 -20.755   4.042  0.00  0.00    -0.270 OA
ENDBRANCH  10  18
ENDBRANCH   1  12
BRANCH   7  20
ATOM     20  C1* LIG    1       27.618 -16.501   3.659  0.00  0.00    +0.253 C 
ATOM     21  C2* LIG    1       26.121 -16.212   3.761  0.00  0.00    +0.195 C 
ATOM     22  C3* LIG    1       26.066 -14.707   3.546  0.00  0.00    +0.178 C 
ATOM     23  C4* LIG    1       27.389 -14.204   4.115  0.00  0.00    +0.177 C 
ATOM     24  O4* LIG    1       28.330 -15.300   4.030  0.00  0.00    -0.346 OA
BRANCH  21  25
ATOM     25  O2* LIG    1       25.364 -16.890   2.750  0.00  0.00    -0.385 OA
ATOM     26  H2* LIG    1       25.191 -17.783   3.121  0.00  0.00    +0.210 HD
ENDBRANCH  21  25
BRANCH  22  27
ATOM     27  O3* LIG    1       26.014 -14.466   2.125  0.00  0.00    -0.386 OA
ATOM     28  H3* LIG    1       25.489 -13.652   1.996  0.00  0.00    +0.210 HD
ENDBRANCH  22  27
BRANCH  23  29
ATOM     29  C5* LIG    1       27.251 -13.724   5.559  0.00  0.00    +0.190 C 
BRANCH  29  30
ATOM     30  O5* LIG    1       26.100 -12.907   5.701  0.00  0.00    -0.392 OA
ATOM     31  H5* LIG    1       26.338 -12.288   6.428  0.00  0.00    +0.209 HD
ENDBRANCH  29  30
ENDBRANCH  23  29
ENDBRANCH   7  20
BRANCH   3  32
ATOM     32  N   LIG    1       28.438 -21.474   7.062  0.00  0.00    -0.341 N 
ATOM     33  H   LIG    1       28.492 -22.394   6.645  0.00  0.00    +0.144 HD
ATOM     34  H   LIG    1       29.300 -21.065   7.408  0.00  0.00    +0.144 HD
ENDBRANCH   3  32
TORSDOF 8
ENDMDL
MODEL 3
REMARK VINA RESULT:       1.5      1.163      1.208
REMARK  Name = *****
REMARK                            x       y       z     vdW  Elec       q    Type
REMARK                         _______ _______ _______ _____ _____    ______ ____
ROOT
ATOM      1  C   LIG    1       26.750 -17.660   4.357  0.00  0.00    +0.255 A 
ATOM      2  N   LIG    1       27.816 -18.304   4.892  0.00  0.00    -0.194 NA
ATOM      3  C   LIG    1       27.692 -19.610   5.221  0.00  0.00    +0.149 A 
ATOM      4  C   LIG    1       26.457 -20.252   5.020  0.00  0.00    +0.147 A 
ATOM      5  N   LIG    1       26.012 -21.530   5.280  0.00  0.00    -0.231 NA
ATOM      6  C   LIG    1       24.755 -21.539   4.878  0.00  0.00    +0.203 A 
ATOM      7  N   LIG    1       24.366 -20.324   4.366  0.00  0.00    -0.285 N 
ATOM      8  C   LIG    1       25.446 -19.486   4.469  0.00  0.00    +0.170 A 
ATOM      9  N   LIG    1       25.526 -18.194   4.122  0.00  0.00    -0.191 NA
ENDROOT
BRANCH   1  12
ATOM     10  C   LIG    1       26.606 -14.213   3.222  0.00  0.00    +0.075 A 
ATOM     11  C   LIG    1       26.014 -15.455   3.368  0.00  0.00    +0.130 A 
ATOM     12  N   LIG    1       26.898 -16.263   4.048  0.00  0.00    -0.205 N 
ATOM     13  N   LIG    1       28.022 -15.574   4.399  0.00  0.00    -0.172 NA
ATOM     14  C   LIG    1       27.848 -14.364   3.871  0.00  0.00    +0.148 A 
BRANCH  10  18
ATOM     15  C   LIG    1       23.962 -11.849   2.033  0.00  0.00    +0.128 C 
ATOM     16  N   LIG    1       24.675 -12.935   2.651  0.00  0.00    -0.314 N 
ATOM     17  H   LIG    1       24.134 -13.632   3.142  0.00  0.00    +0.149 HD
ATOM     18  C   LIG    1       26.039 -13.062   2.541  0.00  0.00    +0.247 C 
ATOM     19  O   LIG    1       26.737 -12.261   1.916  0.00  0.00    -0.270 OA
ENDBRANCH  10  18
ENDBRANCH   1  12
BRANCH   7  20
ATOM     20  C1* LIG    1       23.046 -20.036   3.821  0.00  0.00    +0.253 C 
ATOM     21  C2* LIG    1       21.904 -20.222   4.820  0.00  0.00    +0.195 C 
ATOM     22  C3* LIG    1       20.891 -19.190   4.350  0.00  0.00    +0.178 C 
ATOM     23  C4* LIG    1       21.747 -18.075   3.758  0.00  0.00    +0.177 C 
ATOM     24  O4* LIG    1       22.991 -18.679   3.330  0.00  0.00    -0.346 OA
BRANCH  21  25
ATOM     25  O2* LIG    1       21.340 -21.538   4.765  0.00  0.00    -0.385 OA
ATOM     26  H2* LIG    1       20.439 -21.443   5.147  0.00  0.00    +0.210 HD
ENDBRANCH  21  25
BRANCH  22  27
ATOM     27  O3* LIG    1       20.086 -19.798   3.319  0.00  0.00    -0.386 OA
ATOM     28  H3* LIG    1       20.665 -19.914   2.542  0.00  0.00    +0.210 HD
ENDBRANCH  22  27
BRANCH  23  29
ATOM     29  C5* LIG    1       22.011 -16.953   4.762  0.00  0.00    +0.190 C 
BRANCH  29  30
ATOM     30  O5* LIG    1       22.533 -15.811   4.102  0.00  0.00    -0.392 OA
ATOM     31  H5* LIG    1       23.070 -15.363   4.795  0.00  0.00    +0.209 HD
ENDBRANCH  29  30
ENDBRANCH  23  29
ENDBRANCH   7  20
BRANCH   3  32
ATOM     32  N   LIG    1       28.802 -20.236   5.771  0.00  0.00    -0.341 N 
ATOM     33  H   LIG    1       28.548 -20.891   6.498  0.00  0.00    +0.144 HD
ATOM     34  H   LIG    1       29.474 -20.545   5.076  0.00  0.00    +0.144 HD
ENDBRANCH   3  32
TORSDOF 8
ENDMDL
