MODEL 1
REMARK VINA RESULT:       8.0      0.000      0.000
REMARK  Name = *****
REMARK                            x       y       z     vdW  Elec       q    Type
REMARK                         _______ _______ _______ _____ _____    ______ ____
ROOT
ATOM      1  C   LIG    1       26.909 -19.405   3.582  0.00  0.00    +0.059 C 
ENDROOT
BRANCH   1   5
ATOM      2  C   LIG    1       27.479 -15.067   4.330  0.00  0.00    +0.121 C 
ATOM      3  O   LIG    1       26.378 -15.579   3.554  0.00  0.00    -0.457 OA
ATOM      4  C   LIG    1       26.205 -16.930   3.427  0.00  0.00    +0.287 C 
ATOM      5  C   LIG    1       27.077 -17.892   3.789  0.00  0.00    +0.082 C 
ATOM      6  C   LIG    1       28.371 -17.410   4.348  0.00  0.00    +0.170 C 
ATOM      7  O   LIG    1       29.180 -18.184   4.856  0.00  0.00    -0.292 OA
ATOM      8  C   LIG    1       28.711 -15.957   4.146  0.00  0.00    +0.127 C 
BRANCH   4   9
ATOM      9  O   LIG    1       24.996 -17.275   2.874  0.00  0.00    -0.480 OA
ATOM     10  H   LIG    1       24.627 -16.434   2.557  0.00  0.00    +0.295 HD
ENDBRANCH   4   9
BRANCH   2  11
ATOM     11  C   LIG    1       26.999 -14.954   5.806  0.00  0.00    +0.048 C 
BRANCH  11  13
ATOM     12  C   LIG    1       28.288 -12.779   5.755  0.00  0.00    +0.004 C 
ATOM     13  C   LIG    1       27.254 -13.612   6.503  0.00  0.00    +0.001 C 
ENDBRANCH  11  13
ENDBRANCH   2  11
BRANCH   2  14
ATOM     14  C   LIG    1       27.817 -13.676   3.707  0.00  0.00    +0.053 C 
BRANCH  14  15
ATOM     15  C   LIG    1       27.003 -13.293   2.463  0.00  0.00    +0.039 C 
BRANCH  15  16
ATOM     16  C   LIG    1       25.662 -12.684   2.812  0.00  0.00    -0.047 A 
ATOM     17  C   LIG    1       25.278 -12.557   4.154  0.00  0.00    +0.003 A 
ATOM     18  C   LIG    1       24.079 -11.929   4.493  0.00  0.00    +0.000 A 
ATOM     19  C   LIG    1       23.236 -11.447   3.494  0.00  0.00    +0.000 A 
ATOM     20  C   LIG    1       23.586 -11.607   2.155  0.00  0.00    +0.000 A 
ATOM     21  C   LIG    1       24.794 -12.220   1.812  0.00  0.00    +0.003 A 
ENDBRANCH  15  16
ENDBRANCH  14  15
ENDBRANCH   2  14
ENDBRANCH   1   5
BRANCH   1  22
ATOM     22  C   LIG    1       26.271 -20.080   4.802  0.00  0.00    -0.038 A 
ATOM     23  C   LIG    1       24.910 -20.445   4.823  0.00  0.00    +0.028 A 
ATOM     24  C   LIG    1       24.360 -21.095   5.936  0.00  0.00    +0.048 A 
ATOM     25  C   LIG    1       25.140 -21.339   7.061  0.00  0.00    +0.024 A 
ATOM     26  C   LIG    1       26.486 -20.981   7.060  0.00  0.00    +0.002 A 
ATOM     27  C   LIG    1       27.050 -20.360   5.940  0.00  0.00    +0.004 A 
BRANCH  24  28
ATOM     28  N   LIG    1       22.988 -21.517   5.953  0.00  0.00    -0.215 N 
ATOM     29  H   LIG    1       22.925 -22.532   6.044  0.00  0.00    +0.174 HD
BRANCH  28  30
ATOM     30  S   LIG    1       22.062 -21.074   4.585  0.00  0.00    +0.090 S 
ATOM     31  O   LIG    1       20.695 -21.405   4.910  0.00  0.00    -0.148 OA
ATOM     32  O   LIG    1       22.683 -21.568   3.361  0.00  0.00    -0.148 OA
BRANCH  30  33
ATOM     33  C   LIG    1       22.195 -19.276   4.607  0.00  0.00    +0.197 A 
ATOM     34  N   LIG    1       22.372 -18.719   5.836  0.00  0.00    -0.235 NA
ATOM     35  C   LIG    1       22.563 -17.381   5.871  0.00  0.00    +0.125 A 
ATOM     36  C   LIG    1       22.571 -16.565   4.745  0.00  0.00    +0.073 A 
ATOM     37  C   LIG    1       22.370 -17.175   3.499  0.00  0.00    +0.017 A 
ATOM     38  C   LIG    1       22.190 -18.558   3.420  0.00  0.00    +0.050 A 
BRANCH  36  39
ATOM     39  C   LIG    1       22.800 -15.091   4.900  0.00  0.00    +0.419 C 
ATOM     40  F   LIG    1       22.037 -14.545   5.886  0.00  0.00    -0.166 F 
ATOM     41  F   LIG    1       22.505 -14.395   3.768  0.00  0.00    -0.166 F 
ATOM     42  F   LIG    1       24.089 -14.773   5.209  0.00  0.00    -0.166 F 
ENDBRANCH  36  39
ENDBRANCH  30  33
ENDBRANCH  28  30
ENDBRANCH  24  28
ENDBRANCH   1  22
BRANCH   1  43
ATOM     43  C   LIG    1       26.178 -19.759   2.248  0.00  0.00    +0.010 C 
ATOM     44  C   LIG    1       24.837 -20.464   2.405  0.00  0.00    +0.005 C 
ENDBRANCH   1  43
TORSDOF 13
ENDMDL
