MODEL 1
REMARK VINA RESULT:      -2.3      0.000      0.000
REMARK  Name = *****
REMARK                            x       y       z     vdW  Elec       q    Type
REMARK                         _______ _______ _______ _____ _____    ______ ____
ROOT
ATOM      1  C   LIG    1       23.105 -21.360   7.062  0.00  0.00    +0.088 C 
ATOM      2  C   LIG    1       24.285 -21.041   6.225  0.00  0.00    +0.135 A 
ATOM      3  N   LIG    1       24.332 -20.142   5.165  0.00  0.00    -0.275 N 
ATOM      4  C   LIG    1       23.341 -19.393   4.520  0.00  0.00    +0.097 A 
ATOM      5  C   LIG    1       23.532 -18.221   3.801  0.00  0.00    +0.033 A 
ATOM      6  C   LIG    1       24.786 -17.461   3.726  0.00  0.00    +0.077 C 
ATOM      7  N   LIG    1       25.957 -17.989   3.649  0.00  0.00    -0.275 NA
ATOM      8  C   LIG    1       26.147 -19.432   3.585  0.00  0.00    +0.218 C 
ATOM      9  C   LIG    1       22.279 -17.801   3.216  0.00  0.00    +0.035 A 
ATOM     10  C   LIG    1       21.248 -18.645   3.542  0.00  0.00    +0.058 A 
ATOM     11 BR   LIG    1       19.484 -18.394   2.969  0.00  0.00    -0.043 Br
ATOM     12  S   LIG    1       21.731 -19.925   4.529  0.00  0.00    -0.063 S 
ATOM     13  C   LIG    1       25.664 -20.136   4.796  0.00  0.00    +0.160 A 
ATOM     14  N   LIG    1       26.356 -20.951   5.561  0.00  0.00    -0.132 NA
ATOM     15  N   LIG    1       25.493 -21.514   6.455  0.00  0.00    -0.134 NA
ENDROOT
BRANCH   6  16
ATOM     16  C   LIG    1       24.695 -15.979   3.705  0.00  0.00    +0.019 A 
ATOM     17  C   LIG    1       23.696 -15.271   4.386  0.00  0.00    +0.050 A 
ATOM     18 CL   LIG    1       22.505 -16.042   5.371  0.00  0.00    -0.083 Cl
ATOM     19  C   LIG    1       23.667 -13.875   4.310  0.00  0.00    +0.021 A 
ATOM     20  C   LIG    1       24.634 -13.188   3.572  0.00  0.00    +0.002 A 
ATOM     21  C   LIG    1       25.641 -13.892   2.914  0.00  0.00    +0.001 A 
ATOM     22  C   LIG    1       25.677 -15.284   2.984  0.00  0.00    +0.011 A 
ENDBRANCH   6  16
TORSDOF 1
ENDMDL
MODEL 2
REMARK VINA RESULT:      -2.2      1.190      1.537
REMARK  Name = *****
REMARK                            x       y       z     vdW  Elec       q    Type
REMARK                         _______ _______ _______ _____ _____    ______ ____
ROOT
ATOM      1  C   LIG    1       23.511 -21.471   7.062  0.00  0.00    +0.088 C 
ATOM      2  C   LIG    1       24.632 -21.049   6.190  0.00  0.00    +0.135 A 
ATOM      3  N   LIG    1       24.579 -20.108   5.167  0.00  0.00    -0.275 N 
ATOM      4  C   LIG    1       23.519 -19.396   4.596  0.00  0.00    +0.097 A 
ATOM      5  C   LIG    1       23.609 -18.187   3.919  0.00  0.00    +0.033 A 
ATOM      6  C   LIG    1       24.812 -17.352   3.822  0.00  0.00    +0.077 C 
ATOM      7  N   LIG    1       26.007 -17.805   3.674  0.00  0.00    -0.275 NA
ATOM      8  C   LIG    1       26.278 -19.230   3.542  0.00  0.00    +0.218 C 
ATOM      9  C   LIG    1       22.309 -17.821   3.405  0.00  0.00    +0.035 A 
ATOM     10  C   LIG    1       21.344 -18.737   3.739  0.00  0.00    +0.058 A 
ATOM     11 BR   LIG    1       19.545 -18.571   3.251  0.00  0.00    -0.043 Br
ATOM     12  S   LIG    1       21.944 -20.023   4.651  0.00  0.00    -0.063 S 
ATOM     13  C   LIG    1       25.891 -20.009   4.742  0.00  0.00    +0.160 A 
ATOM     14  N   LIG    1       26.662 -20.809   5.443  0.00  0.00    -0.132 NA
ATOM     15  N   LIG    1       25.875 -21.458   6.348  0.00  0.00    -0.134 NA
ENDROOT
BRANCH   6  16
ATOM     16  C   LIG    1       24.634 -15.878   3.867  0.00  0.00    +0.019 A 
ATOM     17  C   LIG    1       25.692 -14.979   3.679  0.00  0.00    +0.050 A 
ATOM     18 CL   LIG    1       27.302 -15.489   3.317  0.00  0.00    -0.083 Cl
ATOM     19  C   LIG    1       25.450 -13.604   3.748  0.00  0.00    +0.021 A 
ATOM     20  C   LIG    1       24.159 -13.126   3.987  0.00  0.00    +0.002 A 
ATOM     21  C   LIG    1       23.102 -14.020   4.149  0.00  0.00    +0.001 A 
ATOM     22  C   LIG    1       23.335 -15.394   4.084  0.00  0.00    +0.011 A 
ENDBRANCH   6  16
TORSDOF 1
ENDMDL
