MODEL 1
REMARK VINA RESULT:      -6.5      0.000      0.000
REMARK  Name = *****
REMARK                            x       y       z     vdW  Elec       q    Type
REMARK                         _______ _______ _______ _____ _____    ______ ____
ROOT
ATOM      1  N   LIG    1       25.907 -18.951   4.469  0.00  0.00    -0.298 N 
ATOM      2  C   LIG    1       24.593 -19.475   4.693  0.00  0.00    +0.049 A 
ATOM      3  C   LIG    1       24.362 -20.556   5.571  0.00  0.00    +0.034 A 
ATOM      4  C   LIG    1       23.071 -21.101   5.752  0.00  0.00    +0.018 A 
ATOM      5  C   LIG    1       21.975 -20.585   5.078  0.00  0.00    +0.021 A 
ATOM      6  C   LIG    1       22.170 -19.503   4.233  0.00  0.00    +0.043 A 
ATOM      7 CL   LIG    1       20.823 -18.839   3.387  0.00  0.00    -0.084 Cl
ATOM      8  S   LIG    1       25.626 -21.363   6.514  0.00  0.00    -0.086 S 
ATOM      9  C   LIG    1       27.060 -20.391   6.138  0.00  0.00    +0.034 A 
ATOM     10  C   LIG    1       28.218 -20.759   6.857  0.00  0.00    +0.017 A 
ATOM     11  C   LIG    1       29.421 -20.093   6.663  0.00  0.00    +0.001 A 
ATOM     12  C   LIG    1       29.475 -19.071   5.738  0.00  0.00    +0.002 A 
ATOM     13  C   LIG    1       28.331 -18.713   5.006  0.00  0.00    +0.024 A 
ATOM     14  C   LIG    1       23.447 -18.948   4.055  0.00  0.00    +0.044 A 
ATOM     15  C   LIG    1       27.080 -19.350   5.187  0.00  0.00    +0.048 A 
ENDROOT
BRANCH   1  16
ATOM     16  C   LIG    1       26.097 -18.023   3.314  0.00  0.00    +0.112 C 
BRANCH  16  17
ATOM     17  C   LIG    1       25.685 -16.579   3.656  0.00  0.00    +0.035 C 
BRANCH  17  18
ATOM     18  C   LIG    1       26.768 -15.542   3.286  0.00  0.00    +0.086 C 
BRANCH  18  23
ATOM     19  C   LIG    1       23.821 -11.649   3.320  0.00  0.00    +0.105 C 
ATOM     20  N   LIG    1       24.049 -12.972   2.738  0.00  0.00    -0.303 NA
ATOM     21  C   LIG    1       25.333 -13.025   2.012  0.00  0.00    +0.099 C 
ATOM     22  C   LIG    1       26.589 -13.125   2.916  0.00  0.00    +0.100 C 
ATOM     23  N   LIG    1       26.555 -14.222   3.915  0.00  0.00    -0.300 NA
ATOM     24  C   LIG    1       25.278 -14.123   4.658  0.00  0.00    +0.100 C 
ATOM     25  C   LIG    1       24.012 -14.026   3.772  0.00  0.00    +0.099 C 
ENDBRANCH  18  23
ENDBRANCH  17  18
ENDBRANCH  16  17
ENDBRANCH   1  16
TORSDOF 4
ENDMDL
