MODEL 1
REMARK VINA RESULT:      -6.0      0.000      0.000
REMARK  Name = *****
REMARK                            x       y       z     vdW  Elec       q    Type
REMARK                         _______ _______ _______ _____ _____    ______ ____
ROOT
ATOM      1  C   LIG    1       26.028 -19.019   3.703  0.00  0.00    +0.179 C 
ENDROOT
BRANCH   1   4
ATOM      2  C   LIG    1       24.715 -21.571   5.026  0.00  0.00    +0.044 C 
ATOM      3  C   LIG    1       23.957 -20.335   4.629  0.00  0.00    -0.044 A 
ATOM      4  C   LIG    1       24.553 -19.147   4.143  0.00  0.00    -0.012 A 
ATOM      5  C   LIG    1       23.720 -18.007   4.016  0.00  0.00    +0.007 A 
ATOM      6  C   LIG    1       22.368 -18.029   4.365  0.00  0.00    +0.000 A 
ATOM      7  C   LIG    1       21.782 -19.217   4.766  0.00  0.00    +0.000 A 
ATOM      8  C   LIG    1       22.566 -20.361   4.885  0.00  0.00    +0.003 A 
ENDBRANCH   1   4
BRANCH   1   9
ATOM      9  C   LIG    1       27.085 -19.052   4.816  0.00  0.00    -0.015 A 
ATOM     10  C   LIG    1       27.015 -20.068   5.782  0.00  0.00    +0.006 A 
ATOM     11  C   LIG    1       28.115 -20.404   6.573  0.00  0.00    +0.000 A 
ATOM     12  C   LIG    1       29.295 -19.661   6.463  0.00  0.00    +0.000 A 
ATOM     13  C   LIG    1       29.327 -18.557   5.629  0.00  0.00    +0.000 A 
ATOM     14  C   LIG    1       28.238 -18.242   4.814  0.00  0.00    +0.006 A 
ENDBRANCH   1   9
BRANCH   1  15
ATOM     15  O   LIG    1       26.105 -17.773   2.958  0.00  0.00    -0.366 OA
BRANCH  15  16
ATOM     16  C   LIG    1       26.817 -16.703   3.583  0.00  0.00    +0.176 C 
BRANCH  16  17
ATOM     17  C   LIG    1       26.130 -15.327   3.398  0.00  0.00    +0.112 C 
BRANCH  17  18
ATOM     18  N   LIG    1       26.835 -14.249   2.682  0.00  0.00    -0.306 NA
ATOM     19  C   LIG    1       27.943 -13.709   3.463  0.00  0.00    +0.104 C 
ATOM     20  C   LIG    1       25.949 -13.183   2.235  0.00  0.00    +0.104 C 
ENDBRANCH  17  18
ENDBRANCH  16  17
ENDBRANCH  15  16
ENDBRANCH   1  15
TORSDOF 6
ENDMDL
MODEL 2
REMARK VINA RESULT:      -6.0      1.211      2.143
REMARK  Name = *****
REMARK                            x       y       z     vdW  Elec       q    Type
REMARK                         _______ _______ _______ _____ _____    ______ ____
ROOT
ATOM      1  C   LIG    1       26.060 -19.465   4.408  0.00  0.00    +0.179 C 
ENDROOT
BRANCH   1   4
ATOM      2  C   LIG    1       23.303 -19.833   2.909  0.00  0.00    +0.044 C 
ATOM      3  C   LIG    1       23.543 -20.197   4.349  0.00  0.00    -0.044 A 
ATOM      4  C   LIG    1       24.802 -20.143   4.993  0.00  0.00    -0.012 A 
ATOM      5  C   LIG    1       24.896 -20.718   6.285  0.00  0.00    +0.007 A 
ATOM      6  C   LIG    1       23.808 -21.333   6.908  0.00  0.00    +0.000 A 
ATOM      7  C   LIG    1       22.566 -21.312   6.299  0.00  0.00    +0.000 A 
ATOM      8  C   LIG    1       22.432 -20.738   5.037  0.00  0.00    +0.003 A 
ENDBRANCH   1   4
BRANCH   1   9
ATOM      9  C   LIG    1       27.371 -19.660   5.182  0.00  0.00    -0.015 A 
ATOM     10  C   LIG    1       28.347 -18.652   5.121  0.00  0.00    +0.006 A 
ATOM     11  C   LIG    1       29.366 -18.561   6.069  0.00  0.00    +0.000 A 
ATOM     12  C   LIG    1       29.475 -19.542   7.060  0.00  0.00    +0.000 A 
ATOM     13  C   LIG    1       28.617 -20.627   7.038  0.00  0.00    +0.000 A 
ATOM     14  C   LIG    1       27.576 -20.700   6.110  0.00  0.00    +0.006 A 
ENDBRANCH   1   9
BRANCH   1  15
ATOM     15  O   LIG    1       25.730 -18.053   4.305  0.00  0.00    -0.366 OA
BRANCH  15  16
ATOM     16  C   LIG    1       26.206 -17.373   3.141  0.00  0.00    +0.176 C 
BRANCH  16  17
ATOM     17  C   LIG    1       26.618 -15.906   3.420  0.00  0.00    +0.112 C 
BRANCH  17  18
ATOM     18  N   LIG    1       25.786 -14.803   2.908  0.00  0.00    -0.306 NA
ATOM     19  C   LIG    1       26.584 -13.626   2.579  0.00  0.00    +0.104 C 
ATOM     20  C   LIG    1       24.688 -14.452   3.799  0.00  0.00    +0.104 C 
ENDBRANCH  17  18
ENDBRANCH  16  17
ENDBRANCH  15  16
ENDBRANCH   1  15
TORSDOF 6
ENDMDL
MODEL 3
REMARK VINA RESULT:      -5.5      2.363      5.006
REMARK  Name = *****
REMARK                            x       y       z     vdW  Elec       q    Type
REMARK                         _______ _______ _______ _____ _____    ______ ____
ROOT
ATOM      1  C   LIG    1       25.048 -15.443   4.040  0.00  0.00    +0.179 C 
ENDROOT
BRANCH   1   4
ATOM      2  C   LIG    1       25.919 -18.427   3.471  0.00  0.00    +0.044 C 
ATOM      3  C   LIG    1       24.501 -17.986   3.709  0.00  0.00    -0.044 A 
ATOM      4  C   LIG    1       24.117 -16.675   4.077  0.00  0.00    -0.012 A 
ATOM      5  C   LIG    1       22.768 -16.478   4.467  0.00  0.00    +0.007 A 
ATOM      6  C   LIG    1       21.845 -17.524   4.510  0.00  0.00    +0.000 A 
ATOM      7  C   LIG    1       22.214 -18.785   4.075  0.00  0.00    +0.000 A 
ATOM      8  C   LIG    1       23.527 -19.010   3.667  0.00  0.00    +0.003 A 
ENDBRANCH   1   4
BRANCH   1   9
ATOM      9  C   LIG    1       24.435 -14.131   3.531  0.00  0.00    -0.015 A 
ATOM     10  C   LIG    1       23.980 -13.191   4.469  0.00  0.00    +0.006 A 
ATOM     11  C   LIG    1       23.779 -11.853   4.128  0.00  0.00    +0.000 A 
ATOM     12  C   LIG    1       23.953 -11.447   2.801  0.00  0.00    +0.000 A 
ATOM     13  C   LIG    1       24.246 -12.393   1.835  0.00  0.00    +0.000 A 
ATOM     14  C   LIG    1       24.481 -13.725   2.183  0.00  0.00    +0.006 A 
ENDBRANCH   1   9
BRANCH   1  15
ATOM     15  O   LIG    1       26.180 -15.835   3.216  0.00  0.00    -0.366 OA
BRANCH  15  16
ATOM     16  C   LIG    1       27.471 -15.434   3.680  0.00  0.00    +0.176 C 
BRANCH  16  17
ATOM     17  C   LIG    1       27.845 -13.990   3.263  0.00  0.00    +0.112 C 
BRANCH  17  18
ATOM     18  N   LIG    1       27.831 -12.912   4.268  0.00  0.00    -0.306 NA
ATOM     19  C   LIG    1       29.125 -12.242   4.366  0.00  0.00    +0.104 C 
ATOM     20  C   LIG    1       27.378 -13.356   5.579  0.00  0.00    +0.104 C 
ENDBRANCH  17  18
ENDBRANCH  16  17
ENDBRANCH  15  16
ENDBRANCH   1  15
TORSDOF 6
ENDMDL
MODEL 4
REMARK VINA RESULT:      -5.3      2.591      5.109
REMARK  Name = *****
REMARK                            x       y       z     vdW  Elec       q    Type
REMARK                         _______ _______ _______ _____ _____    ______ ____
ROOT
ATOM      1  C   LIG    1       25.208 -15.591   4.041  0.00  0.00    +0.179 C 
ENDROOT
BRANCH   1   4
ATOM      2  C   LIG    1       22.177 -15.878   4.888  0.00  0.00    +0.044 C 
ATOM      3  C   LIG    1       23.046 -17.021   4.440  0.00  0.00    -0.044 A 
ATOM      4  C   LIG    1       24.366 -16.884   3.950  0.00  0.00    -0.012 A 
ATOM      5  C   LIG    1       24.968 -18.030   3.373  0.00  0.00    +0.007 A 
ATOM      6  C   LIG    1       24.297 -19.250   3.267  0.00  0.00    +0.000 A 
ATOM      7  C   LIG    1       23.036 -19.390   3.818  0.00  0.00    +0.000 A 
ATOM      8  C   LIG    1       22.421 -18.289   4.410  0.00  0.00    +0.003 A 
ENDBRANCH   1   4
BRANCH   1   9
ATOM      9  C   LIG    1       24.558 -14.306   3.509  0.00  0.00    -0.015 A 
ATOM     10  C   LIG    1       24.008 -13.399   4.428  0.00  0.00    +0.006 A 
ATOM     11  C   LIG    1       23.758 -12.070   4.086  0.00  0.00    +0.000 A 
ATOM     12  C   LIG    1       23.982 -11.643   2.772  0.00  0.00    +0.000 A 
ATOM     13  C   LIG    1       24.374 -12.565   1.817  0.00  0.00    +0.000 A 
ATOM     14  C   LIG    1       24.656 -13.886   2.168  0.00  0.00    +0.006 A 
ENDBRANCH   1   9
BRANCH   1  15
ATOM     15  O   LIG    1       26.440 -15.879   3.325  0.00  0.00    -0.366 OA
BRANCH  15  16
ATOM     16  C   LIG    1       27.651 -15.439   3.944  0.00  0.00    +0.176 C 
BRANCH  16  17
ATOM     17  C   LIG    1       28.040 -13.991   3.556  0.00  0.00    +0.112 C 
BRANCH  17  18
ATOM     18  N   LIG    1       27.812 -12.891   4.511  0.00  0.00    -0.306 NA
ATOM     19  C   LIG    1       29.010 -12.080   4.705  0.00  0.00    +0.104 C 
ATOM     20  C   LIG    1       27.280 -13.343   5.789  0.00  0.00    +0.104 C 
ENDBRANCH  17  18
ENDBRANCH  16  17
ENDBRANCH  15  16
ENDBRANCH   1  15
TORSDOF 6
ENDMDL
MODEL 5
REMARK VINA RESULT:      -5.1      2.182      5.465
REMARK  Name = *****
REMARK                            x       y       z     vdW  Elec       q    Type
REMARK                         _______ _______ _______ _____ _____    ______ ____
ROOT
ATOM      1  C   LIG    1       25.346 -17.737   3.306  0.00  0.00    +0.179 C 
ENDROOT
BRANCH   1   4
ATOM      2  C   LIG    1       27.298 -15.257   3.145  0.00  0.00    +0.044 C 
ATOM      3  C   LIG    1       25.901 -15.205   3.700  0.00  0.00    -0.044 A 
ATOM      4  C   LIG    1       24.983 -16.281   3.670  0.00  0.00    -0.012 A 
ATOM      5  C   LIG    1       23.644 -16.003   4.042  0.00  0.00    +0.007 A 
ATOM      6  C   LIG    1       23.222 -14.723   4.410  0.00  0.00    +0.000 A 
ATOM      7  C   LIG    1       24.147 -13.698   4.508  0.00  0.00    +0.000 A 
ATOM      8  C   LIG    1       25.475 -13.940   4.167  0.00  0.00    +0.003 A 
ENDBRANCH   1   4
BRANCH   1   9
ATOM      9  C   LIG    1       24.301 -18.812   3.636  0.00  0.00    -0.015 A 
ATOM     10  C   LIG    1       24.568 -20.144   3.282  0.00  0.00    +0.006 A 
ATOM     11  C   LIG    1       23.885 -21.210   3.869  0.00  0.00    +0.000 A 
ATOM     12  C   LIG    1       22.850 -20.950   4.773  0.00  0.00    +0.000 A 
ATOM     13  C   LIG    1       22.470 -19.641   5.011  0.00  0.00    +0.000 A 
ATOM     14  C   LIG    1       23.175 -18.575   4.449  0.00  0.00    +0.006 A 
ENDBRANCH   1   9
BRANCH   1  15
ATOM     15  O   LIG    1       26.598 -18.010   3.994  0.00  0.00    -0.366 OA
BRANCH  15  16
ATOM     16  C   LIG    1       26.745 -19.319   4.548  0.00  0.00    +0.176 C 
BRANCH  16  17
ATOM     17  C   LIG    1       27.973 -19.448   5.484  0.00  0.00    +0.112 C 
BRANCH  17  18
ATOM     18  N   LIG    1       27.840 -20.155   6.770  0.00  0.00    -0.306 NA
ATOM     19  C   LIG    1       29.009 -20.981   7.062  0.00  0.00    +0.104 C 
ATOM     20  C   LIG    1       26.616 -20.937   6.871  0.00  0.00    +0.104 C 
ENDBRANCH  17  18
ENDBRANCH  16  17
ENDBRANCH  15  16
ENDBRANCH   1  15
TORSDOF 6
ENDMDL
MODEL 6
REMARK VINA RESULT:      -5.0      1.035      4.635
REMARK  Name = *****
REMARK                            x       y       z     vdW  Elec       q    Type
REMARK                         _______ _______ _______ _____ _____    ______ ____
ROOT
ATOM      1  C   LIG    1       25.868 -19.014   4.922  0.00  0.00    +0.179 C 
ENDROOT
BRANCH   1   4
ATOM      2  C   LIG    1       28.825 -17.907   5.063  0.00  0.00    +0.044 C 
ATOM      3  C   LIG    1       28.389 -19.239   5.609  0.00  0.00    -0.044 A 
ATOM      4  C   LIG    1       27.049 -19.691   5.652  0.00  0.00    -0.012 A 
ATOM      5  C   LIG    1       26.785 -20.874   6.386  0.00  0.00    +0.007 A 
ATOM      6  C   LIG    1       27.789 -21.572   7.061  0.00  0.00    +0.000 A 
ATOM      7  C   LIG    1       29.106 -21.161   6.947  0.00  0.00    +0.000 A 
ATOM      8  C   LIG    1       29.404 -20.013   6.218  0.00  0.00    +0.003 A 
ENDBRANCH   1   4
BRANCH   1   9
ATOM      9  C   LIG    1       24.563 -19.816   4.827  0.00  0.00    -0.015 A 
ATOM     10  C   LIG    1       24.387 -20.920   5.677  0.00  0.00    +0.006 A 
ATOM     11  C   LIG    1       23.124 -21.453   5.934  0.00  0.00    +0.000 A 
ATOM     12  C   LIG    1       22.009 -20.934   5.268  0.00  0.00    +0.000 A 
ATOM     13  C   LIG    1       22.187 -19.952   4.309  0.00  0.00    +0.000 A 
ATOM     14  C   LIG    1       23.447 -19.396   4.077  0.00  0.00    +0.006 A 
ENDBRANCH   1   9
BRANCH   1  15
ATOM     15  O   LIG    1       26.367 -18.686   3.596  0.00  0.00    -0.366 OA
BRANCH  15  16
ATOM     16  C   LIG    1       25.916 -17.450   3.036  0.00  0.00    +0.176 C 
BRANCH  16  17
ATOM     17  C   LIG    1       26.646 -16.216   3.622  0.00  0.00    +0.112 C 
BRANCH  17  18
ATOM     18  N   LIG    1       26.534 -14.911   2.947  0.00  0.00    -0.306 NA
ATOM     19  C   LIG    1       27.621 -14.010   3.317  0.00  0.00    +0.104 C 
ATOM     20  C   LIG    1       25.240 -14.272   3.147  0.00  0.00    +0.104 C 
ENDBRANCH  17  18
ENDBRANCH  16  17
ENDBRANCH  15  16
ENDBRANCH   1  15
TORSDOF 6
ENDMDL
MODEL 7
REMARK VINA RESULT:      -4.3      2.056      5.556
REMARK  Name = *****
REMARK                            x       y       z     vdW  Elec       q    Type
REMARK                         _______ _______ _______ _____ _____    ______ ____
ROOT
ATOM      1  C   LIG    1       26.247 -18.320   3.690  0.00  0.00    +0.179 C 
ENDROOT
BRANCH   1   4
ATOM      2  C   LIG    1       26.088 -20.960   5.419  0.00  0.00    +0.044 C 
ATOM      3  C   LIG    1       27.155 -19.910   5.566  0.00  0.00    -0.044 A 
ATOM      4  C   LIG    1       27.298 -18.785   4.721  0.00  0.00    -0.012 A 
ATOM      5  C   LIG    1       28.476 -18.010   4.865  0.00  0.00    +0.007 A 
ATOM      6  C   LIG    1       29.475 -18.336   5.786  0.00  0.00    +0.000 A 
ATOM      7  C   LIG    1       29.286 -19.394   6.657  0.00  0.00    +0.000 A 
ATOM      8  C   LIG    1       28.132 -20.166   6.556  0.00  0.00    +0.003 A 
ENDBRANCH   1   4
BRANCH   1   9
ATOM      9  C   LIG    1       26.074 -16.805   3.517  0.00  0.00    -0.015 A 
ATOM     10  C   LIG    1       24.802 -16.244   3.712  0.00  0.00    +0.006 A 
ATOM     11  C   LIG    1       24.631 -14.881   3.957  0.00  0.00    +0.000 A 
ATOM     12  C   LIG    1       25.742 -14.031   3.925  0.00  0.00    +0.000 A 
ATOM     13  C   LIG    1       26.979 -14.544   3.577  0.00  0.00    +0.000 A 
ATOM     14  C   LIG    1       27.155 -15.913   3.366  0.00  0.00    +0.006 A 
ENDBRANCH   1   9
BRANCH   1  15
ATOM     15  O   LIG    1       24.996 -18.936   4.104  0.00  0.00    -0.366 OA
BRANCH  15  16
ATOM     16  C   LIG    1       24.332 -19.741   3.128  0.00  0.00    +0.176 C 
BRANCH  16  17
ATOM     17  C   LIG    1       23.319 -20.735   3.748  0.00  0.00    +0.112 C 
BRANCH  17  18
ATOM     18  N   LIG    1       22.346 -20.260   4.747  0.00  0.00    -0.306 NA
ATOM     19  C   LIG    1       22.008 -18.853   4.553  0.00  0.00    +0.104 C 
ATOM     20  C   LIG    1       22.767 -20.507   6.120  0.00  0.00    +0.104 C 
ENDBRANCH  17  18
ENDBRANCH  16  17
ENDBRANCH  15  16
ENDBRANCH   1  15
TORSDOF 6
ENDMDL
MODEL 8
REMARK VINA RESULT:      -4.3      2.101      5.443
REMARK  Name = *****
REMARK                            x       y       z     vdW  Elec       q    Type
REMARK                         _______ _______ _______ _____ _____    ______ ____
ROOT
ATOM      1  C   LIG    1       24.759 -18.343   3.547  0.00  0.00    +0.179 C 
ENDROOT
BRANCH   1   4
ATOM      2  C   LIG    1       22.399 -16.588   4.702  0.00  0.00    +0.044 C 
ATOM      3  C   LIG    1       23.697 -16.032   4.183  0.00  0.00    -0.044 A 
ATOM      4  C   LIG    1       24.800 -16.816   3.772  0.00  0.00    -0.012 A 
ATOM      5  C   LIG    1       26.017 -16.137   3.510  0.00  0.00    +0.007 A 
ATOM      6  C   LIG    1       26.148 -14.756   3.661  0.00  0.00    +0.000 A 
ATOM      7  C   LIG    1       25.041 -13.993   3.990  0.00  0.00    +0.000 A 
ATOM      8  C   LIG    1       23.824 -14.624   4.236  0.00  0.00    +0.003 A 
ENDBRANCH   1   4
BRANCH   1   9
ATOM      9  C   LIG    1       23.822 -19.150   4.457  0.00  0.00    -0.015 A 
ATOM     10  C   LIG    1       22.560 -19.520   3.966  0.00  0.00    +0.006 A 
ATOM     11  C   LIG    1       21.821 -20.551   4.548  0.00  0.00    +0.000 A 
ATOM     12  C   LIG    1       22.306 -21.181   5.699  0.00  0.00    +0.000 A 
ATOM     13  C   LIG    1       23.472 -20.719   6.285  0.00  0.00    +0.000 A 
ATOM     14  C   LIG    1       24.227 -19.711   5.684  0.00  0.00    +0.006 A 
ENDBRANCH   1   9
BRANCH   1  15
ATOM     15  O   LIG    1       26.133 -18.796   3.694  0.00  0.00    -0.366 OA
BRANCH  15  16
ATOM     16  C   LIG    1       26.369 -19.793   4.690  0.00  0.00    +0.176 C 
BRANCH  16  17
ATOM     17  C   LIG    1       27.773 -19.686   5.336  0.00  0.00    +0.112 C 
BRANCH  17  18
ATOM     18  N   LIG    1       27.972 -20.124   6.729  0.00  0.00    -0.306 NA
ATOM     19  C   LIG    1       29.387 -20.258   7.062  0.00  0.00    +0.104 C 
ATOM     20  C   LIG    1       27.245 -21.342   7.056  0.00  0.00    +0.104 C 
ENDBRANCH  17  18
ENDBRANCH  16  17
ENDBRANCH  15  16
ENDBRANCH   1  15
TORSDOF 6
ENDMDL
MODEL 9
REMARK VINA RESULT:      -4.2      2.010      4.719
REMARK  Name = *****
REMARK                            x       y       z     vdW  Elec       q    Type
REMARK                         _______ _______ _______ _____ _____    ______ ____
ROOT
ATOM      1  C   LIG    1       26.198 -15.878   3.327  0.00  0.00    +0.179 C 
ENDROOT
BRANCH   1   4
ATOM      2  C   LIG    1       24.835 -18.729   3.247  0.00  0.00    +0.044 C 
ATOM      3  C   LIG    1       26.114 -18.418   3.976  0.00  0.00    -0.044 A 
ATOM      4  C   LIG    1       26.789 -17.176   3.922  0.00  0.00    -0.012 A 
ATOM      5  C   LIG    1       28.084 -17.115   4.494  0.00  0.00    +0.007 A 
ATOM      6  C   LIG    1       28.695 -18.228   5.077  0.00  0.00    +0.000 A 
ATOM      7  C   LIG    1       27.993 -19.415   5.190  0.00  0.00    +0.000 A 
ATOM      8  C   LIG    1       26.710 -19.505   4.656  0.00  0.00    +0.003 A 
ENDBRANCH   1   4
BRANCH   1   9
ATOM      9  C   LIG    1       26.867 -14.561   3.744  0.00  0.00    -0.015 A 
ATOM     10  C   LIG    1       26.745 -14.135   5.076  0.00  0.00    +0.006 A 
ATOM     11  C   LIG    1       27.613 -13.192   5.627  0.00  0.00    +0.000 A 
ATOM     12  C   LIG    1       28.580 -12.590   4.815  0.00  0.00    +0.000 A 
ATOM     13  C   LIG    1       28.609 -12.883   3.463  0.00  0.00    +0.000 A 
ATOM     14  C   LIG    1       27.763 -13.852   2.920  0.00  0.00    +0.006 A 
ENDBRANCH   1   9
BRANCH   1  15
ATOM     15  O   LIG    1       24.793 -15.883   3.702  0.00  0.00    -0.366 OA
BRANCH  15  16
ATOM     16  C   LIG    1       24.250 -14.635   4.138  0.00  0.00    +0.176 C 
BRANCH  16  17
ATOM     17  C   LIG    1       23.711 -13.766   2.974  0.00  0.00    +0.112 C 
BRANCH  17  18
ATOM     18  N   LIG    1       23.775 -12.297   3.068  0.00  0.00    -0.306 NA
ATOM     19  C   LIG    1       24.758 -11.734   2.147  0.00  0.00    +0.104 C 
ATOM     20  C   LIG    1       24.003 -11.819   4.425  0.00  0.00    +0.104 C 
ENDBRANCH  17  18
ENDBRANCH  16  17
ENDBRANCH  15  16
ENDBRANCH   1  15
TORSDOF 6
ENDMDL
