MODEL 1
REMARK VINA RESULT:      -6.0      0.000      0.000
REMARK  Name = *****
REMARK                            x       y       z     vdW  Elec       q    Type
REMARK                         _______ _______ _______ _____ _____    ______ ____
ROOT
ATOM      1  C   LIG    1       21.974 -18.092   4.802  0.00  0.00    +0.039 C 
ENDROOT
BRANCH   1   2
ATOM      2  C   LIG    1       22.959 -17.010   4.430  0.00  0.00    -0.047 A 
ATOM      3  C   LIG    1       22.723 -15.668   4.755  0.00  0.00    +0.004 A 
ATOM      4  C   LIG    1       23.669 -14.689   4.431  0.00  0.00    +0.004 A 
ATOM      5  C   LIG    1       24.884 -15.011   3.797  0.00  0.00    -0.042 A 
ATOM      6  C   LIG    1       25.089 -16.358   3.448  0.00  0.00    +0.004 A 
ATOM      7  C   LIG    1       24.140 -17.334   3.761  0.00  0.00    +0.004 A 
BRANCH   5   8
ATOM      8  C   LIG    1       25.945 -13.929   3.542  0.00  0.00    -0.013 C 
ATOM      9  C   LIG    1       27.251 -14.474   2.922  0.00  0.00    +0.015 C 
ATOM     10  C   LIG    1       26.323 -13.266   4.885  0.00  0.00    +0.015 C 
ATOM     11  C   LIG    1       25.391 -12.855   2.584  0.00  0.00    +0.015 C 
ENDBRANCH   5   8
ENDBRANCH   1   2
BRANCH   1  13
ATOM     12  C   LIG    1       21.365 -20.507   4.211  0.00  0.00    +0.009 C 
ATOM     13  C   LIG    1       22.496 -19.529   4.586  0.00  0.00    +0.004 C 
BRANCH  13  14
ATOM     14  C   LIG    1       23.207 -20.071   5.854  0.00  0.00    +0.088 C 
BRANCH  14  15
ATOM     15  N   LIG    1       24.082 -21.246   5.684  0.00  0.00    -0.302 NA
ATOM     16  C   LIG    1       24.904 -21.125   4.463  0.00  0.00    +0.084 C 
ATOM     17  C   LIG    1       26.018 -20.075   4.567  0.00  0.00    +0.015 C 
ATOM     18  C   LIG    1       26.882 -20.277   5.810  0.00  0.00    +0.002 C 
ATOM     19  C   LIG    1       26.030 -20.472   7.062  0.00  0.00    +0.015 C 
ATOM     20  C   LIG    1       24.961 -21.540   6.826  0.00  0.00    +0.084 C 
ENDBRANCH  14  15
ENDBRANCH  13  14
ENDBRANCH   1  13
TORSDOF 5
ENDMDL
MODEL 2
REMARK VINA RESULT:      -4.1      2.091      6.506
REMARK  Name = *****
REMARK                            x       y       z     vdW  Elec       q    Type
REMARK                         _______ _______ _______ _____ _____    ______ ____
ROOT
ATOM      1  C   LIG    1       23.072 -15.035   3.972  0.00  0.00    +0.039 C 
ENDROOT
BRANCH   1   2
ATOM      2  C   LIG    1       23.239 -16.529   4.116  0.00  0.00    -0.047 A 
ATOM      3  C   LIG    1       24.411 -17.173   3.702  0.00  0.00    +0.004 A 
ATOM      4  C   LIG    1       24.556 -18.553   3.879  0.00  0.00    +0.004 A 
ATOM      5  C   LIG    1       23.556 -19.333   4.490  0.00  0.00    -0.042 A 
ATOM      6  C   LIG    1       22.372 -18.675   4.869  0.00  0.00    +0.004 A 
ATOM      7  C   LIG    1       22.222 -17.299   4.681  0.00  0.00    +0.004 A 
BRANCH   5   8
ATOM      8  C   LIG    1       23.784 -20.829   4.759  0.00  0.00    -0.013 C 
ATOM      9  C   LIG    1       25.056 -21.124   5.586  0.00  0.00    +0.015 C 
ATOM     10  C   LIG    1       23.937 -21.567   3.411  0.00  0.00    +0.015 C 
ATOM     11  C   LIG    1       22.585 -21.419   5.530  0.00  0.00    +0.015 C 
ENDBRANCH   5   8
ENDBRANCH   1   2
BRANCH   1  13
ATOM     12  C   LIG    1       23.942 -12.824   4.923  0.00  0.00    +0.009 C 
ATOM     13  C   LIG    1       24.317 -14.214   4.375  0.00  0.00    +0.004 C 
BRANCH  13  14
ATOM     14  C   LIG    1       25.281 -14.021   3.176  0.00  0.00    +0.088 C 
BRANCH  14  15
ATOM     15  N   LIG    1       26.607 -14.661   3.267  0.00  0.00    -0.302 NA
ATOM     16  C   LIG    1       27.609 -13.924   2.471  0.00  0.00    +0.084 C 
ATOM     17  C   LIG    1       28.011 -12.573   3.077  0.00  0.00    +0.015 C 
ATOM     18  C   LIG    1       28.438 -12.705   4.538  0.00  0.00    +0.002 C 
ATOM     19  C   LIG    1       27.436 -13.526   5.345  0.00  0.00    +0.015 C 
ATOM     20  C   LIG    1       27.120 -14.842   4.633  0.00  0.00    +0.084 C 
ENDBRANCH  14  15
ENDBRANCH  13  14
ENDBRANCH   1  13
TORSDOF 5
ENDMDL
MODEL 3
REMARK VINA RESULT:      -4.0      1.802      3.823
REMARK  Name = *****
REMARK                            x       y       z     vdW  Elec       q    Type
REMARK                         _______ _______ _______ _____ _____    ______ ____
ROOT
ATOM      1  C   LIG    1       27.676 -19.636   4.743  0.00  0.00    +0.039 C 
ENDROOT
BRANCH   1   2
ATOM      2  C   LIG    1       27.464 -18.183   4.391  0.00  0.00    -0.047 A 
ATOM      3  C   LIG    1       26.362 -17.771   3.632  0.00  0.00    +0.004 A 
ATOM      4  C   LIG    1       26.170 -16.414   3.349  0.00  0.00    +0.004 A 
ATOM      5  C   LIG    1       27.047 -15.424   3.828  0.00  0.00    -0.042 A 
ATOM      6  C   LIG    1       28.167 -15.858   4.561  0.00  0.00    +0.004 A 
ATOM      7  C   LIG    1       28.367 -17.214   4.833  0.00  0.00    +0.004 A 
BRANCH   5   8
ATOM      8  C   LIG    1       26.756 -13.934   3.586  0.00  0.00    -0.013 C 
ATOM      9  C   LIG    1       25.781 -13.317   4.613  0.00  0.00    +0.015 C 
ATOM     10  C   LIG    1       26.113 -13.767   2.192  0.00  0.00    +0.015 C 
ATOM     11  C   LIG    1       28.064 -13.120   3.644  0.00  0.00    +0.015 C 
ENDBRANCH   5   8
ENDBRANCH   1   2
BRANCH   1  13
ATOM     12  C   LIG    1       28.310 -21.234   6.639  0.00  0.00    +0.009 C 
ATOM     13  C   LIG    1       27.553 -19.950   6.250  0.00  0.00    +0.004 C 
BRANCH  13  14
ATOM     14  C   LIG    1       26.071 -20.111   6.677  0.00  0.00    +0.088 C 
BRANCH  14  15
ATOM     15  N   LIG    1       25.377 -21.341   6.250  0.00  0.00    -0.302 NA
ATOM     16  C   LIG    1       24.161 -21.571   7.055  0.00  0.00    +0.084 C 
ATOM     17  C   LIG    1       23.018 -20.595   6.746  0.00  0.00    +0.015 C 
ATOM     18  C   LIG    1       22.703 -20.537   5.253  0.00  0.00    +0.002 C 
ATOM     19  C   LIG    1       23.969 -20.369   4.417  0.00  0.00    +0.015 C 
ATOM     20  C   LIG    1       25.025 -21.397   4.823  0.00  0.00    +0.084 C 
ENDBRANCH  14  15
ENDBRANCH  13  14
ENDBRANCH   1  13
TORSDOF 5
ENDMDL
MODEL 4
REMARK VINA RESULT:      -3.9      2.134      6.454
REMARK  Name = *****
REMARK                            x       y       z     vdW  Elec       q    Type
REMARK                         _______ _______ _______ _____ _____    ______ ____
ROOT
ATOM      1  C   LIG    1       23.128 -14.850   3.871  0.00  0.00    +0.039 C 
ENDROOT
BRANCH   1   2
ATOM      2  C   LIG    1       23.221 -16.336   4.125  0.00  0.00    -0.047 A 
ATOM      3  C   LIG    1       22.179 -17.034   4.745  0.00  0.00    +0.004 A 
ATOM      4  C   LIG    1       22.274 -18.417   4.936  0.00  0.00    +0.004 A 
ATOM      5  C   LIG    1       23.392 -19.152   4.499  0.00  0.00    -0.042 A 
ATOM      6  C   LIG    1       24.444 -18.429   3.908  0.00  0.00    +0.004 A 
ATOM      7  C   LIG    1       24.355 -17.047   3.728  0.00  0.00    +0.004 A 
BRANCH   5   8
ATOM      8  C   LIG    1       23.425 -20.683   4.634  0.00  0.00    -0.013 C 
ATOM      9  C   LIG    1       22.051 -21.307   4.966  0.00  0.00    +0.015 C 
ATOM     10  C   LIG    1       24.386 -21.067   5.780  0.00  0.00    +0.015 C 
ATOM     11  C   LIG    1       23.918 -21.322   3.320  0.00  0.00    +0.015 C 
ENDBRANCH   5   8
ENDBRANCH   1   2
BRANCH   1  13
ATOM     12  C   LIG    1       24.072 -12.626   4.718  0.00  0.00    +0.009 C 
ATOM     13  C   LIG    1       24.398 -14.059   4.253  0.00  0.00    +0.004 C 
BRANCH  13  14
ATOM     14  C   LIG    1       25.390 -13.970   3.064  0.00  0.00    +0.088 C 
BRANCH  14  15
ATOM     15  N   LIG    1       26.705 -14.617   3.234  0.00  0.00    -0.302 NA
ATOM     16  C   LIG    1       27.764 -13.862   2.535  0.00  0.00    +0.084 C 
ATOM     17  C   LIG    1       28.123 -12.531   3.208  0.00  0.00    +0.015 C 
ATOM     18  C   LIG    1       28.441 -12.706   4.692  0.00  0.00    +0.002 C 
ATOM     19  C   LIG    1       27.381 -13.547   5.399  0.00  0.00    +0.015 C 
ATOM     20  C   LIG    1       27.116 -14.841   4.628  0.00  0.00    +0.084 C 
ENDBRANCH  14  15
ENDBRANCH  13  14
ENDBRANCH   1  13
TORSDOF 5
ENDMDL
MODEL 5
REMARK VINA RESULT:      -3.6      1.318      3.182
REMARK  Name = *****
REMARK                            x       y       z     vdW  Elec       q    Type
REMARK                         _______ _______ _______ _____ _____    ______ ____
ROOT
ATOM      1  C   LIG    1       25.863 -19.740   3.834  0.00  0.00    +0.039 C 
ENDROOT
BRANCH   1   2
ATOM      2  C   LIG    1       26.114 -18.254   3.745  0.00  0.00    -0.047 A 
ATOM      3  C   LIG    1       25.100 -17.366   3.366  0.00  0.00    +0.004 A 
ATOM      4  C   LIG    1       25.348 -15.990   3.326  0.00  0.00    +0.004 A 
ATOM      5  C   LIG    1       26.597 -15.449   3.682  0.00  0.00    -0.042 A 
ATOM      6  C   LIG    1       27.614 -16.358   4.028  0.00  0.00    +0.004 A 
ATOM      7  C   LIG    1       27.371 -17.733   4.056  0.00  0.00    +0.004 A 
BRANCH   5   8
ATOM      8  C   LIG    1       26.811 -13.928   3.723  0.00  0.00    -0.013 C 
ATOM      9  C   LIG    1       28.296 -13.507   3.653  0.00  0.00    +0.015 C 
ATOM     10  C   LIG    1       26.244 -13.375   5.049  0.00  0.00    +0.015 C 
ATOM     11  C   LIG    1       26.084 -13.256   2.540  0.00  0.00    +0.015 C 
ENDBRANCH   5   8
ENDBRANCH   1   2
BRANCH   1  13
ATOM     12  C   LIG    1       26.775 -20.502   6.101  0.00  0.00    +0.009 C 
ATOM     13  C   LIG    1       25.515 -20.243   5.253  0.00  0.00    +0.004 C 
BRANCH  13  14
ATOM     14  C   LIG    1       24.685 -21.552   5.203  0.00  0.00    +0.088 C 
BRANCH  14  15
ATOM     15  N   LIG    1       23.345 -21.523   5.819  0.00  0.00    -0.302 NA
ATOM     16  C   LIG    1       23.187 -20.344   6.694  0.00  0.00    +0.084 C 
ATOM     17  C   LIG    1       23.071 -19.018   5.932  0.00  0.00    +0.015 C 
ATOM     18  C   LIG    1       21.989 -19.069   4.855  0.00  0.00    +0.002 C 
ATOM     19  C   LIG    1       22.111 -20.324   3.995  0.00  0.00    +0.015 C 
ATOM     20  C   LIG    1       22.220 -21.571   4.872  0.00  0.00    +0.084 C 
ENDBRANCH  14  15
ENDBRANCH  13  14
ENDBRANCH   1  13
TORSDOF 5
ENDMDL
MODEL 6
REMARK VINA RESULT:      -3.5      2.209      7.174
REMARK  Name = *****
REMARK                            x       y       z     vdW  Elec       q    Type
REMARK                         _______ _______ _______ _____ _____    ______ ____
ROOT
ATOM      1  C   LIG    1       27.986 -15.868   4.024  0.00  0.00    +0.039 C 
ENDROOT
BRANCH   1   2
ATOM      2  C   LIG    1       27.107 -17.095   4.039  0.00  0.00    -0.047 A 
ATOM      3  C   LIG    1       27.458 -18.233   4.774  0.00  0.00    +0.004 A 
ATOM      4  C   LIG    1       26.608 -19.344   4.801  0.00  0.00    +0.004 A 
ATOM      5  C   LIG    1       25.376 -19.354   4.120  0.00  0.00    -0.042 A 
ATOM      6  C   LIG    1       25.055 -18.215   3.359  0.00  0.00    +0.004 A 
ATOM      7  C   LIG    1       25.909 -17.110   3.323  0.00  0.00    +0.004 A 
BRANCH   5   8
ATOM      8  C   LIG    1       24.419 -20.549   4.248  0.00  0.00    -0.013 C 
ATOM      9  C   LIG    1       24.180 -21.298   2.917  0.00  0.00    +0.015 C 
ATOM     10  C   LIG    1       23.044 -20.045   4.738  0.00  0.00    +0.015 C 
ATOM     11  C   LIG    1       24.977 -21.572   5.259  0.00  0.00    +0.015 C 
ENDBRANCH   5   8
ENDBRANCH   1   2
BRANCH   1  13
ATOM     12  C   LIG    1       28.308 -13.445   3.262  0.00  0.00    +0.009 C 
ATOM     13  C   LIG    1       27.313 -14.609   3.433  0.00  0.00    +0.004 C 
BRANCH  13  14
ATOM     14  C   LIG    1       26.143 -14.121   4.326  0.00  0.00    +0.088 C 
BRANCH  14  15
ATOM     15  N   LIG    1       24.780 -14.231   3.771  0.00  0.00    -0.302 NA
ATOM     16  C   LIG    1       23.798 -13.544   4.633  0.00  0.00    +0.084 C 
ATOM     17  C   LIG    1       23.896 -12.013   4.586  0.00  0.00    +0.015 C 
ATOM     18  C   LIG    1       23.860 -11.480   3.155  0.00  0.00    +0.002 C 
ATOM     19  C   LIG    1       24.826 -12.239   2.249  0.00  0.00    +0.015 C 
ATOM     20  C   LIG    1       24.627 -13.748   2.391  0.00  0.00    +0.084 C 
ENDBRANCH  14  15
ENDBRANCH  13  14
ENDBRANCH   1  13
TORSDOF 5
ENDMDL
