MODEL 1
REMARK VINA RESULT:      -8.5      0.000      0.000
REMARK  Name = *****
REMARK                            x       y       z     vdW  Elec       q    Type
REMARK                         _______ _______ _______ _____ _____    ______ ____
ROOT
ATOM      1  C   LIG    1       26.648 -20.023   6.642  0.00  0.00    -0.000 C 
ATOM      2  C   LIG    1       25.532 -20.151   5.898  0.00  0.00    -0.066 C 
ATOM      3  C   LIG    1       24.206 -20.673   6.450  0.00  0.00    +0.021 C 
ATOM      4  C   LIG    1       24.188 -21.229   7.882  0.00  0.00    +0.009 C 
ATOM      5  C   LIG    1       23.124 -22.314   7.887  0.00  0.00    +0.005 C 
ATOM      6  C   LIG    1       23.224 -22.992   6.504  0.00  0.00    -0.002 C 
ATOM      7  C   LIG    1       23.538 -21.774   5.549  0.00  0.00    -0.022 C 
ATOM      8  C   LIG    1       22.179 -21.194   5.051  0.00  0.00    +0.012 C 
ATOM      9  C   LIG    1       24.376 -22.106   4.300  0.00  0.00    +0.008 C 
ATOM     10  C   LIG    1       24.907 -20.889   3.543  0.00  0.00    +0.005 C 
ATOM     11  C   LIG    1       25.420 -19.763   4.438  0.00  0.00    +0.031 C 
ENDROOT
BRANCH   1  19
ATOM     12  C   LIG    1       29.066 -22.344   7.177  0.00  0.00    +0.015 C 
ATOM     13  C   LIG    1       29.396 -21.084   7.499  0.00  0.00    -0.023 C 
ATOM     14  C   LIG    1       30.114 -20.645   8.761  0.00  0.00    +0.147 C 
ATOM     15  C   LIG    1       31.421 -19.922   8.412  0.00  0.00    +0.067 C 
ATOM     16  C   LIG    1       31.224 -18.807   7.381  0.00  0.00    +0.122 C 
ATOM     17  C   LIG    1       30.410 -19.262   6.159  0.00  0.00    +0.067 C 
ATOM     18  C   LIG    1       29.139 -19.971   6.583  0.00  0.00    -0.040 C 
ATOM     19  C   LIG    1       27.934 -19.523   6.200  0.00  0.00    +0.004 C 
BRANCH  14  20
ATOM     20  O   LIG    1       30.405 -21.748   9.615  0.00  0.00    -0.387 OA
ATOM     21  H   LIG    1       31.235 -22.144   9.301  0.00  0.00    +0.210 HD
ENDBRANCH  14  20
BRANCH  16  22
ATOM     22  O   LIG    1       30.609 -17.673   7.997  0.00  0.00    -0.391 OA
ATOM     23  H   LIG    1       31.104 -16.874   7.741  0.00  0.00    +0.210 HD
ENDBRANCH  16  22
ENDBRANCH   1  19
BRANCH   6  24
ATOM     24  C   LIG    1       24.135 -24.280   6.559  0.00  0.00    -0.010 C 
ATOM     25  C   LIG    1       25.608 -24.008   6.877  0.00  0.00    +0.008 C 
BRANCH  24  26
ATOM     26  C   LIG    1       23.961 -25.206   5.327  0.00  0.00    +0.004 C 
BRANCH  26  27
ATOM     27  C   LIG    1       24.668 -26.579   5.358  0.00  0.00    +0.003 C 
BRANCH  27  28
ATOM     28  C   LIG    1       24.313 -27.505   6.533  0.00  0.00    +0.034 C 
BRANCH  28  29
ATOM     29  C   LIG    1       24.319 -29.015   6.171  0.00  0.00    +0.060 C 
ATOM     30  C   LIG    1       24.280 -29.916   7.410  0.00  0.00    +0.041 C 
ATOM     31  C   LIG    1       25.543 -29.351   5.307  0.00  0.00    +0.041 C 
BRANCH  29  32
ATOM     32  O   LIG    1       23.154 -29.297   5.390  0.00  0.00    -0.389 OA
ATOM     33  H   LIG    1       22.960 -28.512   4.847  0.00  0.00    +0.210 HD
ENDBRANCH  29  32
ENDBRANCH  28  29
ENDBRANCH  27  28
ENDBRANCH  26  27
ENDBRANCH  24  26
ENDBRANCH   6  24
TORSDOF 9
ENDMDL
MODEL 2
REMARK VINA RESULT:      -7.9      1.378      8.150
REMARK  Name = *****
REMARK                            x       y       z     vdW  Elec       q    Type
REMARK                         _______ _______ _______ _____ _____    ______ ____
ROOT
ATOM      1  C   LIG    1       23.863 -24.321   5.548  0.00  0.00    -0.000 C 
ATOM      2  C   LIG    1       23.341 -23.135   5.914  0.00  0.00    -0.066 C 
ATOM      3  C   LIG    1       23.606 -21.830   5.166  0.00  0.00    +0.021 C 
ATOM      4  C   LIG    1       24.648 -21.842   4.037  0.00  0.00    +0.009 C 
ATOM      5  C   LIG    1       25.265 -20.454   4.032  0.00  0.00    +0.005 C 
ATOM      6  C   LIG    1       25.338 -20.034   5.516  0.00  0.00    -0.002 C 
ATOM      7  C   LIG    1       24.002 -20.633   6.107  0.00  0.00    -0.022 C 
ATOM      8  C   LIG    1       22.888 -19.552   5.963  0.00  0.00    +0.012 C 
ATOM      9  C   LIG    1       24.052 -21.039   7.592  0.00  0.00    +0.008 C 
ATOM     10  C   LIG    1       22.861 -21.868   8.070  0.00  0.00    +0.005 C 
ATOM     11  C   LIG    1       22.395 -22.933   7.080  0.00  0.00    +0.031 C 
ENDROOT
BRANCH   1  19
ATOM     12  C   LIG    1       26.828 -25.699   6.459  0.00  0.00    +0.015 C 
ATOM     13  C   LIG    1       25.948 -26.544   5.902  0.00  0.00    -0.023 C 
ATOM     14  C   LIG    1       26.259 -27.585   4.843  0.00  0.00    +0.147 C 
ATOM     15  C   LIG    1       25.891 -28.987   5.343  0.00  0.00    +0.067 C 
ATOM     16  C   LIG    1       24.465 -29.062   5.898  0.00  0.00    +0.122 C 
ATOM     17  C   LIG    1       24.154 -27.935   6.896  0.00  0.00    +0.067 C 
ATOM     18  C   LIG    1       24.550 -26.584   6.334  0.00  0.00    -0.040 C 
ATOM     19  C   LIG    1       23.648 -25.602   6.191  0.00  0.00    +0.004 C 
BRANCH  14  20
ATOM     20  O   LIG    1       27.636 -27.569   4.474  0.00  0.00    -0.387 OA
ATOM     21  H   LIG    1       27.752 -28.223   3.766  0.00  0.00    +0.210 HD
ENDBRANCH  14  20
BRANCH  16  22
ATOM     22  O   LIG    1       23.521 -29.055   4.825  0.00  0.00    -0.391 OA
ATOM     23  H   LIG    1       22.662 -28.749   5.169  0.00  0.00    +0.210 HD
ENDBRANCH  16  22
ENDBRANCH   1  19
BRANCH   6  24
ATOM     24  C   LIG    1       26.755 -20.353   6.136  0.00  0.00    -0.010 C 
ATOM     25  C   LIG    1       26.819 -20.261   7.663  0.00  0.00    +0.008 C 
BRANCH  24  26
ATOM     26  C   LIG    1       27.911 -19.579   5.451  0.00  0.00    +0.004 C 
BRANCH  26  27
ATOM     27  C   LIG    1       29.334 -19.765   6.024  0.00  0.00    +0.003 C 
BRANCH  27  28
ATOM     28  C   LIG    1       29.977 -18.530   6.674  0.00  0.00    +0.034 C 
BRANCH  28  29
ATOM     29  C   LIG    1       30.733 -18.834   7.996  0.00  0.00    +0.060 C 
ATOM     30  C   LIG    1       30.729 -20.326   8.344  0.00  0.00    +0.041 C 
ATOM     31  C   LIG    1       30.137 -18.016   9.151  0.00  0.00    +0.041 C 
BRANCH  29  32
ATOM     32  O   LIG    1       32.096 -18.427   7.841  0.00  0.00    -0.389 OA
ATOM     33  H   LIG    1       32.549 -19.098   7.300  0.00  0.00    +0.210 HD
ENDBRANCH  29  32
ENDBRANCH  28  29
ENDBRANCH  27  28
ENDBRANCH  26  27
ENDBRANCH  24  26
ENDBRANCH   6  24
TORSDOF 9
ENDMDL
MODEL 3
REMARK VINA RESULT:      -7.3      4.894      9.299
REMARK  Name = *****
REMARK                            x       y       z     vdW  Elec       q    Type
REMARK                         _______ _______ _______ _____ _____    ______ ____
ROOT
ATOM      1  C   LIG    1       26.690 -28.958  10.433  0.00  0.00    -0.000 C 
ATOM      2  C   LIG    1       25.726 -29.893  10.533  0.00  0.00    -0.066 C 
ATOM      3  C   LIG    1       25.746 -31.212   9.760  0.00  0.00    +0.021 C 
ATOM      4  C   LIG    1       26.837 -31.410   8.697  0.00  0.00    +0.009 C 
ATOM      5  C   LIG    1       26.216 -32.296   7.631  0.00  0.00    +0.005 C 
ATOM      6  C   LIG    1       24.739 -31.856   7.543  0.00  0.00    -0.002 C 
ATOM      7  C   LIG    1       24.384 -31.548   9.051  0.00  0.00    -0.022 C 
ATOM      8  C   LIG    1       23.846 -32.862   9.695  0.00  0.00    +0.012 C 
ATOM      9  C   LIG    1       23.315 -30.462   9.275  0.00  0.00    +0.008 C 
ATOM     10  C   LIG    1       23.187 -29.977  10.719  0.00  0.00    +0.005 C 
ATOM     11  C   LIG    1       24.519 -29.794  11.444  0.00  0.00    +0.031 C 
ENDROOT
BRANCH   1  19
ATOM     12  C   LIG    1       28.443 -29.307  13.319  0.00  0.00    +0.015 C 
ATOM     13  C   LIG    1       27.319 -28.581  13.412  0.00  0.00    -0.023 C 
ATOM     14  C   LIG    1       26.280 -28.683  14.513  0.00  0.00    +0.147 C 
ATOM     15  C   LIG    1       26.116 -27.334  15.225  0.00  0.00    +0.067 C 
ATOM     16  C   LIG    1       25.887 -26.175  14.250  0.00  0.00    +0.122 C 
ATOM     17  C   LIG    1       26.900 -26.159  13.094  0.00  0.00    +0.067 C 
ATOM     18  C   LIG    1       27.010 -27.525  12.447  0.00  0.00    -0.040 C 
ATOM     19  C   LIG    1       26.752 -27.696  11.141  0.00  0.00    +0.004 C 
BRANCH  14  20
ATOM     20  O   LIG    1       26.624 -29.678  15.474  0.00  0.00    -0.387 OA
ATOM     21  H   LIG    1       26.725 -30.517  14.996  0.00  0.00    +0.210 HD
ENDBRANCH  14  20
BRANCH  16  22
ATOM     22  O   LIG    1       24.551 -26.217  13.744  0.00  0.00    -0.391 OA
ATOM     23  H   LIG    1       24.546 -25.838  12.847  0.00  0.00    +0.210 HD
ENDBRANCH  16  22
ENDBRANCH   1  19
BRANCH   6  24
ATOM     24  C   LIG    1       24.521 -30.801   6.390  0.00  0.00    -0.010 C 
ATOM     25  C   LIG    1       25.533 -30.888   5.244  0.00  0.00    +0.008 C 
BRANCH  24  26
ATOM     26  C   LIG    1       24.348 -29.351   6.912  0.00  0.00    +0.004 C 
BRANCH  26  27
ATOM     27  C   LIG    1       24.891 -28.204   6.030  0.00  0.00    +0.003 C 
BRANCH  27  28
ATOM     28  C   LIG    1       25.501 -27.002   6.770  0.00  0.00    +0.034 C 
BRANCH  28  29
ATOM     29  C   LIG    1       25.041 -25.624   6.221  0.00  0.00    +0.060 C 
ATOM     30  C   LIG    1       25.203 -25.514   4.701  0.00  0.00    +0.041 C 
ATOM     31  C   LIG    1       25.805 -24.489   6.920  0.00  0.00    +0.041 C 
BRANCH  29  32
ATOM     32  O   LIG    1       23.653 -25.456   6.525  0.00  0.00    -0.389 OA
ATOM     33  H   LIG    1       23.557 -24.635   7.040  0.00  0.00    +0.210 HD
ENDBRANCH  29  32
ENDBRANCH  28  29
ENDBRANCH  27  28
ENDBRANCH  26  27
ENDBRANCH  24  26
ENDBRANCH   6  24
TORSDOF 9
ENDMDL
MODEL 4
REMARK VINA RESULT:      -7.0      8.132     10.705
REMARK  Name = *****
REMARK                            x       y       z     vdW  Elec       q    Type
REMARK                         _______ _______ _______ _____ _____    ______ ____
ROOT
ATOM      1  C   LIG    1       23.996 -30.084  10.209  0.00  0.00    -0.000 C 
ATOM      2  C   LIG    1       25.169 -29.790  10.801  0.00  0.00    -0.066 C 
ATOM      3  C   LIG    1       25.347 -29.685  12.315  0.00  0.00    +0.021 C 
ATOM      4  C   LIG    1       24.091 -29.759  13.198  0.00  0.00    +0.009 C 
ATOM      5  C   LIG    1       24.389 -28.894  14.410  0.00  0.00    +0.005 C 
ATOM      6  C   LIG    1       25.218 -27.708  13.872  0.00  0.00    -0.002 C 
ATOM      7  C   LIG    1       26.120 -28.393  12.771  0.00  0.00    -0.022 C 
ATOM      8  C   LIG    1       27.437 -28.868  13.458  0.00  0.00    +0.012 C 
ATOM      9  C   LIG    1       26.524 -27.496  11.587  0.00  0.00    +0.008 C 
ATOM     10  C   LIG    1       27.148 -28.237  10.405  0.00  0.00    +0.005 C 
ATOM     11  C   LIG    1       26.474 -29.564  10.065  0.00  0.00    +0.031 C 
ENDROOT
BRANCH   1  19
ATOM     12  C   LIG    1       24.591 -33.271   9.202  0.00  0.00    +0.015 C 
ATOM     13  C   LIG    1       25.060 -32.313   8.389  0.00  0.00    -0.023 C 
ATOM     14  C   LIG    1       26.429 -32.287   7.736  0.00  0.00    +0.147 C 
ATOM     15  C   LIG    1       26.297 -32.236   6.209  0.00  0.00    +0.067 C 
ATOM     16  C   LIG    1       25.354 -31.127   5.734  0.00  0.00    +0.122 C 
ATOM     17  C   LIG    1       24.012 -31.123   6.483  0.00  0.00    +0.067 C 
ATOM     18  C   LIG    1       24.224 -31.181   7.983  0.00  0.00    -0.040 C 
ATOM     19  C   LIG    1       23.749 -30.219   8.788  0.00  0.00    +0.004 C 
BRANCH  14  20
ATOM     20  O   LIG    1       27.208 -33.425   8.099  0.00  0.00    -0.387 OA
ATOM     21  H   LIG    1       27.898 -33.529   7.422  0.00  0.00    +0.210 HD
ENDBRANCH  14  20
BRANCH  16  22
ATOM     22  O   LIG    1       25.996 -29.855   5.851  0.00  0.00    -0.391 OA
ATOM     23  H   LIG    1       26.879 -29.914   5.445  0.00  0.00    +0.210 HD
ENDBRANCH  16  22
ENDBRANCH   1  19
BRANCH   6  24
ATOM     24  C   LIG    1       24.303 -26.460  13.559  0.00  0.00    -0.010 C 
ATOM     25  C   LIG    1       24.947 -25.104  13.863  0.00  0.00    +0.008 C 
BRANCH  24  26
ATOM     26  C   LIG    1       22.878 -26.581  14.159  0.00  0.00    +0.004 C 
BRANCH  26  27
ATOM     27  C   LIG    1       21.693 -26.680  13.172  0.00  0.00    +0.003 C 
BRANCH  27  28
ATOM     28  C   LIG    1       20.356 -27.166  13.755  0.00  0.00    +0.034 C 
BRANCH  28  29
ATOM     29  C   LIG    1       20.160 -28.705  13.686  0.00  0.00    +0.060 C 
ATOM     30  C   LIG    1       20.701 -29.422  14.928  0.00  0.00    +0.041 C 
ATOM     31  C   LIG    1       20.818 -29.270  12.418  0.00  0.00    +0.041 C 
BRANCH  29  32
ATOM     32  O   LIG    1       18.759 -28.979  13.600  0.00  0.00    -0.389 OA
ATOM     33  H   LIG    1       18.309 -28.157  13.335  0.00  0.00    +0.210 HD
ENDBRANCH  29  32
ENDBRANCH  28  29
ENDBRANCH  27  28
ENDBRANCH  26  27
ENDBRANCH  24  26
ENDBRANCH   6  24
TORSDOF 9
ENDMDL
MODEL 5
REMARK VINA RESULT:      -6.9      4.832     11.476
REMARK  Name = *****
REMARK                            x       y       z     vdW  Elec       q    Type
REMARK                         _______ _______ _______ _____ _____    ______ ____
ROOT
ATOM      1  C   LIG    1       22.347 -30.533  10.329  0.00  0.00    -0.000 C 
ATOM      2  C   LIG    1       23.250 -31.242   9.625  0.00  0.00    -0.066 C 
ATOM      3  C   LIG    1       24.666 -30.748   9.331  0.00  0.00    +0.021 C 
ATOM      4  C   LIG    1       25.025 -29.306   9.720  0.00  0.00    +0.009 C 
ATOM      5  C   LIG    1       26.051 -28.848   8.698  0.00  0.00    +0.005 C 
ATOM      6  C   LIG    1       25.616 -29.492   7.365  0.00  0.00    -0.002 C 
ATOM      7  C   LIG    1       25.090 -30.909   7.825  0.00  0.00    -0.022 C 
ATOM      8  C   LIG    1       26.293 -31.900   7.792  0.00  0.00    +0.012 C 
ATOM      9  C   LIG    1       23.974 -31.519   6.957  0.00  0.00    +0.008 C 
ATOM     10  C   LIG    1       23.285 -32.740   7.566  0.00  0.00    +0.005 C 
ATOM     11  C   LIG    1       23.010 -32.629   9.064  0.00  0.00    +0.031 C 
ENDROOT
BRANCH   1  19
ATOM     12  C   LIG    1       21.039 -28.451  12.669  0.00  0.00    +0.015 C 
ATOM     13  C   LIG    1       20.801 -29.757  12.862  0.00  0.00    -0.023 C 
ATOM     14  C   LIG    1       20.915 -30.498  14.181  0.00  0.00    +0.147 C 
ATOM     15  C   LIG    1       19.572 -31.139  14.555  0.00  0.00    +0.067 C 
ATOM     16  C   LIG    1       18.976 -31.972  13.416  0.00  0.00    +0.122 C 
ATOM     17  C   LIG    1       18.964 -31.222  12.073  0.00  0.00    +0.067 C 
ATOM     18  C   LIG    1       20.320 -30.613  11.777  0.00  0.00    -0.040 C 
ATOM     19  C   LIG    1       20.997 -30.936  10.664  0.00  0.00    +0.004 C 
BRANCH  14  20
ATOM     20  O   LIG    1       21.330 -29.636  15.238  0.00  0.00    -0.387 OA
ATOM     21  H   LIG    1       21.590 -30.201  15.984  0.00  0.00    +0.210 HD
ENDBRANCH  14  20
BRANCH  16  22
ATOM     22  O   LIG    1       19.681 -33.209  13.293  0.00  0.00    -0.391 OA
ATOM     23  H   LIG    1       19.982 -33.305  12.371  0.00  0.00    +0.210 HD
ENDBRANCH  16  22
ENDBRANCH   1  19
BRANCH   6  24
ATOM     24  C   LIG    1       24.736 -28.501   6.507  0.00  0.00    -0.010 C 
ATOM     25  C   LIG    1       24.678 -28.831   5.012  0.00  0.00    +0.008 C 
BRANCH  24  26
ATOM     26  C   LIG    1       25.066 -27.008   6.766  0.00  0.00    +0.004 C 
BRANCH  26  27
ATOM     27  C   LIG    1       24.431 -25.961   5.825  0.00  0.00    +0.003 C 
BRANCH  27  28
ATOM     28  C   LIG    1       23.736 -24.767   6.499  0.00  0.00    +0.034 C 
BRANCH  28  29
ATOM     29  C   LIG    1       24.491 -23.420   6.329  0.00  0.00    +0.060 C 
ATOM     30  C   LIG    1       25.815 -23.389   7.100  0.00  0.00    +0.041 C 
ATOM     31  C   LIG    1       23.597 -22.249   6.761  0.00  0.00    +0.041 C 
BRANCH  29  32
ATOM     32  O   LIG    1       24.791 -23.241   4.941  0.00  0.00    -0.389 OA
ATOM     33  H   LIG    1       25.498 -22.574   4.872  0.00  0.00    +0.210 HD
ENDBRANCH  29  32
ENDBRANCH  28  29
ENDBRANCH  27  28
ENDBRANCH  26  27
ENDBRANCH  24  26
ENDBRANCH   6  24
TORSDOF 9
ENDMDL
MODEL 6
REMARK VINA RESULT:      -6.7      6.530     10.735
REMARK  Name = *****
REMARK                            x       y       z     vdW  Elec       q    Type
REMARK                         _______ _______ _______ _____ _____    ______ ____
ROOT
ATOM      1  C   LIG    1       23.597 -29.807   9.988  0.00  0.00    -0.000 C 
ATOM      2  C   LIG    1       22.744 -30.343  10.882  0.00  0.00    -0.066 C 
ATOM      3  C   LIG    1       22.372 -29.668  12.202  0.00  0.00    +0.021 C 
ATOM      4  C   LIG    1       23.131 -28.393  12.601  0.00  0.00    +0.009 C 
ATOM      5  C   LIG    1       23.179 -28.403  14.120  0.00  0.00    +0.005 C 
ATOM      6  C   LIG    1       23.347 -29.885  14.514  0.00  0.00    -0.002 C 
ATOM      7  C   LIG    1       22.452 -30.627  13.445  0.00  0.00    -0.022 C 
ATOM      8  C   LIG    1       21.010 -30.744  14.026  0.00  0.00    +0.012 C 
ATOM      9  C   LIG    1       22.907 -32.050  13.067  0.00  0.00    +0.008 C 
ATOM     10  C   LIG    1       22.210 -32.641  11.842  0.00  0.00    +0.005 C 
ATOM     11  C   LIG    1       22.008 -31.654  10.694  0.00  0.00    +0.031 C 
ENDROOT
BRANCH   1  19
ATOM     12  C   LIG    1       26.496 -28.409   8.912  0.00  0.00    +0.015 C 
ATOM     13  C   LIG    1       25.549 -28.562   7.975  0.00  0.00    -0.023 C 
ATOM     14  C   LIG    1       25.147 -27.532   6.937  0.00  0.00    +0.147 C 
ATOM     15  C   LIG    1       25.338 -28.092   5.521  0.00  0.00    +0.067 C 
ATOM     16  C   LIG    1       24.682 -29.463   5.333  0.00  0.00    +0.122 C 
ATOM     17  C   LIG    1       25.036 -30.452   6.456  0.00  0.00    +0.067 C 
ATOM     18  C   LIG    1       24.827 -29.827   7.820  0.00  0.00    -0.040 C 
ATOM     19  C   LIG    1       23.986 -30.373   8.712  0.00  0.00    +0.004 C 
BRANCH  14  20
ATOM     20  O   LIG    1       25.899 -26.329   7.067  0.00  0.00    -0.387 OA
ATOM     21  H   LIG    1       26.761 -26.480   6.645  0.00  0.00    +0.210 HD
ENDBRANCH  14  20
BRANCH  16  22
ATOM     22  O   LIG    1       23.264 -29.317   5.224  0.00  0.00    -0.391 OA
ATOM     23  H   LIG    1       23.068 -28.416   4.911  0.00  0.00    +0.210 HD
ENDBRANCH  16  22
ENDBRANCH   1  19
BRANCH   6  24
ATOM     24  C   LIG    1       24.866 -30.251  14.746  0.00  0.00    -0.010 C 
ATOM     25  C   LIG    1       25.098 -31.564  15.499  0.00  0.00    +0.008 C 
BRANCH  24  26
ATOM     26  C   LIG    1       25.693 -29.080  15.338  0.00  0.00    +0.004 C 
BRANCH  26  27
ATOM     27  C   LIG    1       26.851 -28.519  14.483  0.00  0.00    +0.003 C 
BRANCH  27  28
ATOM     28  C   LIG    1       27.181 -27.029  14.670  0.00  0.00    +0.034 C 
BRANCH  28  29
ATOM     29  C   LIG    1       26.734 -26.131  13.484  0.00  0.00    +0.060 C 
ATOM     30  C   LIG    1       25.406 -25.417  13.757  0.00  0.00    +0.041 C 
ATOM     31  C   LIG    1       26.637 -26.960  12.194  0.00  0.00    +0.041 C 
BRANCH  29  32
ATOM     32  O   LIG    1       27.733 -25.129  13.275  0.00  0.00    -0.389 OA
ATOM     33  H   LIG    1       28.532 -25.396  13.765  0.00  0.00    +0.210 HD
ENDBRANCH  29  32
ENDBRANCH  28  29
ENDBRANCH  27  28
ENDBRANCH  26  27
ENDBRANCH  24  26
ENDBRANCH   6  24
TORSDOF 9
ENDMDL
MODEL 7
REMARK VINA RESULT:      -6.6      7.540     10.778
REMARK  Name = *****
REMARK                            x       y       z     vdW  Elec       q    Type
REMARK                         _______ _______ _______ _____ _____    ______ ____
ROOT
ATOM      1  C   LIG    1       24.345 -27.327  12.889  0.00  0.00    -0.000 C 
ATOM      2  C   LIG    1       25.519 -27.908  13.201  0.00  0.00    -0.066 C 
ATOM      3  C   LIG    1       26.637 -28.147  12.187  0.00  0.00    +0.021 C 
ATOM      4  C   LIG    1       26.346 -27.857  10.707  0.00  0.00    +0.009 C 
ATOM      5  C   LIG    1       27.192 -28.843   9.920  0.00  0.00    +0.005 C 
ATOM      6  C   LIG    1       27.183 -30.144  10.751  0.00  0.00    -0.002 C 
ATOM      7  C   LIG    1       27.230 -29.603  12.234  0.00  0.00    -0.022 C 
ATOM      8  C   LIG    1       28.728 -29.472  12.648  0.00  0.00    +0.012 C 
ATOM      9  C   LIG    1       26.543 -30.489  13.290  0.00  0.00    +0.008 C 
ATOM     10  C   LIG    1       26.350 -29.828  14.654  0.00  0.00    +0.005 C 
ATOM     11  C   LIG    1       25.912 -28.365  14.590  0.00  0.00    +0.031 C 
ENDROOT
BRANCH   1  19
ATOM     12  C   LIG    1       22.880 -30.221  13.889  0.00  0.00    +0.015 C 
ATOM     13  C   LIG    1       22.036 -29.230  13.567  0.00  0.00    -0.023 C 
ATOM     14  C   LIG    1       20.780 -29.366  12.727  0.00  0.00    +0.147 C 
ATOM     15  C   LIG    1       19.549 -28.916  13.523  0.00  0.00    +0.067 C 
ATOM     16  C   LIG    1       19.730 -27.536  14.164  0.00  0.00    +0.122 C 
ATOM     17  C   LIG    1       21.058 -27.403  14.927  0.00  0.00    +0.067 C 
ATOM     18  C   LIG    1       22.224 -27.871  14.079  0.00  0.00    -0.040 C 
ATOM     19  C   LIG    1       23.245 -27.051  13.791  0.00  0.00    +0.004 C 
BRANCH  14  20
ATOM     20  O   LIG    1       20.583 -30.706  12.283  0.00  0.00    -0.387 OA
ATOM     21  H   LIG    1       19.784 -30.712  11.731  0.00  0.00    +0.210 HD
ENDBRANCH  14  20
BRANCH  16  22
ATOM     22  O   LIG    1       19.621 -26.516  13.168  0.00  0.00    -0.391 OA
ATOM     23  H   LIG    1       18.859 -25.950  13.385  0.00  0.00    +0.210 HD
ENDBRANCH  16  22
ENDBRANCH   1  19
BRANCH   6  24
ATOM     24  C   LIG    1       26.064 -31.139  10.250  0.00  0.00    -0.010 C 
ATOM     25  C   LIG    1       26.511 -32.095   9.140  0.00  0.00    +0.008 C 
BRANCH  24  26
ATOM     26  C   LIG    1       24.724 -30.434   9.913  0.00  0.00    +0.004 C 
BRANCH  26  27
ATOM     27  C   LIG    1       24.214 -30.525   8.458  0.00  0.00    +0.003 C 
BRANCH  27  28
ATOM     28  C   LIG    1       24.384 -29.266   7.593  0.00  0.00    +0.034 C 
BRANCH  28  29
ATOM     29  C   LIG    1       24.499 -29.556   6.071  0.00  0.00    +0.060 C 
ATOM     30  C   LIG    1       25.224 -30.874   5.779  0.00  0.00    +0.041 C 
ATOM     31  C   LIG    1       25.202 -28.392   5.357  0.00  0.00    +0.041 C 
BRANCH  29  32
ATOM     32  O   LIG    1       23.179 -29.656   5.529  0.00  0.00    -0.389 OA
ATOM     33  H   LIG    1       23.257 -29.942   4.601  0.00  0.00    +0.210 HD
ENDBRANCH  29  32
ENDBRANCH  28  29
ENDBRANCH  27  28
ENDBRANCH  26  27
ENDBRANCH  24  26
ENDBRANCH   6  24
TORSDOF 9
ENDMDL
MODEL 8
REMARK VINA RESULT:      -6.6      7.428     10.768
REMARK  Name = *****
REMARK                            x       y       z     vdW  Elec       q    Type
REMARK                         _______ _______ _______ _____ _____    ______ ____
ROOT
ATOM      1  C   LIG    1       23.225 -30.082  10.490  0.00  0.00    -0.000 C 
ATOM      2  C   LIG    1       23.162 -30.387  11.800  0.00  0.00    -0.066 C 
ATOM      3  C   LIG    1       22.647 -29.423  12.867  0.00  0.00    +0.021 C 
ATOM      4  C   LIG    1       22.337 -27.978  12.447  0.00  0.00    +0.009 C 
ATOM      5  C   LIG    1       22.627 -27.124  13.670  0.00  0.00    +0.005 C 
ATOM      6  C   LIG    1       23.854 -27.776  14.342  0.00  0.00    -0.002 C 
ATOM      7  C   LIG    1       23.584 -29.317  14.125  0.00  0.00    -0.022 C 
ATOM      8  C   LIG    1       22.767 -29.837  15.348  0.00  0.00    +0.012 C 
ATOM      9  C   LIG    1       24.838 -30.203  14.007  0.00  0.00    +0.008 C 
ATOM     10  C   LIG    1       24.573 -31.627  13.520  0.00  0.00    +0.005 C 
ATOM     11  C   LIG    1       23.548 -31.727  12.391  0.00  0.00    +0.031 C 
ENDROOT
BRANCH   1  19
ATOM     12  C   LIG    1       26.243 -29.036   9.342  0.00  0.00    +0.015 C 
ATOM     13  C   LIG    1       25.359 -29.389   8.397  0.00  0.00    -0.023 C 
ATOM     14  C   LIG    1       25.070 -28.628   7.117  0.00  0.00    +0.147 C 
ATOM     15  C   LIG    1       25.339 -29.512   5.893  0.00  0.00    +0.067 C 
ATOM     16  C   LIG    1       24.648 -30.875   5.983  0.00  0.00    +0.122 C 
ATOM     17  C   LIG    1       24.884 -31.576   7.331  0.00  0.00    +0.067 C 
ATOM     18  C   LIG    1       24.603 -30.639   8.489  0.00  0.00    -0.040 C 
ATOM     19  C   LIG    1       23.682 -30.942   9.417  0.00  0.00    +0.004 C 
BRANCH  14  20
ATOM     20  O   LIG    1       25.855 -27.442   7.018  0.00  0.00    -0.387 OA
ATOM     21  H   LIG    1       25.997 -27.115   7.922  0.00  0.00    +0.210 HD
ENDBRANCH  14  20
BRANCH  16  22
ATOM     22  O   LIG    1       23.248 -30.732   5.733  0.00  0.00    -0.391 OA
ATOM     23  H   LIG    1       22.934 -29.923   6.175  0.00  0.00    +0.210 HD
ENDBRANCH  16  22
ENDBRANCH   1  19
BRANCH   6  24
ATOM     24  C   LIG    1       25.196 -27.080  13.889  0.00  0.00    -0.010 C 
ATOM     25  C   LIG    1       25.125 -25.553  13.797  0.00  0.00    +0.008 C 
BRANCH  24  26
ATOM     26  C   LIG    1       25.816 -27.716  12.618  0.00  0.00    +0.004 C 
BRANCH  26  27
ATOM     27  C   LIG    1       27.355 -27.835  12.555  0.00  0.00    +0.003 C 
BRANCH  27  28
ATOM     28  C   LIG    1       27.934 -29.259  12.589  0.00  0.00    +0.034 C 
BRANCH  28  29
ATOM     29  C   LIG    1       28.715 -29.591  13.889  0.00  0.00    +0.060 C 
ATOM     30  C   LIG    1       28.419 -28.601  15.021  0.00  0.00    +0.041 C 
ATOM     31  C   LIG    1       30.224 -29.641  13.608  0.00  0.00    +0.041 C 
BRANCH  29  32
ATOM     32  O   LIG    1       28.320 -30.892  14.335  0.00  0.00    -0.389 OA
ATOM     33  H   LIG    1       28.286 -30.878  15.308  0.00  0.00    +0.210 HD
ENDBRANCH  29  32
ENDBRANCH  28  29
ENDBRANCH  27  28
ENDBRANCH  26  27
ENDBRANCH  24  26
ENDBRANCH   6  24
TORSDOF 9
ENDMDL
MODEL 9
REMARK VINA RESULT:      -6.6      3.091      8.747
REMARK  Name = *****
REMARK                            x       y       z     vdW  Elec       q    Type
REMARK                         _______ _______ _______ _____ _____    ______ ____
ROOT
ATOM      1  C   LIG    1       25.104 -24.372   6.489  0.00  0.00    -0.000 C 
ATOM      2  C   LIG    1       24.756 -23.233   7.117  0.00  0.00    -0.066 C 
ATOM      3  C   LIG    1       23.809 -22.195   6.516  0.00  0.00    +0.021 C 
ATOM      4  C   LIG    1       23.360 -22.382   5.059  0.00  0.00    +0.009 C 
ATOM      5  C   LIG    1       23.155 -20.982   4.508  0.00  0.00    +0.005 C 
ATOM      6  C   LIG    1       24.260 -20.121   5.158  0.00  0.00    -0.002 C 
ATOM      7  C   LIG    1       24.346 -20.720   6.617  0.00  0.00    -0.022 C 
ATOM      8  C   LIG    1       23.346 -19.931   7.518  0.00  0.00    +0.012 C 
ATOM      9  C   LIG    1       25.728 -20.637   7.292  0.00  0.00    +0.008 C 
ATOM     10  C   LIG    1       25.867 -21.462   8.571  0.00  0.00    +0.005 C 
ATOM     11  C   LIG    1       25.213 -22.840   8.507  0.00  0.00    +0.031 C 
ENDROOT
BRANCH   1  19
ATOM     12  C   LIG    1       25.170 -27.008   4.351  0.00  0.00    +0.015 C 
ATOM     13  C   LIG    1       25.085 -27.324   5.651  0.00  0.00    -0.023 C 
ATOM     14  C   LIG    1       24.165 -28.367   6.258  0.00  0.00    +0.147 C 
ATOM     15  C   LIG    1       24.978 -29.437   6.996  0.00  0.00    +0.067 C 
ATOM     16  C   LIG    1       25.986 -28.840   7.982  0.00  0.00    +0.122 C 
ATOM     17  C   LIG    1       26.836 -27.720   7.360  0.00  0.00    +0.067 C 
ATOM     18  C   LIG    1       25.965 -26.706   6.645  0.00  0.00    -0.040 C 
ATOM     19  C   LIG    1       25.978 -25.411   6.995  0.00  0.00    +0.004 C 
BRANCH  14  20
ATOM     20  O   LIG    1       23.355 -28.997   5.268  0.00  0.00    -0.387 OA
ATOM     21  H   LIG    1       23.839 -28.949   4.427  0.00  0.00    +0.210 HD
ENDBRANCH  14  20
BRANCH  16  22
ATOM     22  O   LIG    1       25.309 -28.365   9.148  0.00  0.00    -0.391 OA
ATOM     23  H   LIG    1       24.457 -27.979   8.877  0.00  0.00    +0.210 HD
ENDBRANCH  16  22
ENDBRANCH   1  19
BRANCH   6  24
ATOM     24  C   LIG    1       25.523 -20.000   4.219  0.00  0.00    -0.010 C 
ATOM     25  C   LIG    1       26.855 -19.839   4.957  0.00  0.00    +0.008 C 
BRANCH  24  26
ATOM     26  C   LIG    1       25.347 -18.952   3.089  0.00  0.00    +0.004 C 
BRANCH  26  27
ATOM     27  C   LIG    1       25.294 -17.463   3.497  0.00  0.00    +0.003 C 
BRANCH  27  28
ATOM     28  C   LIG    1       26.593 -16.659   3.324  0.00  0.00    +0.034 C 
BRANCH  28  29
ATOM     29  C   LIG    1       26.393 -15.119   3.369  0.00  0.00    +0.060 C 
ATOM     30  C   LIG    1       27.451 -14.415   4.225  0.00  0.00    +0.041 C 
ATOM     31  C   LIG    1       24.984 -14.779   3.877  0.00  0.00    +0.041 C 
BRANCH  29  32
ATOM     32  O   LIG    1       26.502 -14.610   2.036  0.00  0.00    -0.389 OA
ATOM     33  H   LIG    1       25.667 -14.158   1.819  0.00  0.00    +0.210 HD
ENDBRANCH  29  32
ENDBRANCH  28  29
ENDBRANCH  27  28
ENDBRANCH  26  27
ENDBRANCH  24  26
ENDBRANCH   6  24
TORSDOF 9
ENDMDL
