MODEL 1
REMARK VINA RESULT:      -1.8      0.000      0.000
REMARK  Name = *****
REMARK                            x       y       z     vdW  Elec       q    Type
REMARK                         _______ _______ _______ _____ _____    ______ ____
ROOT
ATOM      1  C   LIG    1       25.480 -17.422   3.635  0.00  0.00    +0.137 A 
ATOM      2  C   LIG    1       25.620 -16.075   3.321  0.00  0.00    +0.052 A 
ATOM      3  C   LIG    1       24.556 -15.177   3.495  0.00  0.00    -0.011 A 
ATOM      4  C   LIG    1       23.332 -15.663   3.972  0.00  0.00    +0.052 A 
ATOM      5  C   LIG    1       23.188 -17.022   4.240  0.00  0.00    +0.137 A 
ATOM      6  C   LIG    1       24.255 -17.912   4.084  0.00  0.00    +0.092 A 
ENDROOT
BRANCH   1   7
ATOM      7  O   LIG    1       26.542 -18.347   3.528  0.00  0.00    -0.411 OA
BRANCH   7  10
ATOM      8  C   LIG    1       28.742 -18.221   5.089  0.00  0.00    +0.135 C 
ATOM      9  N   LIG    1       27.852 -19.361   5.157  0.00  0.00    -0.273 N 
ATOM     10  C   LIG    1       26.700 -19.443   4.391  0.00  0.00    +0.408 C 
ATOM     11  O   LIG    1       25.928 -20.395   4.471  0.00  0.00    -0.226 OA
ATOM     12  C   LIG    1       28.038 -20.303   6.244  0.00  0.00    +0.135 C 
ENDBRANCH   7  10
ENDBRANCH   1   7
BRANCH   3  13
ATOM     13  C   LIG    1       24.757 -13.690   3.271  0.00  0.00    +0.158 C 
BRANCH  13  14
ATOM     14  O   LIG    1       23.613 -13.152   2.609  0.00  0.00    -0.386 OA
ATOM     15  H   LIG    1       22.850 -13.692   2.878  0.00  0.00    +0.210 HD
ENDBRANCH  13  14
BRANCH  13  16
ATOM     16  C   LIG    1       26.059 -13.467   2.459  0.00  0.00    +0.117 C 
BRANCH  16  17
ATOM     17  N   LIG    1       27.027 -12.530   3.067  0.00  0.00    -0.308 NA
ATOM     18  H   LIG    1       26.520 -11.701   3.384  0.00  0.00    +0.122 HD
BRANCH  17  19
ATOM     19  C   LIG    1       27.789 -13.102   4.204  0.00  0.00    +0.011 C 
ATOM     20  C   LIG    1       29.053 -12.277   4.499  0.00  0.00    +0.027 C 
ATOM     21  C   LIG    1       28.236 -14.534   3.832  0.00  0.00    +0.027 C 
ATOM     22  C   LIG    1       26.922 -13.181   5.475  0.00  0.00    +0.027 C 
ENDBRANCH  17  19
ENDBRANCH  16  17
ENDBRANCH  13  16
ENDBRANCH   3  13
BRANCH   5  23
ATOM     23  O   LIG    1       22.008 -17.571   4.780  0.00  0.00    -0.411 OA
BRANCH  23  24
ATOM     24  C   LIG    1       21.431 -18.755   4.312  0.00  0.00    +0.408 C 
ATOM     25  N   LIG    1       22.029 -19.861   4.910  0.00  0.00    -0.273 N 
ATOM     26  C   LIG    1       22.737 -19.782   6.174  0.00  0.00    +0.135 C 
ATOM     27  C   LIG    1       21.794 -21.181   4.358  0.00  0.00    +0.135 C 
ATOM     28  O   LIG    1       20.568 -18.823   3.461  0.00  0.00    -0.226 OA
ENDBRANCH  23  24
ENDBRANCH   5  23
TORSDOF 9
ENDMDL
MODEL 2
REMARK VINA RESULT:      -1.3      1.607      6.442
REMARK  Name = *****
REMARK                            x       y       z     vdW  Elec       q    Type
REMARK                         _______ _______ _______ _____ _____    ______ ____
ROOT
ATOM      1  C   LIG    1       25.591 -15.372   3.341  0.00  0.00    +0.137 A 
ATOM      2  C   LIG    1       24.250 -15.663   3.559  0.00  0.00    +0.052 A 
ATOM      3  C   LIG    1       23.836 -16.962   3.892  0.00  0.00    -0.011 A 
ATOM      4  C   LIG    1       24.798 -17.976   3.979  0.00  0.00    +0.052 A 
ATOM      5  C   LIG    1       26.133 -17.684   3.713  0.00  0.00    +0.137 A 
ATOM      6  C   LIG    1       26.546 -16.386   3.401  0.00  0.00    +0.092 A 
ENDROOT
BRANCH   1   7
ATOM      7  O   LIG    1       26.055 -14.067   3.061  0.00  0.00    -0.411 OA
BRANCH   7  10
ATOM      8  C   LIG    1       25.936 -12.946   5.514  0.00  0.00    +0.135 C 
ATOM      9  N   LIG    1       27.180 -12.975   4.775  0.00  0.00    -0.273 N 
ATOM     10  C   LIG    1       27.282 -13.569   3.527  0.00  0.00    +0.408 C 
ATOM     11  O   LIG    1       28.345 -13.622   2.913  0.00  0.00    -0.226 OA
ATOM     12  C   LIG    1       28.397 -12.612   5.479  0.00  0.00    +0.135 C 
ENDBRANCH   7  10
ENDBRANCH   1   7
BRANCH   3  13
ATOM     13  C   LIG    1       22.389 -17.242   4.252  0.00  0.00    +0.158 C 
BRANCH  13  14
ATOM     14  O   LIG    1       22.067 -16.576   5.473  0.00  0.00    -0.386 OA
ATOM     15  H   LIG    1       21.177 -16.871   5.730  0.00  0.00    +0.210 HD
ENDBRANCH  13  14
BRANCH  13  16
ATOM     16  C   LIG    1       22.174 -18.774   4.350  0.00  0.00    +0.117 C 
BRANCH  16  17
ATOM     17  N   LIG    1       22.668 -19.400   5.595  0.00  0.00    -0.308 NA
ATOM     18  H   LIG    1       22.015 -19.179   6.350  0.00  0.00    +0.122 HD
BRANCH  17  19
ATOM     19  C   LIG    1       22.834 -20.872   5.507  0.00  0.00    +0.011 C 
ATOM     20  C   LIG    1       24.002 -21.247   4.580  0.00  0.00    +0.027 C 
ATOM     21  C   LIG    1       21.545 -21.481   4.912  0.00  0.00    +0.027 C 
ATOM     22  C   LIG    1       23.065 -21.493   6.897  0.00  0.00    +0.027 C 
ENDBRANCH  17  19
ENDBRANCH  16  17
ENDBRANCH  13  16
ENDBRANCH   3  13
BRANCH   5  23
ATOM     23  O   LIG    1       27.162 -18.639   3.841  0.00  0.00    -0.411 OA
BRANCH  23  24
ATOM     24  C   LIG    1       28.170 -18.553   4.806  0.00  0.00    +0.408 C 
ATOM     25  N   LIG    1       27.953 -19.476   5.826  0.00  0.00    -0.273 N 
ATOM     26  C   LIG    1       27.140 -20.665   5.646  0.00  0.00    +0.135 C 
ATOM     27  C   LIG    1       28.700 -19.359   7.062  0.00  0.00    +0.135 C 
ATOM     28  O   LIG    1       29.079 -17.750   4.796  0.00  0.00    -0.226 OA
ENDBRANCH  23  24
ENDBRANCH   5  23
TORSDOF 9
ENDMDL
MODEL 3
REMARK VINA RESULT:      -1.3      2.022      3.183
REMARK  Name = *****
REMARK                            x       y       z     vdW  Elec       q    Type
REMARK                         _______ _______ _______ _____ _____    ______ ____
ROOT
ATOM      1  C   LIG    1       28.057 -17.452   4.255  0.00  0.00    +0.137 A 
ATOM      2  C   LIG    1       28.233 -16.086   4.065  0.00  0.00    +0.052 A 
ATOM      3  C   LIG    1       27.184 -15.280   3.599  0.00  0.00    -0.011 A 
ATOM      4  C   LIG    1       25.952 -15.877   3.302  0.00  0.00    +0.052 A 
ATOM      5  C   LIG    1       25.801 -17.254   3.452  0.00  0.00    +0.137 A 
ATOM      6  C   LIG    1       26.841 -18.052   3.934  0.00  0.00    +0.092 A 
ENDROOT
BRANCH   1   7
ATOM      7  O   LIG    1       29.069 -18.288   4.777  0.00  0.00    -0.411 OA
BRANCH   7  10
ATOM      8  C   LIG    1       27.623 -20.566   4.680  0.00  0.00    +0.135 C 
ATOM      9  N   LIG    1       28.189 -20.103   5.929  0.00  0.00    -0.273 N 
ATOM     10  C   LIG    1       28.960 -18.955   6.008  0.00  0.00    +0.408 C 
ATOM     11  O   LIG    1       29.467 -18.578   7.062  0.00  0.00    -0.226 OA
ATOM     12  C   LIG    1       28.166 -21.010   7.062  0.00  0.00    +0.135 C 
ENDBRANCH   7  10
ENDBRANCH   1   7
BRANCH   3  13
ATOM     13  C   LIG    1       27.346 -13.774   3.516  0.00  0.00    +0.158 C 
BRANCH  13  14
ATOM     14  O   LIG    1       28.715 -13.458   3.261  0.00  0.00    -0.386 OA
ATOM     15  H   LIG    1       29.248 -14.170   3.654  0.00  0.00    +0.210 HD
ENDBRANCH  13  14
BRANCH  13  16
ATOM     16  C   LIG    1       26.836 -13.132   4.832  0.00  0.00    +0.117 C 
BRANCH  16  17
ATOM     17  N   LIG    1       25.449 -13.479   5.205  0.00  0.00    -0.308 NA
ATOM     18  H   LIG    1       25.287 -13.178   6.168  0.00  0.00    +0.122 HD
BRANCH  17  19
ATOM     19  C   LIG    1       24.418 -12.875   4.325  0.00  0.00    +0.011 C 
ATOM     20  C   LIG    1       23.663 -11.745   5.045  0.00  0.00    +0.027 C 
ATOM     21  C   LIG    1       23.389 -13.964   3.947  0.00  0.00    +0.027 C 
ATOM     22  C   LIG    1       25.041 -12.327   3.027  0.00  0.00    +0.027 C 
ENDBRANCH  17  19
ENDBRANCH  16  17
ENDBRANCH  13  16
ENDBRANCH   3  13
BRANCH   5  23
ATOM     23  O   LIG    1       24.575 -17.913   3.231  0.00  0.00    -0.411 OA
BRANCH  23  24
ATOM     24  C   LIG    1       24.322 -19.221   3.654  0.00  0.00    +0.408 C 
ATOM     25  N   LIG    1       23.213 -19.261   4.493  0.00  0.00    -0.273 N 
ATOM     26  C   LIG    1       22.193 -18.228   4.493  0.00  0.00    +0.135 C 
ATOM     27  C   LIG    1       22.954 -20.453   5.275  0.00  0.00    +0.135 C 
ATOM     28  O   LIG    1       25.004 -20.187   3.378  0.00  0.00    -0.226 OA
ENDBRANCH  23  24
ENDBRANCH   5  23
TORSDOF 9
ENDMDL
MODEL 4
REMARK VINA RESULT:      -1.2      1.007      4.117
REMARK  Name = *****
REMARK                            x       y       z     vdW  Elec       q    Type
REMARK                         _______ _______ _______ _____ _____    ______ ____
ROOT
ATOM      1  C   LIG    1       22.930 -16.876   4.414  0.00  0.00    +0.137 A 
ATOM      2  C   LIG    1       22.934 -15.491   4.299  0.00  0.00    +0.052 A 
ATOM      3  C   LIG    1       24.057 -14.808   3.807  0.00  0.00    -0.011 A 
ATOM      4  C   LIG    1       25.193 -15.545   3.452  0.00  0.00    +0.052 A 
ATOM      5  C   LIG    1       25.196 -16.928   3.613  0.00  0.00    +0.137 A 
ATOM      6  C   LIG    1       24.070 -17.608   4.085  0.00  0.00    +0.092 A 
ENDROOT
BRANCH   1   7
ATOM      7  O   LIG    1       21.801 -17.604   4.849  0.00  0.00    -0.411 OA
BRANCH   7  10
ATOM      8  C   LIG    1       22.760 -19.842   6.015  0.00  0.00    +0.135 C 
ATOM      9  N   LIG    1       21.905 -19.925   4.850  0.00  0.00    -0.273 N 
ATOM     10  C   LIG    1       21.373 -18.797   4.245  0.00  0.00    +0.408 C 
ATOM     11  O   LIG    1       20.622 -18.867   3.275  0.00  0.00    -0.226 OA
ATOM     12  C   LIG    1       21.386 -21.228   4.479  0.00  0.00    +0.135 C 
ENDBRANCH   7  10
ENDBRANCH   1   7
BRANCH   3  13
ATOM     13  C   LIG    1       24.005 -13.311   3.567  0.00  0.00    +0.158 C 
BRANCH  13  14
ATOM     14  O   LIG    1       24.058 -13.054   2.164  0.00  0.00    -0.386 OA
ATOM     15  H   LIG    1       24.413 -13.856   1.742  0.00  0.00    +0.210 HD
ENDBRANCH  13  14
BRANCH  13  16
ATOM     16  C   LIG    1       25.172 -12.631   4.328  0.00  0.00    +0.117 C 
BRANCH  16  17
ATOM     17  N   LIG    1       26.472 -12.638   3.624  0.00  0.00    -0.308 NA
ATOM     18  H   LIG    1       26.700 -11.679   3.354  0.00  0.00    +0.122 HD
BRANCH  17  19
ATOM     19  C   LIG    1       27.589 -13.200   4.422  0.00  0.00    +0.011 C 
ATOM     20  C   LIG    1       28.075 -14.537   3.838  0.00  0.00    +0.027 C 
ATOM     21  C   LIG    1       27.087 -13.466   5.859  0.00  0.00    +0.027 C 
ATOM     22  C   LIG    1       28.772 -12.216   4.497  0.00  0.00    +0.027 C 
ENDBRANCH  17  19
ENDBRANCH  16  17
ENDBRANCH  13  16
ENDBRANCH   3  13
BRANCH   5  23
ATOM     23  O   LIG    1       26.279 -17.738   3.219  0.00  0.00    -0.411 OA
BRANCH  23  24
ATOM     24  C   LIG    1       27.162 -18.330   4.127  0.00  0.00    +0.408 C 
ATOM     25  N   LIG    1       26.630 -19.514   4.629  0.00  0.00    -0.273 N 
ATOM     26  C   LIG    1       25.599 -20.266   3.936  0.00  0.00    +0.135 C 
ATOM     27  C   LIG    1       27.236 -20.130   5.792  0.00  0.00    +0.135 C 
ATOM     28  O   LIG    1       28.223 -17.856   4.479  0.00  0.00    -0.226 OA
ENDBRANCH  23  24
ENDBRANCH   5  23
TORSDOF 9
ENDMDL
MODEL 5
REMARK VINA RESULT:      -1.2      1.950      4.319
REMARK  Name = *****
REMARK                            x       y       z     vdW  Elec       q    Type
REMARK                         _______ _______ _______ _____ _____    ______ ____
ROOT
ATOM      1  C   LIG    1       24.354 -18.897   3.709  0.00  0.00    +0.137 A 
ATOM      2  C   LIG    1       25.717 -18.632   3.661  0.00  0.00    +0.052 A 
ATOM      3  C   LIG    1       26.201 -17.315   3.683  0.00  0.00    -0.011 A 
ATOM      4  C   LIG    1       25.282 -16.259   3.731  0.00  0.00    +0.052 A 
ATOM      5  C   LIG    1       23.916 -16.533   3.732  0.00  0.00    +0.137 A 
ATOM      6  C   LIG    1       23.438 -17.846   3.729  0.00  0.00    +0.092 A 
ENDROOT
BRANCH   1   7
ATOM      7  O   LIG    1       23.830 -20.208   3.746  0.00  0.00    -0.411 OA
BRANCH   7  10
ATOM      8  C   LIG    1       25.192 -21.252   5.830  0.00  0.00    +0.135 C 
ATOM      9  N   LIG    1       23.744 -21.238   5.827  0.00  0.00    -0.273 N 
ATOM     10  C   LIG    1       23.016 -20.683   4.787  0.00  0.00    +0.408 C 
ATOM     11  O   LIG    1       21.788 -20.642   4.797  0.00  0.00    -0.226 OA
ATOM     12  C   LIG    1       23.059 -21.570   7.062  0.00  0.00    +0.135 C 
ENDBRANCH   7  10
ENDBRANCH   1   7
BRANCH   3  13
ATOM     13  C   LIG    1       27.690 -17.041   3.759  0.00  0.00    +0.158 C 
BRANCH  13  14
ATOM     14  O   LIG    1       28.347 -18.155   4.363  0.00  0.00    -0.386 OA
ATOM     15  H   LIG    1       29.280 -17.903   4.482  0.00  0.00    +0.210 HD
ENDBRANCH  13  14
BRANCH  13  16
ATOM     16  C   LIG    1       27.929 -15.726   4.546  0.00  0.00    +0.117 C 
BRANCH  16  17
ATOM     17  N   LIG    1       28.451 -14.600   3.744  0.00  0.00    -0.308 NA
ATOM     18  H   LIG    1       28.285 -14.801   2.756  0.00  0.00    +0.122 HD
BRANCH  17  19
ATOM     19  C   LIG    1       27.850 -13.287   4.083  0.00  0.00    +0.011 C 
ATOM     20  C   LIG    1       27.024 -12.732   2.910  0.00  0.00    +0.027 C 
ATOM     21  C   LIG    1       28.986 -12.281   4.377  0.00  0.00    +0.027 C 
ATOM     22  C   LIG    1       26.957 -13.387   5.334  0.00  0.00    +0.027 C 
ENDBRANCH  17  19
ENDBRANCH  16  17
ENDBRANCH  13  16
ENDBRANCH   3  13
BRANCH   5  23
ATOM     23  O   LIG    1       22.938 -15.525   3.841  0.00  0.00    -0.411 OA
BRANCH  23  24
ATOM     24  C   LIG    1       23.048 -14.444   4.721  0.00  0.00    +0.408 C 
ATOM     25  N   LIG    1       23.651 -13.359   4.092  0.00  0.00    -0.273 N 
ATOM     26  C   LIG    1       23.668 -13.200   2.649  0.00  0.00    +0.135 C 
ATOM     27  C   LIG    1       24.129 -12.249   4.891  0.00  0.00    +0.135 C 
ATOM     28  O   LIG    1       22.718 -14.458   5.889  0.00  0.00    -0.226 OA
ENDBRANCH  23  24
ENDBRANCH   5  23
TORSDOF 9
ENDMDL
MODEL 6
REMARK VINA RESULT:      -1.0      1.616      6.325
REMARK  Name = *****
REMARK                            x       y       z     vdW  Elec       q    Type
REMARK                         _______ _______ _______ _____ _____    ______ ____
ROOT
ATOM      1  C   LIG    1       26.242 -17.420   3.825  0.00  0.00    +0.137 A 
ATOM      2  C   LIG    1       24.898 -17.644   4.100  0.00  0.00    +0.052 A 
ATOM      3  C   LIG    1       23.967 -16.596   4.063  0.00  0.00    -0.011 A 
ATOM      4  C   LIG    1       24.416 -15.303   3.766  0.00  0.00    +0.052 A 
ATOM      5  C   LIG    1       25.772 -15.081   3.537  0.00  0.00    +0.137 A 
ATOM      6  C   LIG    1       26.695 -16.130   3.556  0.00  0.00    +0.092 A 
ENDROOT
BRANCH   1   7
ATOM      7  O   LIG    1       27.200 -18.457   3.796  0.00  0.00    -0.411 OA
BRANCH   7  10
ATOM      8  C   LIG    1       26.825 -20.455   5.572  0.00  0.00    +0.135 C 
ATOM      9  N   LIG    1       27.991 -19.601   5.657  0.00  0.00    -0.273 N 
ATOM     10  C   LIG    1       28.228 -18.585   4.744  0.00  0.00    +0.408 C 
ATOM     11  O   LIG    1       29.232 -17.880   4.796  0.00  0.00    -0.226 OA
ATOM     12  C   LIG    1       29.058 -19.995   6.558  0.00  0.00    +0.135 C 
ENDBRANCH   7  10
ENDBRANCH   1   7
BRANCH   3  13
ATOM     13  C   LIG    1       22.486 -16.872   4.239  0.00  0.00    +0.158 C 
BRANCH  13  14
ATOM     14  O   LIG    1       21.892 -15.816   4.994  0.00  0.00    -0.386 OA
ATOM     15  H   LIG    1       22.448 -15.028   4.863  0.00  0.00    +0.210 HD
ENDBRANCH  13  14
BRANCH  13  16
ATOM     16  C   LIG    1       22.301 -18.251   4.924  0.00  0.00    +0.117 C 
BRANCH  16  17
ATOM     17  N   LIG    1       22.458 -19.421   4.034  0.00  0.00    -0.308 NA
ATOM     18  H   LIG    1       23.197 -19.217   3.357  0.00  0.00    +0.122 HD
BRANCH  17  19
ATOM     19  C   LIG    1       22.781 -20.682   4.745  0.00  0.00    +0.011 C 
ATOM     20  C   LIG    1       21.530 -21.559   4.921  0.00  0.00    +0.027 C 
ATOM     21  C   LIG    1       23.316 -20.336   6.152  0.00  0.00    +0.027 C 
ATOM     22  C   LIG    1       23.864 -21.483   3.999  0.00  0.00    +0.027 C 
ENDBRANCH  17  19
ENDBRANCH  16  17
ENDBRANCH  13  16
ENDBRANCH   3  13
BRANCH   5  23
ATOM     23  O   LIG    1       26.286 -13.820   3.172  0.00  0.00    -0.411 OA
BRANCH  23  24
ATOM     24  C   LIG    1       27.595 -13.417   3.452  0.00  0.00    +0.408 C 
ATOM     25  N   LIG    1       27.685 -12.907   4.745  0.00  0.00    -0.273 N 
ATOM     26  C   LIG    1       26.727 -13.234   5.785  0.00  0.00    +0.135 C 
ATOM     27  C   LIG    1       28.868 -12.166   5.136  0.00  0.00    +0.135 C 
ATOM     28  O   LIG    1       28.518 -13.449   2.666  0.00  0.00    -0.226 OA
ENDBRANCH  23  24
ENDBRANCH   5  23
TORSDOF 9
ENDMDL
MODEL 7
REMARK VINA RESULT:      -1.0      2.020      4.634
REMARK  Name = *****
REMARK                            x       y       z     vdW  Elec       q    Type
REMARK                         _______ _______ _______ _____ _____    ______ ____
ROOT
ATOM      1  C   LIG    1       25.357 -17.425   3.538  0.00  0.00    +0.137 A 
ATOM      2  C   LIG    1       25.693 -16.124   3.183  0.00  0.00    +0.052 A 
ATOM      3  C   LIG    1       26.998 -15.639   3.362  0.00  0.00    -0.011 A 
ATOM      4  C   LIG    1       27.961 -16.482   3.929  0.00  0.00    +0.052 A 
ATOM      5  C   LIG    1       27.602 -17.769   4.324  0.00  0.00    +0.137 A 
ATOM      6  C   LIG    1       26.308 -18.257   4.128  0.00  0.00    +0.092 A 
ENDROOT
BRANCH   1   7
ATOM      7  O   LIG    1       24.072 -17.970   3.322  0.00  0.00    -0.411 OA
BRANCH   7  10
ATOM      8  C   LIG    1       22.161 -18.365   5.188  0.00  0.00    +0.135 C 
ATOM      9  N   LIG    1       22.795 -19.488   4.531  0.00  0.00    -0.273 N 
ATOM     10  C   LIG    1       23.758 -19.319   3.548  0.00  0.00    +0.408 C 
ATOM     11  O   LIG    1       24.274 -20.271   2.967  0.00  0.00    -0.226 OA
ATOM     12  C   LIG    1       22.212 -20.803   4.720  0.00  0.00    +0.135 C 
ENDBRANCH   7  10
ENDBRANCH   1   7
BRANCH   3  13
ATOM     13  C   LIG    1       27.385 -14.263   2.855  0.00  0.00    +0.158 C 
BRANCH  13  14
ATOM     14  O   LIG    1       28.442 -13.741   3.660  0.00  0.00    -0.386 OA
ATOM     15  H   LIG    1       29.249 -13.765   3.117  0.00  0.00    +0.210 HD
ENDBRANCH  13  14
BRANCH  13  16
ATOM     16  C   LIG    1       26.136 -13.344   2.865  0.00  0.00    +0.117 C 
BRANCH  16  17
ATOM     17  N   LIG    1       25.696 -12.897   4.204  0.00  0.00    -0.308 NA
ATOM     18  H   LIG    1       26.230 -12.063   4.459  0.00  0.00    +0.122 HD
BRANCH  17  19
ATOM     19  C   LIG    1       24.246 -12.595   4.294  0.00  0.00    +0.011 C 
ATOM     20  C   LIG    1       23.410 -13.886   4.337  0.00  0.00    +0.027 C 
ATOM     21  C   LIG    1       23.825 -11.802   3.037  0.00  0.00    +0.027 C 
ATOM     22  C   LIG    1       23.929 -11.740   5.535  0.00  0.00    +0.027 C 
ENDBRANCH  17  19
ENDBRANCH  16  17
ENDBRANCH  13  16
ENDBRANCH   3  13
BRANCH   5  23
ATOM     23  O   LIG    1       28.532 -18.692   4.844  0.00  0.00    -0.411 OA
BRANCH  23  24
ATOM     24  C   LIG    1       28.321 -19.406   6.028  0.00  0.00    +0.408 C 
ATOM     25  N   LIG    1       27.261 -20.297   5.881  0.00  0.00    -0.273 N 
ATOM     26  C   LIG    1       26.815 -20.778   4.586  0.00  0.00    +0.135 C 
ATOM     27  C   LIG    1       26.685 -20.916   7.057  0.00  0.00    +0.135 C 
ATOM     28  O   LIG    1       28.934 -19.240   7.062  0.00  0.00    -0.226 OA
ENDBRANCH  23  24
ENDBRANCH   5  23
TORSDOF 9
ENDMDL
MODEL 8
REMARK VINA RESULT:      -0.6      1.796      2.584
REMARK  Name = *****
REMARK                            x       y       z     vdW  Elec       q    Type
REMARK                         _______ _______ _______ _____ _____    ______ ____
ROOT
ATOM      1  C   LIG    1       26.056 -18.729   4.167  0.00  0.00    +0.137 A 
ATOM      2  C   LIG    1       26.741 -17.623   3.676  0.00  0.00    +0.052 A 
ATOM      3  C   LIG    1       26.068 -16.429   3.377  0.00  0.00    -0.011 A 
ATOM      4  C   LIG    1       24.681 -16.371   3.557  0.00  0.00    +0.052 A 
ATOM      5  C   LIG    1       23.997 -17.499   4.006  0.00  0.00    +0.137 A 
ATOM      6  C   LIG    1       24.671 -18.681   4.322  0.00  0.00    +0.092 A 
ENDROOT
BRANCH   1   7
ATOM      7  O   LIG    1       26.703 -19.929   4.535  0.00  0.00    -0.411 OA
BRANCH   7  10
ATOM      8  C   LIG    1       26.677 -21.572   6.677  0.00  0.00    +0.135 C 
ATOM      9  N   LIG    1       27.856 -20.795   6.356  0.00  0.00    -0.273 N 
ATOM     10  C   LIG    1       27.912 -19.965   5.248  0.00  0.00    +0.408 C 
ATOM     11  O   LIG    1       28.923 -19.330   4.956  0.00  0.00    -0.226 OA
ATOM     12  C   LIG    1       29.086 -21.105   7.061  0.00  0.00    +0.135 C 
ENDBRANCH   7  10
ENDBRANCH   1   7
BRANCH   3  13
ATOM     13  C   LIG    1       26.841 -15.191   2.963  0.00  0.00    +0.158 C 
BRANCH  13  14
ATOM     14  O   LIG    1       27.738 -14.820   4.011  0.00  0.00    -0.386 OA
ATOM     15  H   LIG    1       27.730 -15.545   4.659  0.00  0.00    +0.210 HD
ENDBRANCH  13  14
BRANCH  13  16
ATOM     16  C   LIG    1       25.843 -14.055   2.622  0.00  0.00    +0.117 C 
BRANCH  16  17
ATOM     17  N   LIG    1       25.687 -13.020   3.666  0.00  0.00    -0.308 NA
ATOM     18  H   LIG    1       26.275 -12.220   3.420  0.00  0.00    +0.122 HD
BRANCH  17  19
ATOM     19  C   LIG    1       24.290 -12.559   3.857  0.00  0.00    +0.011 C 
ATOM     20  C   LIG    1       23.317 -13.747   3.936  0.00  0.00    +0.027 C 
ATOM     21  C   LIG    1       23.883 -11.695   2.642  0.00  0.00    +0.027 C 
ATOM     22  C   LIG    1       24.153 -11.701   5.128  0.00  0.00    +0.027 C 
ENDBRANCH  17  19
ENDBRANCH  16  17
ENDBRANCH  13  16
ENDBRANCH   3  13
BRANCH   5  23
ATOM     23  O   LIG    1       22.613 -17.494   4.269  0.00  0.00    -0.411 OA
BRANCH  23  24
ATOM     24  C   LIG    1       21.787 -18.599   4.041  0.00  0.00    +0.408 C 
ATOM     25  N   LIG    1       22.145 -19.659   4.870  0.00  0.00    -0.273 N 
ATOM     26  C   LIG    1       22.877 -19.471   6.109  0.00  0.00    +0.135 C 
ATOM     27  C   LIG    1       21.623 -20.983   4.597  0.00  0.00    +0.135 C 
ATOM     28  O   LIG    1       20.914 -18.656   3.199  0.00  0.00    -0.226 OA
ENDBRANCH  23  24
ENDBRANCH   5  23
TORSDOF 9
ENDMDL
MODEL 9
REMARK VINA RESULT:      -0.2      2.046      4.542
REMARK  Name = *****
REMARK                            x       y       z     vdW  Elec       q    Type
REMARK                         _______ _______ _______ _____ _____    ______ ____
ROOT
ATOM      1  C   LIG    1       24.206 -16.269   3.729  0.00  0.00    +0.137 A 
ATOM      2  C   LIG    1       25.574 -16.043   3.832  0.00  0.00    +0.052 A 
ATOM      3  C   LIG    1       26.485 -17.110   3.840  0.00  0.00    -0.011 A 
ATOM      4  C   LIG    1       25.993 -18.420   3.766  0.00  0.00    +0.052 A 
ATOM      5  C   LIG    1       24.618 -18.637   3.710  0.00  0.00    +0.137 A 
ATOM      6  C   LIG    1       23.714 -17.572   3.683  0.00  0.00    +0.092 A 
ENDROOT
BRANCH   1   7
ATOM      7  O   LIG    1       23.261 -15.222   3.660  0.00  0.00    -0.411 OA
BRANCH   7  10
ATOM      8  C   LIG    1       23.873 -13.251   1.920  0.00  0.00    +0.135 C 
ATOM      9  N   LIG    1       23.796 -12.984   3.340  0.00  0.00    -0.273 N 
ATOM     10  C   LIG    1       23.456 -13.966   4.257  0.00  0.00    +0.408 C 
ATOM     11  O   LIG    1       23.360 -13.733   5.460  0.00  0.00    -0.226 OA
ATOM     12  C   LIG    1       23.815 -11.599   3.773  0.00  0.00    +0.135 C 
ENDBRANCH   7  10
ENDBRANCH   1   7
BRANCH   3  13
ATOM     13  C   LIG    1       27.979 -16.849   3.825  0.00  0.00    +0.158 C 
BRANCH  13  14
ATOM     14  O   LIG    1       28.654 -17.916   4.492  0.00  0.00    -0.386 OA
ATOM     15  H   LIG    1       29.165 -17.517   5.217  0.00  0.00    +0.210 HD
ENDBRANCH  13  14
BRANCH  13  16
ATOM     16  C   LIG    1       28.265 -15.476   4.485  0.00  0.00    +0.117 C 
BRANCH  16  17
ATOM     17  N   LIG    1       28.398 -14.342   3.545  0.00  0.00    -0.308 NA
ATOM     18  H   LIG    1       27.886 -14.568   2.690  0.00  0.00    +0.122 HD
BRANCH  17  19
ATOM     19  C   LIG    1       27.906 -13.051   4.083  0.00  0.00    +0.011 C 
ATOM     20  C   LIG    1       26.966 -13.267   5.281  0.00  0.00    +0.027 C 
ATOM     21  C   LIG    1       27.102 -12.327   2.979  0.00  0.00    +0.027 C 
ATOM     22  C   LIG    1       29.073 -12.140   4.508  0.00  0.00    +0.027 C 
ENDBRANCH  17  19
ENDBRANCH  16  17
ENDBRANCH  13  16
ENDBRANCH   3  13
BRANCH   5  23
ATOM     23  O   LIG    1       24.056 -19.921   3.571  0.00  0.00    -0.411 OA
BRANCH  23  24
ATOM     24  C   LIG    1       24.065 -20.875   4.594  0.00  0.00    +0.408 C 
ATOM     25  N   LIG    1       22.849 -20.878   5.273  0.00  0.00    -0.273 N 
ATOM     26  C   LIG    1       21.622 -20.372   4.685  0.00  0.00    +0.135 C 
ATOM     27  C   LIG    1       22.745 -21.569   6.542  0.00  0.00    +0.135 C 
ATOM     28  O   LIG    1       25.015 -21.568   4.894  0.00  0.00    -0.226 OA
ENDBRANCH  23  24
ENDBRANCH   5  23
TORSDOF 9
ENDMDL
