MODEL 1
REMARK VINA RESULT:      -6.7      0.000      0.000
REMARK  Name = *****
REMARK                            x       y       z     vdW  Elec       q    Type
REMARK                         _______ _______ _______ _____ _____    ______ ____
ROOT
ATOM      1  C   LIG    1       22.614 -18.471   4.602  0.00  0.00    +0.073 C 
ATOM      2  C   LIG    1       23.167 -19.892   4.609  0.00  0.00    +0.166 C 
ATOM      3  C   LIG    1       23.693 -20.279   3.233  0.00  0.00    +0.073 C 
ATOM      4  O   LIG    1       24.233 -19.973   5.556  0.00  0.00    -0.341 OA
ATOM      5  C   LIG    1       23.695 -20.655   6.692  0.00  0.00    +0.187 C 
ATOM      6  C   LIG    1       22.600 -21.524   6.115  0.00  0.00    +0.179 C 
ATOM      7  C   LIG    1       23.103 -22.908   5.682  0.00  0.00    +0.197 C 
ATOM      8  O   LIG    1       24.512 -22.929   5.439  0.00  0.00    -0.342 OA
ATOM      9  C   LIG    1       25.313 -22.622   6.588  0.00  0.00    +0.228 C 
ATOM     10  O   LIG    1       26.590 -22.135   6.160  0.00  0.00    -0.313 OA
ATOM     11  C   LIG    1       26.943 -21.055   7.025  0.00  0.00    +0.169 C 
ATOM     12  C   LIG    1       27.373 -19.858   6.182  0.00  0.00    +0.074 C 
ATOM     13  C   LIG    1       28.109 -21.480   7.917  0.00  0.00    +0.074 C 
ATOM     14  O   LIG    1       25.844 -20.702   7.872  0.00  0.00    -0.338 OA
ATOM     15  C   LIG    1       24.733 -21.491   7.439  0.00  0.00    +0.215 C 
ATOM     16  O   LIG    1       22.113 -20.784   4.989  0.00  0.00    -0.341 OA
ENDROOT
BRANCH   9  17
ATOM     17  C   LIG    1       25.533 -23.903   7.426  0.00  0.00    +0.262 C 
BRANCH  17  18
ATOM     18  O   LIG    1       26.300 -24.846   6.679  0.00  0.00    -0.220 OA
BRANCH  18  19
ATOM     19  S   LIG    1       25.525 -26.139   6.103  0.00  0.00    +0.149 S 
ATOM     20  O   LIG    1       25.973 -26.357   4.749  0.00  0.00    -0.130 OA
ATOM     21  O   LIG    1       24.131 -26.019   6.450  0.00  0.00    -0.130 OA
BRANCH  19  22
ATOM     22  N   LIG    1       26.161 -27.369   7.035  0.00  0.00    -0.183 NA
ATOM     23  H   LIG    1       27.178 -27.327   7.041  0.00  0.00    +0.146 HD
ATOM     24  H   LIG    1       25.746 -27.363   7.966  0.00  0.00    +0.146 HD
ENDBRANCH  19  22
ENDBRANCH  18  19
ENDBRANCH  17  18
ENDBRANCH   9  17
TORSDOF 4
ENDMDL
MODEL 2
REMARK VINA RESULT:      -6.4      3.392      4.462
REMARK  Name = *****
REMARK                            x       y       z     vdW  Elec       q    Type
REMARK                         _______ _______ _______ _____ _____    ______ ____
ROOT
ATOM      1  C   LIG    1       23.019 -20.119   5.657  0.00  0.00    +0.073 C 
ATOM      2  C   LIG    1       24.173 -21.091   5.879  0.00  0.00    +0.166 C 
ATOM      3  C   LIG    1       24.397 -21.962   4.649  0.00  0.00    +0.073 C 
ATOM      4  O   LIG    1       25.363 -20.347   6.146  0.00  0.00    -0.341 OA
ATOM      5  C   LIG    1       25.587 -20.461   7.553  0.00  0.00    +0.187 C 
ATOM      6  C   LIG    1       24.947 -21.781   7.922  0.00  0.00    +0.179 C 
ATOM      7  C   LIG    1       25.916 -22.966   7.801  0.00  0.00    +0.197 C 
ATOM      8  O   LIG    1       27.012 -22.693   6.925  0.00  0.00    -0.342 OA
ATOM      9  C   LIG    1       27.852 -21.611   7.352  0.00  0.00    +0.228 C 
ATOM     10  O   LIG    1       28.536 -21.066   6.218  0.00  0.00    -0.313 OA
ATOM     11  C   LIG    1       28.546 -19.646   6.371  0.00  0.00    +0.169 C 
ATOM     12  C   LIG    1       28.066 -18.999   5.075  0.00  0.00    +0.074 C 
ATOM     13  C   LIG    1       29.971 -19.177   6.663  0.00  0.00    +0.074 C 
ATOM     14  O   LIG    1       27.716 -19.248   7.468  0.00  0.00    -0.338 OA
ATOM     15  C   LIG    1       27.066 -20.434   7.932  0.00  0.00    +0.215 C 
ATOM     16  O   LIG    1       23.857 -21.919   7.003  0.00  0.00    -0.341 OA
ENDROOT
BRANCH   9  17
ATOM     17  C   LIG    1       28.906 -22.135   8.355  0.00  0.00    +0.262 C 
BRANCH  17  18
ATOM     18  O   LIG    1       30.164 -21.509   8.109  0.00  0.00    -0.220 OA
BRANCH  18  19
ATOM     19  S   LIG    1       31.335 -21.750   9.194  0.00  0.00    +0.149 S 
ATOM     20  O   LIG    1       30.730 -22.300  10.383  0.00  0.00    -0.130 OA
ATOM     21  O   LIG    1       32.171 -20.576   9.219  0.00  0.00    -0.130 OA
BRANCH  19  22
ATOM     22  N   LIG    1       32.222 -22.972   8.484  0.00  0.00    -0.183 NA
ATOM     23  H   LIG    1       31.890 -23.156   7.539  0.00  0.00    +0.146 HD
ATOM     24  H   LIG    1       33.218 -22.765   8.533  0.00  0.00    +0.146 HD
ENDBRANCH  19  22
ENDBRANCH  18  19
ENDBRANCH  17  18
ENDBRANCH   9  17
TORSDOF 4
ENDMDL
MODEL 3
REMARK VINA RESULT:      -5.8      3.130      5.315
REMARK  Name = *****
REMARK                            x       y       z     vdW  Elec       q    Type
REMARK                         _______ _______ _______ _____ _____    ______ ____
ROOT
ATOM      1  C   LIG    1       23.296 -24.751   6.579  0.00  0.00    +0.073 C 
ATOM      2  C   LIG    1       24.651 -24.070   6.425  0.00  0.00    +0.166 C 
ATOM      3  C   LIG    1       25.570 -24.883   5.522  0.00  0.00    +0.073 C 
ATOM      4  O   LIG    1       24.461 -22.776   5.852  0.00  0.00    -0.341 OA
ATOM      5  C   LIG    1       24.618 -21.846   6.927  0.00  0.00    +0.187 C 
ATOM      6  C   LIG    1       25.544 -22.553   7.892  0.00  0.00    +0.179 C 
ATOM      7  C   LIG    1       27.026 -22.276   7.605  0.00  0.00    +0.197 C 
ATOM      8  O   LIG    1       27.257 -21.855   6.259  0.00  0.00    -0.342 OA
ATOM      9  C   LIG    1       26.609 -20.624   5.908  0.00  0.00    +0.228 C 
ATOM     10  O   LIG    1       26.428 -20.571   4.488  0.00  0.00    -0.313 OA
ATOM     11  C   LIG    1       25.136 -20.013   4.246  0.00  0.00    +0.169 C 
ATOM     12  C   LIG    1       24.384 -20.899   3.256  0.00  0.00    +0.074 C 
ATOM     13  C   LIG    1       25.292 -18.616   3.644  0.00  0.00    +0.074 C 
ATOM     14  O   LIG    1       24.399 -19.888   5.468  0.00  0.00    -0.338 OA
ATOM     15  C   LIG    1       25.196 -20.504   6.482  0.00  0.00    +0.215 C 
ATOM     16  O   LIG    1       25.243 -23.943   7.723  0.00  0.00    -0.341 OA
ENDROOT
BRANCH   9  17
ATOM     17  C   LIG    1       27.495 -19.430   6.334  0.00  0.00    +0.262 C 
BRANCH  17  18
ATOM     18  O   LIG    1       28.872 -19.777   6.201  0.00  0.00    -0.220 OA
BRANCH  18  19
ATOM     19  S   LIG    1       29.832 -19.490   7.468  0.00  0.00    +0.149 S 
ATOM     20  O   LIG    1       28.991 -19.209   8.606  0.00  0.00    -0.130 OA
ATOM     21  O   LIG    1       30.885 -18.603   7.041  0.00  0.00    -0.130 OA
BRANCH  19  22
ATOM     22  N   LIG    1       30.523 -20.987   7.726  0.00  0.00    -0.183 NA
ATOM     23  H   LIG    1       30.156 -21.672   7.068  0.00  0.00    +0.146 HD
ATOM     24  H   LIG    1       31.540 -20.917   7.717  0.00  0.00    +0.146 HD
ENDBRANCH  19  22
ENDBRANCH  18  19
ENDBRANCH  17  18
ENDBRANCH   9  17
TORSDOF 4
ENDMDL
MODEL 4
REMARK VINA RESULT:      -5.3      2.998      4.526
REMARK  Name = *****
REMARK                            x       y       z     vdW  Elec       q    Type
REMARK                         _______ _______ _______ _____ _____    ______ ____
ROOT
ATOM      1  C   LIG    1       21.186 -20.696   4.246  0.00  0.00    +0.073 C 
ATOM      2  C   LIG    1       22.532 -20.013   4.463  0.00  0.00    +0.166 C 
ATOM      3  C   LIG    1       22.345 -18.599   5.000  0.00  0.00    +0.073 C 
ATOM      4  O   LIG    1       23.293 -20.772   5.403  0.00  0.00    -0.341 OA
ATOM      5  C   LIG    1       24.277 -21.469   4.635  0.00  0.00    +0.187 C 
ATOM      6  C   LIG    1       24.491 -20.589   3.424  0.00  0.00    +0.179 C 
ATOM      7  C   LIG    1       25.589 -19.537   3.639  0.00  0.00    +0.197 C 
ATOM      8  O   LIG    1       25.826 -19.264   5.022  0.00  0.00    -0.342 OA
ATOM      9  C   LIG    1       26.288 -20.394   5.775  0.00  0.00    +0.228 C 
ATOM     10  O   LIG    1       25.974 -20.202   7.159  0.00  0.00    -0.313 OA
ATOM     11  C   LIG    1       25.539 -21.462   7.673  0.00  0.00    +0.169 C 
ATOM     12  C   LIG    1       24.227 -21.269   8.428  0.00  0.00    +0.074 C 
ATOM     13  C   LIG    1       26.592 -22.007   8.638  0.00  0.00    +0.074 C 
ATOM     14  O   LIG    1       25.374 -22.413   6.615  0.00  0.00    -0.338 OA
ATOM     15  C   LIG    1       25.583 -21.697   5.395  0.00  0.00    +0.215 C 
ATOM     16  O   LIG    1       23.221 -19.963   3.209  0.00  0.00    -0.341 OA
ENDROOT
BRANCH   9  17
ATOM     17  C   LIG    1       27.823 -20.521   5.633  0.00  0.00    +0.262 C 
BRANCH  17  18
ATOM     18  O   LIG    1       28.459 -19.393   6.231  0.00  0.00    -0.220 OA
BRANCH  18  19
ATOM     19  S   LIG    1       29.660 -19.687   7.270  0.00  0.00    +0.149 S 
ATOM     20  O   LIG    1       29.234 -19.244   8.575  0.00  0.00    -0.130 OA
ATOM     21  O   LIG    1       30.894 -19.250   6.665  0.00  0.00    -0.130 OA
BRANCH  19  22
ATOM     22  N   LIG    1       29.691 -21.355   7.303  0.00  0.00    -0.183 NA
ATOM     23  H   LIG    1       28.751 -21.730   7.412  0.00  0.00    +0.146 HD
ATOM     24  H   LIG    1       30.184 -21.719   6.488  0.00  0.00    +0.146 HD
ENDBRANCH  19  22
ENDBRANCH  18  19
ENDBRANCH  17  18
ENDBRANCH   9  17
TORSDOF 4
ENDMDL
MODEL 5
REMARK VINA RESULT:      -5.2      1.520      3.907
REMARK  Name = *****
REMARK                            x       y       z     vdW  Elec       q    Type
REMARK                         _______ _______ _______ _____ _____    ______ ____
ROOT
ATOM      1  C   LIG    1       27.883 -19.495   7.292  0.00  0.00    +0.073 C 
ATOM      2  C   LIG    1       26.870 -20.562   7.695  0.00  0.00    +0.166 C 
ATOM      3  C   LIG    1       26.295 -20.274   9.076  0.00  0.00    +0.073 C 
ATOM      4  O   LIG    1       25.807 -20.580   6.741  0.00  0.00    -0.341 OA
ATOM      5  C   LIG    1       26.030 -21.736   5.930  0.00  0.00    +0.187 C 
ATOM      6  C   LIG    1       26.777 -22.686   6.840  0.00  0.00    +0.179 C 
ATOM      7  C   LIG    1       25.840 -23.593   7.651  0.00  0.00    +0.197 C 
ATOM      8  O   LIG    1       24.522 -23.052   7.774  0.00  0.00    -0.342 OA
ATOM      9  C   LIG    1       23.835 -22.885   6.527  0.00  0.00    +0.228 C 
ATOM     10  O   LIG    1       22.824 -21.880   6.673  0.00  0.00    -0.313 OA
ATOM     11  C   LIG    1       22.836 -21.091   5.483  0.00  0.00    +0.169 C 
ATOM     12  C   LIG    1       22.882 -19.613   5.862  0.00  0.00    +0.074 C 
ATOM     13  C   LIG    1       21.562 -21.360   4.683  0.00  0.00    +0.074 C 
ATOM     14  O   LIG    1       23.956 -21.432   4.658  0.00  0.00    -0.338 OA
ATOM     15  C   LIG    1       24.739 -22.364   5.409  0.00  0.00    +0.215 C 
ATOM     16  O   LIG    1       27.533 -21.832   7.706  0.00  0.00    -0.341 OA
ENDROOT
BRANCH   9  17
ATOM     17  C   LIG    1       23.151 -24.213   6.127  0.00  0.00    +0.262 C 
BRANCH  17  18
ATOM     18  O   LIG    1       23.882 -25.315   6.663  0.00  0.00    -0.220 OA
BRANCH  18  19
ATOM     19  S   LIG    1       24.683 -26.249   5.618  0.00  0.00    +0.149 S 
ATOM     20  O   LIG    1       25.048 -25.434   4.485  0.00  0.00    -0.130 OA
ATOM     21  O   LIG    1       23.963 -27.491   5.483  0.00  0.00    -0.130 OA
BRANCH  19  22
ATOM     22  N   LIG    1       26.088 -26.583   6.456  0.00  0.00    -0.183 NA
ATOM     23  H   LIG    1       26.295 -25.841   7.121  0.00  0.00    +0.146 HD
ATOM     24  H   LIG    1       26.039 -27.509   6.880  0.00  0.00    +0.146 HD
ENDBRANCH  19  22
ENDBRANCH  18  19
ENDBRANCH  17  18
ENDBRANCH   9  17
TORSDOF 4
ENDMDL
MODEL 6
REMARK VINA RESULT:      -5.0      5.918      8.249
REMARK  Name = *****
REMARK                            x       y       z     vdW  Elec       q    Type
REMARK                         _______ _______ _______ _____ _____    ______ ____
ROOT
ATOM      1  C   LIG    1       25.408 -25.486   6.347  0.00  0.00    +0.073 C 
ATOM      2  C   LIG    1       25.742 -26.944   6.048  0.00  0.00    +0.166 C 
ATOM      3  C   LIG    1       27.186 -27.088   5.584  0.00  0.00    +0.073 C 
ATOM      4  O   LIG    1       25.554 -27.718   7.234  0.00  0.00    -0.341 OA
ATOM      5  C   LIG    1       24.327 -28.428   7.045  0.00  0.00    +0.187 C 
ATOM      6  C   LIG    1       24.214 -28.575   5.544  0.00  0.00    +0.179 C 
ATOM      7  C   LIG    1       24.885 -29.852   5.019  0.00  0.00    +0.197 C 
ATOM      8  O   LIG    1       25.874 -30.363   5.917  0.00  0.00    -0.342 OA
ATOM      9  C   LIG    1       25.360 -30.752   7.198  0.00  0.00    +0.228 C 
ATOM     10  O   LIG    1       26.417 -30.715   8.164  0.00  0.00    -0.313 OA
ATOM     11  C   LIG    1       25.872 -30.171   9.367  0.00  0.00    +0.169 C 
ATOM     12  C   LIG    1       26.785 -29.056   9.872  0.00  0.00    +0.074 C 
ATOM     13  C   LIG    1       25.793 -31.268  10.429  0.00  0.00    +0.074 C 
ATOM     14  O   LIG    1       24.548 -29.673   9.145  0.00  0.00    -0.338 OA
ATOM     15  C   LIG    1       24.305 -29.787   7.741  0.00  0.00    +0.215 C 
ATOM     16  O   LIG    1       24.860 -27.409   5.021  0.00  0.00    -0.341 OA
ENDROOT
BRANCH   9  17
ATOM     17  C   LIG    1       24.817 -32.198   7.123  0.00  0.00    +0.262 C 
BRANCH  17  18
ATOM     18  O   LIG    1       23.400 -32.193   7.289  0.00  0.00    -0.220 OA
BRANCH  18  19
ATOM     19  S   LIG    1       22.794 -33.075   8.498  0.00  0.00    +0.149 S 
ATOM     20  O   LIG    1       23.895 -33.724   9.168  0.00  0.00    -0.130 OA
ATOM     21  O   LIG    1       21.654 -33.801   7.996  0.00  0.00    -0.130 OA
BRANCH  19  22
ATOM     22  N   LIG    1       22.214 -31.899   9.530  0.00  0.00    -0.183 NA
ATOM     23  H   LIG    1       22.961 -31.538  10.120  0.00  0.00    +0.146 HD
ATOM     24  H   LIG    1       21.721 -31.177   9.007  0.00  0.00    +0.146 HD
ENDBRANCH  19  22
ENDBRANCH  18  19
ENDBRANCH  17  18
ENDBRANCH   9  17
TORSDOF 4
ENDMDL
MODEL 7
REMARK VINA RESULT:      -5.0      8.494     10.147
REMARK  Name = *****
REMARK                            x       y       z     vdW  Elec       q    Type
REMARK                         _______ _______ _______ _____ _____    ______ ____
ROOT
ATOM      1  C   LIG    1       21.593 -30.657  14.698  0.00  0.00    +0.073 C 
ATOM      2  C   LIG    1       21.656 -30.423  13.192  0.00  0.00    +0.166 C 
ATOM      3  C   LIG    1       21.053 -29.074  12.825  0.00  0.00    +0.073 C 
ATOM      4  O   LIG    1       23.021 -30.454  12.772  0.00  0.00    -0.341 OA
ATOM      5  C   LIG    1       23.203 -31.718  12.131  0.00  0.00    +0.187 C 
ATOM      6  C   LIG    1       21.829 -32.066  11.604  0.00  0.00    +0.179 C 
ATOM      7  C   LIG    1       21.581 -31.527  10.188  0.00  0.00    +0.197 C 
ATOM      8  O   LIG    1       22.437 -30.431   9.858  0.00  0.00    -0.342 OA
ATOM      9  C   LIG    1       23.834 -30.754   9.857  0.00  0.00    +0.228 C 
ATOM     10  O   LIG    1       24.597 -29.561  10.068  0.00  0.00    -0.313 OA
ATOM     11  C   LIG    1       25.672 -29.895  10.947  0.00  0.00    +0.169 C 
ATOM     12  C   LIG    1       25.725 -28.878  12.084  0.00  0.00    +0.074 C 
ATOM     13  C   LIG    1       26.991 -29.848  10.176  0.00  0.00    +0.074 C 
ATOM     14  O   LIG    1       25.510 -31.220  11.466  0.00  0.00    -0.338 OA
ATOM     15  C   LIG    1       24.237 -31.680  11.007  0.00  0.00    +0.215 C 
ATOM     16  O   LIG    1       20.925 -31.469  12.541  0.00  0.00    -0.341 OA
ENDROOT
BRANCH   9  17
ATOM     17  C   LIG    1       24.228 -31.352   8.487  0.00  0.00    +0.262 C 
BRANCH  17  18
ATOM     18  O   LIG    1       23.563 -30.646   7.440  0.00  0.00    -0.220 OA
BRANCH  18  19
ATOM     19  S   LIG    1       24.487 -29.851   6.382  0.00  0.00    +0.149 S 
ATOM     20  O   LIG    1       25.276 -30.823   5.664  0.00  0.00    -0.130 OA
ATOM     21  O   LIG    1       25.073 -28.721   7.058  0.00  0.00    -0.130 OA
BRANCH  19  22
ATOM     22  N   LIG    1       23.354 -29.252   5.313  0.00  0.00    -0.183 NA
ATOM     23  H   LIG    1       23.786 -29.027   4.419  0.00  0.00    +0.146 HD
ATOM     24  H   LIG    1       22.564 -29.891   5.235  0.00  0.00    +0.146 HD
ENDBRANCH  19  22
ENDBRANCH  18  19
ENDBRANCH  17  18
ENDBRANCH   9  17
TORSDOF 4
ENDMDL
MODEL 8
REMARK VINA RESULT:      -5.0      6.750      9.998
REMARK  Name = *****
REMARK                            x       y       z     vdW  Elec       q    Type
REMARK                         _______ _______ _______ _____ _____    ______ ____
ROOT
ATOM      1  C   LIG    1       22.655 -33.267  11.750  0.00  0.00    +0.073 C 
ATOM      2  C   LIG    1       23.802 -32.344  11.354  0.00  0.00    +0.166 C 
ATOM      3  C   LIG    1       25.133 -32.876  11.872  0.00  0.00    +0.073 C 
ATOM      4  O   LIG    1       23.859 -32.253   9.930  0.00  0.00    -0.341 OA
ATOM      5  C   LIG    1       23.310 -30.975   9.599  0.00  0.00    +0.187 C 
ATOM      6  C   LIG    1       23.592 -30.126  10.818  0.00  0.00    +0.179 C 
ATOM      7  C   LIG    1       24.952 -29.418  10.749  0.00  0.00    +0.197 C 
ATOM      8  O   LIG    1       25.861 -30.058   9.850  0.00  0.00    -0.342 OA
ATOM      9  C   LIG    1       25.421 -30.081   8.485  0.00  0.00    +0.228 C 
ATOM     10  O   LIG    1       26.063 -31.162   7.798  0.00  0.00    -0.313 OA
ATOM     11  C   LIG    1       25.086 -31.760   6.944  0.00  0.00    +0.169 C 
ATOM     12  C   LIG    1       25.094 -33.271   7.154  0.00  0.00    +0.074 C 
ATOM     13  C   LIG    1       25.437 -31.459   5.486  0.00  0.00    +0.074 C 
ATOM     14  O   LIG    1       23.785 -31.223   7.206  0.00  0.00    -0.338 OA
ATOM     15  C   LIG    1       23.925 -30.365   8.341  0.00  0.00    +0.215 C 
ATOM     16  O   LIG    1       23.553 -31.049  11.913  0.00  0.00    -0.341 OA
ENDROOT
BRANCH   9  17
ATOM     17  C   LIG    1       25.814 -28.757   7.790  0.00  0.00    +0.262 C 
BRANCH  17  18
ATOM     18  O   LIG    1       24.641 -28.072   7.353  0.00  0.00    -0.220 OA
BRANCH  18  19
ATOM     19  S   LIG    1       24.594 -27.598   5.810  0.00  0.00    +0.149 S 
ATOM     20  O   LIG    1       25.912 -27.779   5.251  0.00  0.00    -0.130 OA
ATOM     21  O   LIG    1       23.890 -26.341   5.748  0.00  0.00    -0.130 OA
BRANCH  19  22
ATOM     22  N   LIG    1       23.605 -28.753   5.122  0.00  0.00    -0.183 NA
ATOM     23  H   LIG    1       23.431 -29.513   5.775  0.00  0.00    +0.146 HD
ATOM     24  H   LIG    1       22.754 -28.324   4.759  0.00  0.00    +0.146 HD
ENDBRANCH  19  22
ENDBRANCH  18  19
ENDBRANCH  17  18
ENDBRANCH   9  17
TORSDOF 4
ENDMDL
MODEL 9
REMARK VINA RESULT:      -5.0      2.914      5.224
REMARK  Name = *****
REMARK                            x       y       z     vdW  Elec       q    Type
REMARK                         _______ _______ _______ _____ _____    ______ ____
ROOT
ATOM      1  C   LIG    1       29.660 -21.555   8.349  0.00  0.00    +0.073 C 
ATOM      2  C   LIG    1       28.421 -21.233   7.521  0.00  0.00    +0.166 C 
ATOM      3  C   LIG    1       28.802 -20.846   6.098  0.00  0.00    +0.073 C 
ATOM      4  O   LIG    1       27.575 -22.383   7.480  0.00  0.00    -0.341 OA
ATOM      5  C   LIG    1       26.497 -22.107   8.378  0.00  0.00    +0.187 C 
ATOM      6  C   LIG    1       26.390 -20.598   8.370  0.00  0.00    +0.179 C 
ATOM      7  C   LIG    1       25.446 -20.074   7.279  0.00  0.00    +0.197 C 
ATOM      8  O   LIG    1       25.264 -21.010   6.213  0.00  0.00    -0.342 OA
ATOM      9  C   LIG    1       24.663 -22.249   6.614  0.00  0.00    +0.228 C 
ATOM     10  O   LIG    1       25.016 -23.272   5.676  0.00  0.00    -0.313 OA
ATOM     11  C   LIG    1       25.284 -24.459   6.425  0.00  0.00    +0.169 C 
ATOM     12  C   LIG    1       26.619 -25.045   5.974  0.00  0.00    +0.074 C 
ATOM     13  C   LIG    1       24.178 -25.482   6.165  0.00  0.00    +0.074 C 
ATOM     14  O   LIG    1       25.307 -24.179   7.829  0.00  0.00    -0.338 OA
ATOM     15  C   LIG    1       25.182 -22.760   7.959  0.00  0.00    +0.215 C 
ATOM     16  O   LIG    1       27.730 -20.145   8.145  0.00  0.00    -0.341 OA
ENDROOT
BRANCH   9  17
ATOM     17  C   LIG    1       23.124 -22.101   6.622  0.00  0.00    +0.262 C 
BRANCH  17  18
ATOM     18  O   LIG    1       22.764 -20.757   6.305  0.00  0.00    -0.220 OA
BRANCH  18  19
ATOM     19  S   LIG    1       22.263 -20.462   4.799  0.00  0.00    +0.149 S 
ATOM     20  O   LIG    1       22.319 -19.036   4.585  0.00  0.00    -0.130 OA
ATOM     21  O   LIG    1       21.070 -21.236   4.563  0.00  0.00    -0.130 OA
BRANCH  19  22
ATOM     22  N   LIG    1       23.482 -21.145   3.886  0.00  0.00    -0.183 NA
ATOM     23  H   LIG    1       23.104 -21.830   3.236  0.00  0.00    +0.146 HD
ATOM     24  H   LIG    1       24.040 -20.420   3.436  0.00  0.00    +0.146 HD
ENDBRANCH  19  22
ENDBRANCH  18  19
ENDBRANCH  17  18
ENDBRANCH   9  17
TORSDOF 4
ENDMDL
