MODEL 1
REMARK VINA RESULT:      -7.8      0.000      0.000
REMARK  Name = *****
REMARK                            x       y       z     vdW  Elec       q    Type
REMARK                         _______ _______ _______ _____ _____    ______ ____
ROOT
ATOM      1  C   LIG    1       26.490 -21.674   7.697  0.00  0.00    +0.258 C 
ATOM      2  N   LIG    1       27.470 -21.444   6.752  0.00  0.00    -0.281 N 
ATOM      3  H   LIG    1       27.417 -22.013   5.914  0.00  0.00    +0.155 HD
ATOM      4  O   LIG    1       26.535 -21.273   8.864  0.00  0.00    -0.269 OA
ENDROOT
BRANCH   1  11
ATOM      5  C   LIG    1       23.685 -20.671   7.216  0.00  0.00    +0.087 C 
ATOM      6  C   LIG    1       24.118 -22.093   6.968  0.00  0.00    +0.113 C 
ATOM      7  O   LIG    1       23.049 -22.850   6.510  0.00  0.00    -0.494 OA
ATOM      8  C   LIG    1       23.137 -24.261   6.704  0.00  0.00    +0.239 C 
ATOM      9  C   LIG    1       24.368 -24.831   6.035  0.00  0.00    +0.115 C 
ATOM     10  S   LIG    1       25.825 -24.238   6.922  0.00  0.00    -0.114 S 
ATOM     11  C   LIG    1       25.368 -22.567   7.198  0.00  0.00    +0.107 C 
ENDBRANCH   1  11
BRANCH   2  12
ATOM     12  C   LIG    1       28.650 -20.719   6.968  0.00  0.00    +0.034 A 
ATOM     13  C   LIG    1       29.625 -21.123   7.882  0.00  0.00    +0.023 A 
ATOM     14  C   LIG    1       30.779 -20.357   8.052  0.00  0.00    +0.002 A 
ATOM     15  C   LIG    1       30.978 -19.212   7.281  0.00  0.00    +0.000 A 
ATOM     16  C   LIG    1       30.007 -18.811   6.366  0.00  0.00    +0.002 A 
ATOM     17  C   LIG    1       28.828 -19.544   6.235  0.00  0.00    +0.023 A 
ENDBRANCH   2  12
TORSDOF 2
ENDMDL
MODEL 2
REMARK VINA RESULT:      -7.2      2.069      6.324
REMARK  Name = *****
REMARK                            x       y       z     vdW  Elec       q    Type
REMARK                         _______ _______ _______ _____ _____    ______ ____
ROOT
ATOM      1  C   LIG    1       27.708 -21.551   7.792  0.00  0.00    +0.258 C 
ATOM      2  N   LIG    1       26.971 -21.887   6.673  0.00  0.00    -0.281 N 
ATOM      3  H   LIG    1       27.238 -21.422   5.812  0.00  0.00    +0.155 HD
ATOM      4  O   LIG    1       27.376 -21.809   8.952  0.00  0.00    -0.269 OA
ENDROOT
BRANCH   1  11
ATOM      5  C   LIG    1       30.367 -21.999   9.146  0.00  0.00    +0.087 C 
ATOM      6  C   LIG    1       30.137 -20.959   8.079  0.00  0.00    +0.113 C 
ATOM      7  O   LIG    1       31.306 -20.251   7.836  0.00  0.00    -0.494 OA
ATOM      8  C   LIG    1       31.156 -18.953   7.262  0.00  0.00    +0.239 C 
ATOM      9  C   LIG    1       30.427 -19.020   5.939  0.00  0.00    +0.115 C 
ATOM     10  S   LIG    1       28.713 -19.489   6.256  0.00  0.00    -0.114 S 
ATOM     11  C   LIG    1       28.945 -20.729   7.474  0.00  0.00    +0.107 C 
ENDBRANCH   1  11
BRANCH   2  12
ATOM     12  C   LIG    1       25.750 -22.576   6.684  0.00  0.00    +0.034 A 
ATOM     13  C   LIG    1       25.668 -23.965   6.567  0.00  0.00    +0.023 A 
ATOM     14  C   LIG    1       24.421 -24.592   6.583  0.00  0.00    +0.002 A 
ATOM     15  C   LIG    1       23.262 -23.837   6.758  0.00  0.00    +0.000 A 
ATOM     16  C   LIG    1       23.344 -22.451   6.879  0.00  0.00    +0.002 A 
ATOM     17  C   LIG    1       24.584 -21.818   6.807  0.00  0.00    +0.023 A 
ENDBRANCH   2  12
TORSDOF 2
ENDMDL
MODEL 3
REMARK VINA RESULT:      -7.2      2.835      6.665
REMARK  Name = *****
REMARK                            x       y       z     vdW  Elec       q    Type
REMARK                         _______ _______ _______ _____ _____    ______ ____
ROOT
ATOM      1  C   LIG    1       28.810 -20.564   7.314  0.00  0.00    +0.258 C 
ATOM      2  N   LIG    1       27.696 -20.711   8.116  0.00  0.00    -0.281 N 
ATOM      3  H   LIG    1       27.826 -20.491   9.098  0.00  0.00    +0.155 HD
ATOM      4  O   LIG    1       28.914 -21.020   6.171  0.00  0.00    -0.269 OA
ENDROOT
BRANCH   1  11
ATOM      5  C   LIG    1       30.834 -22.021   9.011  0.00  0.00    +0.087 C 
ATOM      6  C   LIG    1       30.876 -20.538   8.750  0.00  0.00    +0.113 C 
ATOM      7  O   LIG    1       31.955 -19.963   9.407  0.00  0.00    -0.494 OA
ATOM      8  C   LIG    1       31.861 -18.566   9.683  0.00  0.00    +0.239 C 
ATOM      9  C   LIG    1       31.673 -17.767   8.412  0.00  0.00    +0.115 C 
ATOM     10  S   LIG    1       30.034 -18.129   7.749  0.00  0.00    -0.114 S 
ATOM     11  C   LIG    1       29.964 -19.862   8.007  0.00  0.00    +0.107 C 
ENDBRANCH   1  11
BRANCH   2  12
ATOM     12  C   LIG    1       26.520 -21.384   7.756  0.00  0.00    +0.034 A 
ATOM     13  C   LIG    1       26.493 -22.751   7.471  0.00  0.00    +0.023 A 
ATOM     14  C   LIG    1       25.290 -23.364   7.117  0.00  0.00    +0.002 A 
ATOM     15  C   LIG    1       24.109 -22.623   7.089  0.00  0.00    +0.000 A 
ATOM     16  C   LIG    1       24.136 -21.260   7.378  0.00  0.00    +0.002 A 
ATOM     17  C   LIG    1       25.345 -20.634   7.677  0.00  0.00    +0.023 A 
ENDBRANCH   2  12
TORSDOF 2
ENDMDL
MODEL 4
REMARK VINA RESULT:      -7.0      2.275      6.358
REMARK  Name = *****
REMARK                            x       y       z     vdW  Elec       q    Type
REMARK                         _______ _______ _______ _____ _____    ______ ____
ROOT
ATOM      1  C   LIG    1       27.505 -20.512   6.458  0.00  0.00    +0.258 C 
ATOM      2  N   LIG    1       26.878 -21.309   7.395  0.00  0.00    -0.281 N 
ATOM      3  H   LIG    1       27.453 -21.610   8.174  0.00  0.00    +0.155 HD
ATOM      4  O   LIG    1       27.055 -20.265   5.335  0.00  0.00    -0.269 OA
ENDROOT
BRANCH   1  11
ATOM      5  C   LIG    1       28.882 -18.132   5.216  0.00  0.00    +0.087 C 
ATOM      6  C   LIG    1       29.470 -18.945   6.340  0.00  0.00    +0.113 C 
ATOM      7  O   LIG    1       30.717 -18.448   6.694  0.00  0.00    -0.494 OA
ATOM      8  C   LIG    1       31.601 -19.355   7.350  0.00  0.00    +0.239 C 
ATOM      9  C   LIG    1       30.990 -19.890   8.625  0.00  0.00    +0.115 C 
ATOM     10  S   LIG    1       29.608 -20.966   8.187  0.00  0.00    -0.114 S 
ATOM     11  C   LIG    1       28.876 -20.030   6.897  0.00  0.00    +0.107 C 
ENDBRANCH   1  11
BRANCH   2  12
ATOM     12  C   LIG    1       25.642 -21.946   7.220  0.00  0.00    +0.034 A 
ATOM     13  C   LIG    1       24.423 -21.290   7.408  0.00  0.00    +0.023 A 
ATOM     14  C   LIG    1       23.225 -21.981   7.219  0.00  0.00    +0.002 A 
ATOM     15  C   LIG    1       23.243 -23.312   6.803  0.00  0.00    +0.000 A 
ATOM     16  C   LIG    1       24.459 -23.966   6.613  0.00  0.00    +0.002 A 
ATOM     17  C   LIG    1       25.657 -23.294   6.855  0.00  0.00    +0.023 A 
ENDBRANCH   2  12
TORSDOF 2
ENDMDL
MODEL 5
REMARK VINA RESULT:      -7.0      3.464      5.041
REMARK  Name = *****
REMARK                            x       y       z     vdW  Elec       q    Type
REMARK                         _______ _______ _______ _____ _____    ______ ____
ROOT
ATOM      1  C   LIG    1       30.170 -19.465   8.177  0.00  0.00    +0.258 C 
ATOM      2  N   LIG    1       29.917 -18.346   8.946  0.00  0.00    -0.281 N 
ATOM      3  H   LIG    1       29.024 -17.893   8.786  0.00  0.00    +0.155 HD
ATOM      4  O   LIG    1       31.281 -19.987   8.046  0.00  0.00    -0.269 OA
ENDROOT
BRANCH   1  11
ATOM      5  C   LIG    1       29.421 -18.408   5.453  0.00  0.00    +0.087 C 
ATOM      6  C   LIG    1       28.647 -19.481   6.174  0.00  0.00    +0.113 C 
ATOM      7  O   LIG    1       27.558 -19.884   5.414  0.00  0.00    -0.494 OA
ATOM      8  C   LIG    1       26.476 -20.489   6.121  0.00  0.00    +0.239 C 
ATOM      9  C   LIG    1       26.934 -21.716   6.878  0.00  0.00    +0.115 C 
ATOM     10  S   LIG    1       28.013 -21.186   8.225  0.00  0.00    -0.114 S 
ATOM     11  C   LIG    1       28.956 -19.954   7.407  0.00  0.00    +0.107 C 
ENDBRANCH   1  11
BRANCH   2  12
ATOM     12  C   LIG    1       30.872 -17.646   9.696  0.00  0.00    +0.034 A 
ATOM     13  C   LIG    1       31.976 -17.020   9.114  0.00  0.00    +0.023 A 
ATOM     14  C   LIG    1       32.893 -16.338   9.916  0.00  0.00    +0.002 A 
ATOM     15  C   LIG    1       32.684 -16.245  11.292  0.00  0.00    +0.000 A 
ATOM     16  C   LIG    1       31.580 -16.866  11.873  0.00  0.00    +0.002 A 
ATOM     17  C   LIG    1       30.694 -17.594  11.081  0.00  0.00    +0.023 A 
ENDBRANCH   2  12
TORSDOF 2
ENDMDL
MODEL 6
REMARK VINA RESULT:      -7.0      4.093      5.643
REMARK  Name = *****
REMARK                            x       y       z     vdW  Elec       q    Type
REMARK                         _______ _______ _______ _____ _____    ______ ____
ROOT
ATOM      1  C   LIG    1       25.105 -22.292   5.642  0.00  0.00    +0.258 C 
ATOM      2  N   LIG    1       24.539 -23.497   5.276  0.00  0.00    -0.281 N 
ATOM      3  H   LIG    1       23.573 -23.458   4.971  0.00  0.00    +0.155 HD
ATOM      4  O   LIG    1       26.161 -22.177   6.270  0.00  0.00    -0.269 OA
ENDROOT
BRANCH   1  11
ATOM      5  C   LIG    1       23.208 -20.992   7.595  0.00  0.00    +0.087 C 
ATOM      6  C   LIG    1       23.415 -20.508   6.183  0.00  0.00    +0.113 C 
ATOM      7  O   LIG    1       22.608 -19.408   5.927  0.00  0.00    -0.494 OA
ATOM      8  C   LIG    1       22.302 -19.148   4.557  0.00  0.00    +0.239 C 
ATOM      9  C   LIG    1       23.560 -18.939   3.745  0.00  0.00    +0.115 C 
ATOM     10  S   LIG    1       24.439 -20.512   3.640  0.00  0.00    -0.114 S 
ATOM     11  C   LIG    1       24.247 -21.091   5.284  0.00  0.00    +0.107 C 
ENDBRANCH   1  11
BRANCH   2  12
ATOM     12  C   LIG    1       25.078 -24.762   5.550  0.00  0.00    +0.034 A 
ATOM     13  C   LIG    1       25.448 -25.160   6.836  0.00  0.00    +0.023 A 
ATOM     14  C   LIG    1       25.981 -26.434   7.045  0.00  0.00    +0.002 A 
ATOM     15  C   LIG    1       26.104 -27.322   5.977  0.00  0.00    +0.000 A 
ATOM     16  C   LIG    1       25.732 -26.927   4.694  0.00  0.00    +0.002 A 
ATOM     17  C   LIG    1       25.252 -25.636   4.475  0.00  0.00    +0.023 A 
ENDBRANCH   2  12
TORSDOF 2
ENDMDL
MODEL 7
REMARK VINA RESULT:      -6.5      1.924      2.571
REMARK  Name = *****
REMARK                            x       y       z     vdW  Elec       q    Type
REMARK                         _______ _______ _______ _____ _____    ______ ____
ROOT
ATOM      1  C   LIG    1       26.918 -20.546   7.287  0.00  0.00    +0.258 C 
ATOM      2  N   LIG    1       28.185 -20.448   6.747  0.00  0.00    -0.281 N 
ATOM      3  H   LIG    1       28.326 -20.922   5.861  0.00  0.00    +0.155 HD
ATOM      4  O   LIG    1       26.631 -20.263   8.454  0.00  0.00    -0.269 OA
ENDROOT
BRANCH   1  11
ATOM      5  C   LIG    1       25.854 -23.356   7.563  0.00  0.00    +0.087 C 
ATOM      6  C   LIG    1       25.418 -22.400   6.483  0.00  0.00    +0.113 C 
ATOM      7  O   LIG    1       24.486 -23.004   5.651  0.00  0.00    -0.494 OA
ATOM      8  C   LIG    1       24.355 -22.458   4.339  0.00  0.00    +0.239 C 
ATOM      9  C   LIG    1       23.980 -20.994   4.390  0.00  0.00    +0.115 C 
ATOM     10  S   LIG    1       25.385 -20.068   5.042  0.00  0.00    -0.114 S 
ATOM     11  C   LIG    1       25.900 -21.141   6.330  0.00  0.00    +0.107 C 
ENDBRANCH   1  11
BRANCH   2  12
ATOM     12  C   LIG    1       29.326 -20.006   7.432  0.00  0.00    +0.034 A 
ATOM     13  C   LIG    1       29.729 -18.669   7.438  0.00  0.00    +0.023 A 
ATOM     14  C   LIG    1       30.877 -18.292   8.138  0.00  0.00    +0.002 A 
ATOM     15  C   LIG    1       31.596 -19.240   8.865  0.00  0.00    +0.000 A 
ATOM     16  C   LIG    1       31.191 -20.574   8.862  0.00  0.00    +0.002 A 
ATOM     17  C   LIG    1       30.078 -20.962   8.118  0.00  0.00    +0.023 A 
ENDBRANCH   2  12
TORSDOF 2
ENDMDL
MODEL 8
REMARK VINA RESULT:      -6.4      1.920      2.314
REMARK  Name = *****
REMARK                            x       y       z     vdW  Elec       q    Type
REMARK                         _______ _______ _______ _____ _____    ______ ____
ROOT
ATOM      1  C   LIG    1       26.921 -20.582   7.300  0.00  0.00    +0.258 C 
ATOM      2  N   LIG    1       28.200 -20.523   6.783  0.00  0.00    -0.281 N 
ATOM      3  H   LIG    1       28.342 -21.002   5.900  0.00  0.00    +0.155 HD
ATOM      4  O   LIG    1       26.622 -20.288   8.461  0.00  0.00    -0.269 OA
ENDROOT
BRANCH   1  11
ATOM      5  C   LIG    1       25.812 -23.378   7.529  0.00  0.00    +0.087 C 
ATOM      6  C   LIG    1       25.400 -22.401   6.459  0.00  0.00    +0.113 C 
ATOM      7  O   LIG    1       24.467 -22.980   5.610  0.00  0.00    -0.494 OA
ATOM      8  C   LIG    1       24.355 -22.415   4.305  0.00  0.00    +0.239 C 
ATOM      9  C   LIG    1       24.003 -20.946   4.372  0.00  0.00    +0.115 C 
ATOM     10  S   LIG    1       25.416 -20.050   5.048  0.00  0.00    -0.114 S 
ATOM     11  C   LIG    1       25.902 -21.148   6.327  0.00  0.00    +0.107 C 
ENDBRANCH   1  11
BRANCH   2  12
ATOM     12  C   LIG    1       29.341 -20.113   7.486  0.00  0.00    +0.034 A 
ATOM     13  C   LIG    1       30.135 -21.002   8.214  0.00  0.00    +0.023 A 
ATOM     14  C   LIG    1       31.260 -20.532   8.896  0.00  0.00    +0.002 A 
ATOM     15  C   LIG    1       31.614 -19.185   8.815  0.00  0.00    +0.000 A 
ATOM     16  C   LIG    1       30.824 -18.300   8.085  0.00  0.00    +0.002 A 
ATOM     17  C   LIG    1       29.670 -18.757   7.450  0.00  0.00    +0.023 A 
ENDBRANCH   2  12
TORSDOF 2
ENDMDL
MODEL 9
REMARK VINA RESULT:      -6.3      1.767      2.026
REMARK  Name = *****
REMARK                            x       y       z     vdW  Elec       q    Type
REMARK                         _______ _______ _______ _____ _____    ______ ____
ROOT
ATOM      1  C   LIG    1       26.325 -20.525   7.389  0.00  0.00    +0.258 C 
ATOM      2  N   LIG    1       27.464 -20.603   6.612  0.00  0.00    -0.281 N 
ATOM      3  H   LIG    1       27.354 -21.054   5.711  0.00  0.00    +0.155 HD
ATOM      4  O   LIG    1       26.315 -20.250   8.592  0.00  0.00    -0.269 OA
ENDROOT
BRANCH   1  11
ATOM      5  C   LIG    1       25.818 -19.764   4.513  0.00  0.00    +0.087 C 
ATOM      6  C   LIG    1       24.859 -20.577   5.344  0.00  0.00    +0.113 C 
ATOM      7  O   LIG    1       23.732 -20.900   4.601  0.00  0.00    -0.494 OA
ATOM      8  C   LIG    1       22.550 -21.207   5.339  0.00  0.00    +0.239 C 
ATOM      9  C   LIG    1       22.776 -22.370   6.278  0.00  0.00    +0.115 C 
ATOM     10  S   LIG    1       23.904 -21.838   7.583  0.00  0.00    -0.114 S 
ATOM     11  C   LIG    1       25.060 -20.912   6.643  0.00  0.00    +0.107 C 
ENDBRANCH   1  11
BRANCH   2  12
ATOM     12  C   LIG    1       28.771 -20.374   7.065  0.00  0.00    +0.034 A 
ATOM     13  C   LIG    1       29.411 -21.218   7.974  0.00  0.00    +0.023 A 
ATOM     14  C   LIG    1       30.714 -20.936   8.388  0.00  0.00    +0.002 A 
ATOM     15  C   LIG    1       31.391 -19.835   7.863  0.00  0.00    +0.000 A 
ATOM     16  C   LIG    1       30.753 -18.994   6.953  0.00  0.00    +0.002 A 
ATOM     17  C   LIG    1       29.433 -19.244   6.581  0.00  0.00    +0.023 A 
ENDBRANCH   2  12
TORSDOF 2
ENDMDL
