MODEL 1
REMARK VINA RESULT:      -2.2      0.000      0.000
REMARK  Name = *****
REMARK                            x       y       z     vdW  Elec       q    Type
REMARK                         _______ _______ _______ _____ _____    ______ ____
ROOT
ATOM      1  C   LIG    1       22.484 -21.010   6.666  0.00  0.00    +0.105 C 
ATOM      2  N   LIG    1       23.600 -21.469   5.824  0.00  0.00    -0.302 NA
ATOM      3  C   LIG    1       24.788 -20.587   6.036  0.00  0.00    +0.111 C 
ATOM      4  C   LIG    1       25.746 -20.358   4.813  0.00  0.00    +0.119 C 
ATOM      5  N   LIG    1       24.942 -20.013   3.607  0.00  0.00    -0.305 N 
ATOM      6  C   LIG    1       24.247 -18.796   3.778  0.00  0.00    +0.125 A 
ATOM      7  C   LIG    1       24.982 -17.605   3.726  0.00  0.00    -0.003 A 
ATOM      8  C   LIG    1       26.423 -17.675   3.332  0.00  0.00    +0.074 C 
ATOM      9  C   LIG    1       27.309 -18.288   4.390  0.00  0.00    -0.038 A 
ATOM     10  C   LIG    1       28.543 -17.650   4.632  0.00  0.00    +0.004 A 
ATOM     11  C   LIG    1       29.457 -18.163   5.546  0.00  0.00    +0.000 A 
ATOM     12  C   LIG    1       29.147 -19.321   6.242  0.00  0.00    +0.000 A 
ATOM     13  C   LIG    1       27.929 -19.971   6.013  0.00  0.00    +0.006 A 
ATOM     14  C   LIG    1       24.356 -16.398   4.050  0.00  0.00    +0.009 A 
ATOM     15  C   LIG    1       23.021 -16.387   4.412  0.00  0.00    +0.020 A 
ATOM     16  C   LIG    1       22.348 -17.597   4.392  0.00  0.00    +0.113 A 
ATOM     17  N   LIG    1       22.927 -18.766   4.057  0.00  0.00    -0.240 NA
ATOM     18  C   LIG    1       24.076 -21.163   3.276  0.00  0.00    +0.122 C 
ATOM     19  C   LIG    1       26.987 -19.485   5.076  0.00  0.00    -0.022 A 
ATOM     20  C   LIG    1       23.121 -21.572   4.420  0.00  0.00    +0.103 C 
ENDROOT
TORSDOF 0
ENDMDL
MODEL 2
REMARK VINA RESULT:      -1.5      3.496      6.454
REMARK  Name = *****
REMARK                            x       y       z     vdW  Elec       q    Type
REMARK                         _______ _______ _______ _____ _____    ______ ____
ROOT
ATOM      1  C   LIG    1       24.229 -11.447   5.651  0.00  0.00    +0.105 C 
ATOM      2  N   LIG    1       23.533 -12.179   4.581  0.00  0.00    -0.302 NA
ATOM      3  C   LIG    1       23.551 -13.644   4.879  0.00  0.00    +0.111 C 
ATOM      4  C   LIG    1       23.602 -14.630   3.658  0.00  0.00    +0.119 C 
ATOM      5  N   LIG    1       24.661 -14.193   2.707  0.00  0.00    -0.305 N 
ATOM      6  C   LIG    1       25.944 -14.251   3.296  0.00  0.00    +0.125 A 
ATOM      7  C   LIG    1       26.524 -15.511   3.486  0.00  0.00    -0.003 A 
ATOM      8  C   LIG    1       25.833 -16.706   2.910  0.00  0.00    +0.074 C 
ATOM      9  C   LIG    1       24.562 -17.077   3.636  0.00  0.00    -0.038 A 
ATOM     10  C   LIG    1       24.352 -18.448   3.888  0.00  0.00    +0.004 A 
ATOM     11  C   LIG    1       23.189 -18.902   4.501  0.00  0.00    +0.000 A 
ATOM     12  C   LIG    1       22.217 -17.987   4.880  0.00  0.00    +0.000 A 
ATOM     13  C   LIG    1       22.406 -16.623   4.634  0.00  0.00    +0.006 A 
ATOM     14  C   LIG    1       27.715 -15.616   4.209  0.00  0.00    +0.009 A 
ATOM     15  C   LIG    1       28.313 -14.479   4.725  0.00  0.00    +0.020 A 
ATOM     16  C   LIG    1       27.706 -13.264   4.454  0.00  0.00    +0.113 A 
ATOM     17  N   LIG    1       26.573 -13.141   3.736  0.00  0.00    -0.240 NA
ATOM     18  C   LIG    1       24.298 -12.861   2.180  0.00  0.00    +0.122 C 
ATOM     19  C   LIG    1       23.569 -16.132   3.996  0.00  0.00    -0.022 A 
ATOM     20  C   LIG    1       24.126 -11.784   3.275  0.00  0.00    +0.103 C 
ENDROOT
TORSDOF 0
ENDMDL
