MODEL 1
REMARK VINA RESULT:      -1.6      0.000      0.000
REMARK  Name = *****
REMARK                            x       y       z     vdW  Elec       q    Type
REMARK                         _______ _______ _______ _____ _____    ______ ____
ROOT
ATOM      1  C   LIG    1       22.969 -21.426   6.557  0.00  0.00    +0.105 C 
ATOM      2  N   LIG    1       22.997 -20.767   5.248  0.00  0.00    -0.302 NA
ATOM      3  C   LIG    1       23.492 -19.369   5.397  0.00  0.00    +0.111 C 
ATOM      4  C   LIG    1       23.845 -18.693   4.026  0.00  0.00    +0.119 C 
ATOM      5  N   LIG    1       24.903 -19.487   3.336  0.00  0.00    -0.305 N 
ATOM      6  C   LIG    1       26.116 -19.483   4.061  0.00  0.00    +0.125 A 
ATOM      7  C   LIG    1       26.872 -18.307   4.087  0.00  0.00    -0.003 A 
ATOM      8  C   LIG    1       26.458 -17.156   3.221  0.00  0.00    +0.074 C 
ATOM      9  C   LIG    1       25.193 -16.470   3.678  0.00  0.00    -0.038 A 
ATOM     10  C   LIG    1       25.175 -15.059   3.637  0.00  0.00    +0.004 A 
ATOM     11  C   LIG    1       24.036 -14.337   3.981  0.00  0.00    +0.000 A 
ATOM     12  C   LIG    1       22.891 -15.012   4.376  0.00  0.00    +0.000 A 
ATOM     13  C   LIG    1       22.888 -16.407   4.414  0.00  0.00    +0.006 A 
ATOM     14  C   LIG    1       27.994 -18.237   4.921  0.00  0.00    +0.009 A 
ATOM     15  C   LIG    1       28.342 -19.326   5.703  0.00  0.00    +0.020 A 
ATOM     16  C   LIG    1       27.571 -20.466   5.586  0.00  0.00    +0.113 A 
ATOM     17  N   LIG    1       26.500 -20.564   4.774  0.00  0.00    -0.240 NA
ATOM     18  C   LIG    1       24.384 -20.847   3.061  0.00  0.00    +0.122 C 
ATOM     19  C   LIG    1       24.027 -17.170   4.058  0.00  0.00    -0.022 A 
ATOM     20  C   LIG    1       23.832 -21.572   4.318  0.00  0.00    +0.103 C 
ENDROOT
TORSDOF 0
ENDMDL
MODEL 2
REMARK VINA RESULT:      -1.0      1.367      1.894
REMARK  Name = *****
REMARK                            x       y       z     vdW  Elec       q    Type
REMARK                         _______ _______ _______ _____ _____    ______ ____
ROOT
ATOM      1  C   LIG    1       21.975 -19.896   5.009  0.00  0.00    +0.105 C 
ATOM      2  N   LIG    1       22.899 -19.519   3.936  0.00  0.00    -0.302 NA
ATOM      3  C   LIG    1       23.814 -18.443   4.411  0.00  0.00    +0.111 C 
ATOM      4  C   LIG    1       25.024 -18.193   3.444  0.00  0.00    +0.119 C 
ATOM      5  N   LIG    1       25.820 -19.448   3.306  0.00  0.00    -0.305 N 
ATOM      6  C   LIG    1       26.411 -19.829   4.532  0.00  0.00    +0.125 A 
ATOM      7  C   LIG    1       27.488 -19.079   5.013  0.00  0.00    -0.003 A 
ATOM      8  C   LIG    1       28.076 -18.009   4.143  0.00  0.00    +0.074 C 
ATOM      9  C   LIG    1       27.186 -16.803   3.969  0.00  0.00    -0.038 A 
ATOM     10  C   LIG    1       27.801 -15.533   4.029  0.00  0.00    +0.004 A 
ATOM     11  C   LIG    1       27.076 -14.364   3.821  0.00  0.00    +0.000 A 
ATOM     12  C   LIG    1       25.718 -14.440   3.553  0.00  0.00    +0.000 A 
ATOM     13  C   LIG    1       25.094 -15.686   3.481  0.00  0.00    +0.006 A 
ATOM     14  C   LIG    1       27.988 -19.346   6.293  0.00  0.00    +0.009 A 
ATOM     15  C   LIG    1       27.416 -20.346   7.062  0.00  0.00    +0.020 A 
ATOM     16  C   LIG    1       26.385 -21.072   6.497  0.00  0.00    +0.113 A 
ATOM     17  N   LIG    1       25.903 -20.847   5.259  0.00  0.00    -0.240 NA
ATOM     18  C   LIG    1       24.962 -20.500   2.712  0.00  0.00    +0.122 C 
ATOM     19  C   LIG    1       25.808 -16.894   3.675  0.00  0.00    -0.022 A 
ATOM     20  C   LIG    1       23.631 -20.729   3.479  0.00  0.00    +0.103 C 
ENDROOT
TORSDOF 0
ENDMDL
MODEL 3
REMARK VINA RESULT:       0.4      2.798      6.267
REMARK  Name = *****
REMARK                            x       y       z     vdW  Elec       q    Type
REMARK                         _______ _______ _______ _____ _____    ______ ____
ROOT
ATOM      1  C   LIG    1       27.888 -12.362   5.360  0.00  0.00    +0.105 C 
ATOM      2  N   LIG    1       28.102 -13.413   4.360  0.00  0.00    -0.302 NA
ATOM      3  C   LIG    1       27.713 -14.736   4.927  0.00  0.00    +0.111 C 
ATOM      4  C   LIG    1       27.617 -15.865   3.842  0.00  0.00    +0.119 C 
ATOM      5  N   LIG    1       26.601 -15.486   2.817  0.00  0.00    -0.305 N 
ATOM      6  C   LIG    1       25.304 -15.408   3.372  0.00  0.00    +0.125 A 
ATOM      7  C   LIG    1       24.656 -16.596   3.721  0.00  0.00    -0.003 A 
ATOM      8  C   LIG    1       25.285 -17.905   3.349  0.00  0.00    +0.074 C 
ATOM      9  C   LIG    1       26.528 -18.233   4.140  0.00  0.00    -0.038 A 
ATOM     10  C   LIG    1       26.675 -19.564   4.588  0.00  0.00    +0.004 A 
ATOM     11  C   LIG    1       27.813 -19.979   5.273  0.00  0.00    +0.000 A 
ATOM     12  C   LIG    1       28.827 -19.070   5.528  0.00  0.00    +0.000 A 
ATOM     13  C   LIG    1       28.704 -17.752   5.086  0.00  0.00    +0.006 A 
ATOM     14  C   LIG    1       23.438 -16.533   4.409  0.00  0.00    +0.009 A 
ATOM     15  C   LIG    1       22.891 -15.302   4.729  0.00  0.00    +0.020 A 
ATOM     16  C   LIG    1       23.569 -14.174   4.309  0.00  0.00    +0.113 A 
ATOM     17  N   LIG    1       24.730 -14.212   3.627  0.00  0.00    -0.240 NA
ATOM     18  C   LIG    1       27.033 -14.237   2.148  0.00  0.00    +0.122 C 
ATOM     19  C   LIG    1       27.564 -17.303   4.376  0.00  0.00    -0.022 A 
ATOM     20  C   LIG    1       27.339 -13.074   3.130  0.00  0.00    +0.103 C 
ENDROOT
TORSDOF 0
ENDMDL
