MODEL 1
REMARK VINA RESULT:      -9.0      0.000      0.000
REMARK  Name = *****
REMARK                            x       y       z     vdW  Elec       q    Type
REMARK                         _______ _______ _______ _____ _____    ______ ____
ROOT
ATOM      1  N   LIG    1       25.818 -22.723   6.056  0.00  0.00    -0.298 N 
ATOM      2  C   LIG    1       24.963 -21.691   5.584  0.00  0.00    +0.048 A 
ATOM      3  C   LIG    1       23.569 -21.742   5.731  0.00  0.00    +0.034 A 
ATOM      4  C   LIG    1       22.778 -20.676   5.277  0.00  0.00    +0.017 A 
ATOM      5  C   LIG    1       23.359 -19.590   4.618  0.00  0.00    +0.013 A 
ATOM      6  C   LIG    1       24.736 -19.556   4.390  0.00  0.00    +0.057 A 
ATOM      7  S   LIG    1       22.745 -23.121   6.505  0.00  0.00    -0.086 S 
ATOM      8  C   LIG    1       24.009 -24.379   6.399  0.00  0.00    +0.034 A 
ATOM      9  C   LIG    1       23.602 -25.719   6.517  0.00  0.00    +0.017 A 
ATOM     10  C   LIG    1       24.544 -26.747   6.467  0.00  0.00    +0.001 A 
ATOM     11  C   LIG    1       25.890 -26.448   6.321  0.00  0.00    +0.002 A 
ATOM     12  C   LIG    1       26.305 -25.114   6.215  0.00  0.00    +0.024 A 
ATOM     13  C   LIG    1       25.527 -20.607   4.884  0.00  0.00    +0.037 A 
ATOM     14  C   LIG    1       25.371 -24.061   6.247  0.00  0.00    +0.048 A 
ENDROOT
BRANCH   6  15
ATOM     15  C   LIG    1       25.388 -18.436   3.621  0.00  0.00    +0.417 C 
ATOM     16  F   LIG    1       25.568 -18.744   2.307  0.00  0.00    -0.166 F 
ATOM     17  F   LIG    1       26.622 -18.125   4.103  0.00  0.00    -0.166 F 
ATOM     18  F   LIG    1       24.675 -17.276   3.638  0.00  0.00    -0.166 F 
ENDBRANCH   6  15
BRANCH   1  19
ATOM     19  C   LIG    1       26.778 -22.242   7.090  0.00  0.00    +0.112 C 
BRANCH  19  20
ATOM     20  C   LIG    1       26.515 -20.783   7.495  0.00  0.00    +0.035 C 
BRANCH  20  21
ATOM     21  C   LIG    1       27.814 -20.032   7.825  0.00  0.00    +0.086 C 
BRANCH  21  25
ATOM     22  N   LIG    1       31.355 -19.195   8.271  0.00  0.00    -0.298 NA
ATOM     23  C   LIG    1       30.407 -18.428   7.427  0.00  0.00    +0.100 C 
ATOM     24  C   LIG    1       29.672 -19.291   6.378  0.00  0.00    +0.100 C 
ATOM     25  N   LIG    1       28.942 -20.437   6.961  0.00  0.00    -0.300 NA
ATOM     26  C   LIG    1       29.941 -21.236   7.704  0.00  0.00    +0.100 C 
ATOM     27  C   LIG    1       30.736 -20.442   8.772  0.00  0.00    +0.100 C 
BRANCH  22  28
ATOM     28  C   LIG    1       31.828 -18.326   9.375  0.00  0.00    +0.112 C 
BRANCH  28  29
ATOM     29  C   LIG    1       31.516 -16.832   9.197  0.00  0.00    +0.171 C 
BRANCH  29  30
ATOM     30  O   LIG    1       32.670 -16.114   8.779  0.00  0.00    -0.394 OA
ATOM     31  H   LIG    1       33.380 -16.779   8.703  0.00  0.00    +0.209 HD
ENDBRANCH  29  30
ENDBRANCH  28  29
ENDBRANCH  22  28
ENDBRANCH  21  25
ENDBRANCH  20  21
ENDBRANCH  19  20
ENDBRANCH   1  19
TORSDOF 8
ENDMDL
MODEL 2
REMARK VINA RESULT:      -7.9      3.785      5.436
REMARK  Name = *****
REMARK                            x       y       z     vdW  Elec       q    Type
REMARK                         _______ _______ _______ _____ _____    ______ ____
ROOT
ATOM      1  N   LIG    1       25.035 -23.183   7.162  0.00  0.00    -0.298 N 
ATOM      2  C   LIG    1       25.133 -24.411   6.453  0.00  0.00    +0.048 A 
ATOM      3  C   LIG    1       24.992 -24.488   5.060  0.00  0.00    +0.034 A 
ATOM      4  C   LIG    1       25.135 -25.724   4.410  0.00  0.00    +0.017 A 
ATOM      5  C   LIG    1       25.353 -26.892   5.144  0.00  0.00    +0.013 A 
ATOM      6  C   LIG    1       25.417 -26.849   6.538  0.00  0.00    +0.057 A 
ATOM      7  S   LIG    1       24.653 -23.053   4.058  0.00  0.00    -0.086 S 
ATOM      8  C   LIG    1       24.031 -21.916   5.287  0.00  0.00    +0.034 A 
ATOM      9  C   LIG    1       23.265 -20.828   4.835  0.00  0.00    +0.017 A 
ATOM     10  C   LIG    1       22.770 -19.890   5.743  0.00  0.00    +0.001 A 
ATOM     11  C   LIG    1       23.051 -20.019   7.095  0.00  0.00    +0.002 A 
ATOM     12  C   LIG    1       23.824 -21.094   7.551  0.00  0.00    +0.024 A 
ATOM     13  C   LIG    1       25.314 -25.603   7.180  0.00  0.00    +0.037 A 
ATOM     14  C   LIG    1       24.320 -22.060   6.656  0.00  0.00    +0.048 A 
ENDROOT
BRANCH   6  15
ATOM     15  C   LIG    1       25.578 -28.098   7.366  0.00  0.00    +0.417 C 
ATOM     16  F   LIG    1       24.407 -28.504   7.928  0.00  0.00    -0.166 F 
ATOM     17  F   LIG    1       26.449 -27.927   8.399  0.00  0.00    -0.166 F 
ATOM     18  F   LIG    1       26.042 -29.165   6.658  0.00  0.00    -0.166 F 
ENDBRANCH   6  15
BRANCH   1  19
ATOM     19  C   LIG    1       26.291 -22.837   7.886  0.00  0.00    +0.112 C 
BRANCH  19  20
ATOM     20  C   LIG    1       27.139 -21.808   7.121  0.00  0.00    +0.035 C 
BRANCH  20  21
ATOM     21  C   LIG    1       28.251 -21.212   7.996  0.00  0.00    +0.086 C 
BRANCH  21  25
ATOM     22  N   LIG    1       30.718 -18.514   8.271  0.00  0.00    -0.298 NA
ATOM     23  C   LIG    1       29.653 -18.580   7.241  0.00  0.00    +0.100 C 
ATOM     24  C   LIG    1       29.647 -19.901   6.439  0.00  0.00    +0.100 C 
ATOM     25  N   LIG    1       29.542 -21.108   7.287  0.00  0.00    -0.300 NA
ATOM     26  C   LIG    1       30.682 -21.060   8.228  0.00  0.00    +0.100 C 
ATOM     27  C   LIG    1       30.771 -19.759   9.067  0.00  0.00    +0.100 C 
BRANCH  22  28
ATOM     28  C   LIG    1       30.491 -17.320   9.121  0.00  0.00    +0.112 C 
BRANCH  28  29
ATOM     29  C   LIG    1       31.764 -16.715   9.733  0.00  0.00    +0.171 C 
BRANCH  29  30
ATOM     30  O   LIG    1       32.626 -16.205   8.723  0.00  0.00    -0.394 OA
ATOM     31  H   LIG    1       32.356 -15.276   8.592  0.00  0.00    +0.209 HD
ENDBRANCH  29  30
ENDBRANCH  28  29
ENDBRANCH  22  28
ENDBRANCH  21  25
ENDBRANCH  20  21
ENDBRANCH  19  20
ENDBRANCH   1  19
TORSDOF 8
ENDMDL
MODEL 3
REMARK VINA RESULT:      -7.6      3.967      7.614
REMARK  Name = *****
REMARK                            x       y       z     vdW  Elec       q    Type
REMARK                         _______ _______ _______ _____ _____    ______ ____
ROOT
ATOM      1  N   LIG    1       27.404 -20.660   7.297  0.00  0.00    -0.298 N 
ATOM      2  C   LIG    1       26.525 -20.307   6.237  0.00  0.00    +0.048 A 
ATOM      3  C   LIG    1       26.963 -19.624   5.093  0.00  0.00    +0.034 A 
ATOM      4  C   LIG    1       26.056 -19.333   4.062  0.00  0.00    +0.017 A 
ATOM      5  C   LIG    1       24.704 -19.661   4.191  0.00  0.00    +0.013 A 
ATOM      6  C   LIG    1       24.233 -20.269   5.356  0.00  0.00    +0.057 A 
ATOM      7  S   LIG    1       28.659 -19.117   4.879  0.00  0.00    -0.086 S 
ATOM      8  C   LIG    1       29.251 -19.184   6.563  0.00  0.00    +0.034 A 
ATOM      9  C   LIG    1       30.414 -18.458   6.871  0.00  0.00    +0.017 A 
ATOM     10  C   LIG    1       30.942 -18.489   8.163  0.00  0.00    +0.001 A 
ATOM     11  C   LIG    1       30.330 -19.255   9.143  0.00  0.00    +0.002 A 
ATOM     12  C   LIG    1       29.179 -19.992   8.841  0.00  0.00    +0.024 A 
ATOM     13  C   LIG    1       25.153 -20.595   6.366  0.00  0.00    +0.037 A 
ATOM     14  C   LIG    1       28.619 -19.964   7.549  0.00  0.00    +0.048 A 
ENDROOT
BRANCH   6  15
ATOM     15  C   LIG    1       22.770 -20.571   5.559  0.00  0.00    +0.417 C 
ATOM     16  F   LIG    1       21.995 -19.454   5.491  0.00  0.00    -0.166 F 
ATOM     17  F   LIG    1       22.519 -21.125   6.778  0.00  0.00    -0.166 F 
ATOM     18  F   LIG    1       22.259 -21.437   4.641  0.00  0.00    -0.166 F 
ENDBRANCH   6  15
BRANCH   1  19
ATOM     19  C   LIG    1       27.484 -22.134   7.506  0.00  0.00    +0.112 C 
BRANCH  19  20
ATOM     20  C   LIG    1       26.095 -22.781   7.626  0.00  0.00    +0.035 C 
BRANCH  20  21
ATOM     21  C   LIG    1       26.008 -24.107   6.856  0.00  0.00    +0.086 C 
BRANCH  21  25
ATOM     22  N   LIG    1       24.632 -27.105   5.255  0.00  0.00    -0.298 NA
ATOM     23  C   LIG    1       25.582 -26.166   4.611  0.00  0.00    +0.100 C 
ATOM     24  C   LIG    1       25.111 -24.694   4.632  0.00  0.00    +0.100 C 
ATOM     25  N   LIG    1       24.815 -24.188   5.989  0.00  0.00    -0.300 NA
ATOM     26  C   LIG    1       23.785 -25.086   6.557  0.00  0.00    +0.100 C 
ATOM     27  C   LIG    1       24.173 -26.587   6.562  0.00  0.00    +0.100 C 
BRANCH  22  28
ATOM     28  C   LIG    1       25.278 -28.433   5.379  0.00  0.00    +0.112 C 
BRANCH  28  29
ATOM     29  C   LIG    1       24.433 -29.494   6.101  0.00  0.00    +0.171 C 
BRANCH  29  30
ATOM     30  O   LIG    1       23.183 -29.684   5.451  0.00  0.00    -0.394 OA
ATOM     31  H   LIG    1       23.085 -28.928   4.842  0.00  0.00    +0.209 HD
ENDBRANCH  29  30
ENDBRANCH  28  29
ENDBRANCH  22  28
ENDBRANCH  21  25
ENDBRANCH  20  21
ENDBRANCH  19  20
ENDBRANCH   1  19
TORSDOF 8
ENDMDL
MODEL 4
REMARK VINA RESULT:      -7.1      1.452      1.937
REMARK  Name = *****
REMARK                            x       y       z     vdW  Elec       q    Type
REMARK                         _______ _______ _______ _____ _____    ______ ____
ROOT
ATOM      1  N   LIG    1       25.778 -22.744   6.103  0.00  0.00    -0.298 N 
ATOM      2  C   LIG    1       24.905 -21.751   5.582  0.00  0.00    +0.048 A 
ATOM      3  C   LIG    1       23.509 -21.857   5.668  0.00  0.00    +0.034 A 
ATOM      4  C   LIG    1       22.697 -20.827   5.167  0.00  0.00    +0.017 A 
ATOM      5  C   LIG    1       23.264 -19.725   4.523  0.00  0.00    +0.013 A 
ATOM      6  C   LIG    1       24.647 -19.639   4.355  0.00  0.00    +0.057 A 
ATOM      7  S   LIG    1       22.706 -23.260   6.420  0.00  0.00    -0.086 S 
ATOM      8  C   LIG    1       24.022 -24.467   6.384  0.00  0.00    +0.034 A 
ATOM      9  C   LIG    1       23.664 -25.821   6.499  0.00  0.00    +0.017 A 
ATOM     10  C   LIG    1       24.647 -26.812   6.502  0.00  0.00    +0.001 A 
ATOM     11  C   LIG    1       25.985 -26.460   6.411  0.00  0.00    +0.002 A 
ATOM     12  C   LIG    1       26.351 -25.113   6.309  0.00  0.00    +0.024 A 
ATOM     13  C   LIG    1       25.457 -20.652   4.896  0.00  0.00    +0.037 A 
ATOM     14  C   LIG    1       25.376 -24.097   6.288  0.00  0.00    +0.048 A 
ENDROOT
BRANCH   6  15
ATOM     15  C   LIG    1       25.288 -18.501   3.603  0.00  0.00    +0.417 C 
ATOM     16  F   LIG    1       26.517 -18.180   4.092  0.00  0.00    -0.166 F 
ATOM     17  F   LIG    1       24.551 -17.357   3.666  0.00  0.00    -0.166 F 
ATOM     18  F   LIG    1       25.469 -18.757   2.277  0.00  0.00    -0.166 F 
ENDBRANCH   6  15
BRANCH   1  19
ATOM     19  C   LIG    1       26.672 -22.216   7.172  0.00  0.00    +0.112 C 
BRANCH  19  20
ATOM     20  C   LIG    1       26.332 -20.765   7.550  0.00  0.00    +0.035 C 
BRANCH  20  21
ATOM     21  C   LIG    1       27.518 -20.049   8.213  0.00  0.00    +0.086 C 
BRANCH  21  25
ATOM     22  N   LIG    1       31.171 -20.192   7.922  0.00  0.00    -0.298 NA
ATOM     23  C   LIG    1       30.426 -19.172   8.701  0.00  0.00    +0.100 C 
ATOM     24  C   LIG    1       29.350 -18.428   7.879  0.00  0.00    +0.100 C 
ATOM     25  N   LIG    1       28.365 -19.327   7.241  0.00  0.00    -0.300 NA
ATOM     26  C   LIG    1       29.138 -20.258   6.390  0.00  0.00    +0.100 C 
ATOM     27  C   LIG    1       30.250 -21.040   7.135  0.00  0.00    +0.100 C 
BRANCH  22  28
ATOM     28  C   LIG    1       32.005 -20.991   8.851  0.00  0.00    +0.112 C 
BRANCH  28  29
ATOM     29  C   LIG    1       31.429 -22.370   9.209  0.00  0.00    +0.171 C 
BRANCH  29  30
ATOM     30  O   LIG    1       30.672 -22.313  10.411  0.00  0.00    -0.394 OA
ATOM     31  H   LIG    1       31.308 -22.480  11.131  0.00  0.00    +0.209 HD
ENDBRANCH  29  30
ENDBRANCH  28  29
ENDBRANCH  22  28
ENDBRANCH  21  25
ENDBRANCH  20  21
ENDBRANCH  19  20
ENDBRANCH   1  19
TORSDOF 8
ENDMDL
MODEL 5
REMARK VINA RESULT:      -7.1      7.307     10.386
REMARK  Name = *****
REMARK                            x       y       z     vdW  Elec       q    Type
REMARK                         _______ _______ _______ _____ _____    ______ ____
ROOT
ATOM      1  N   LIG    1       24.364 -31.236   7.437  0.00  0.00    -0.298 N 
ATOM      2  C   LIG    1       24.216 -31.020   8.834  0.00  0.00    +0.048 A 
ATOM      3  C   LIG    1       25.303 -31.055   9.720  0.00  0.00    +0.034 A 
ATOM      4  C   LIG    1       25.101 -30.799  11.085  0.00  0.00    +0.017 A 
ATOM      5  C   LIG    1       23.816 -30.573  11.583  0.00  0.00    +0.013 A 
ATOM      6  C   LIG    1       22.711 -30.614  10.731  0.00  0.00    +0.057 A 
ATOM      7  S   LIG    1       26.965 -31.396   9.173  0.00  0.00    -0.086 S 
ATOM      8  C   LIG    1       26.654 -32.166   7.591  0.00  0.00    +0.034 A 
ATOM      9  C   LIG    1       27.679 -32.954   7.040  0.00  0.00    +0.017 A 
ATOM     10  C   LIG    1       27.507 -33.563   5.796  0.00  0.00    +0.001 A 
ATOM     11  C   LIG    1       26.329 -33.375   5.089  0.00  0.00    +0.002 A 
ATOM     12  C   LIG    1       25.308 -32.581   5.626  0.00  0.00    +0.024 A 
ATOM     13  C   LIG    1       22.924 -30.829   9.360  0.00  0.00    +0.037 A 
ATOM     14  C   LIG    1       25.452 -31.970   6.886  0.00  0.00    +0.048 A 
ENDROOT
BRANCH   6  15
ATOM     15  C   LIG    1       21.304 -30.447  11.246  0.00  0.00    +0.417 C 
ATOM     16  F   LIG    1       20.378 -30.473  10.248  0.00  0.00    -0.166 F 
ATOM     17  F   LIG    1       21.124 -29.260  11.889  0.00  0.00    -0.166 F 
ATOM     18  F   LIG    1       20.928 -31.413  12.129  0.00  0.00    -0.166 F 
ENDBRANCH   6  15
BRANCH   1  19
ATOM     19  C   LIG    1       23.946 -30.055   6.629  0.00  0.00    +0.112 C 
BRANCH  19  20
ATOM     20  C   LIG    1       24.637 -28.761   7.088  0.00  0.00    +0.035 C 
BRANCH  20  21
ATOM     21  C   LIG    1       24.466 -27.624   6.070  0.00  0.00    +0.086 C 
BRANCH  21  25
ATOM     22  N   LIG    1       25.402 -24.104   5.649  0.00  0.00    -0.298 NA
ATOM     23  C   LIG    1       24.843 -24.962   4.576  0.00  0.00    +0.100 C 
ATOM     24  C   LIG    1       25.628 -26.275   4.360  0.00  0.00    +0.100 C 
ATOM     25  N   LIG    1       25.757 -27.096   5.583  0.00  0.00    -0.300 NA
ATOM     26  C   LIG    1       26.416 -26.240   6.594  0.00  0.00    +0.100 C 
ATOM     27  C   LIG    1       25.698 -24.893   6.864  0.00  0.00    +0.100 C 
BRANCH  22  28
ATOM     28  C   LIG    1       24.454 -22.997   5.922  0.00  0.00    +0.112 C 
BRANCH  28  29
ATOM     29  C   LIG    1       23.442 -23.279   7.043  0.00  0.00    +0.171 C 
BRANCH  29  30
ATOM     30  O   LIG    1       22.221 -23.784   6.516  0.00  0.00    -0.394 OA
ATOM     31  H   LIG    1       22.340 -24.750   6.456  0.00  0.00    +0.209 HD
ENDBRANCH  29  30
ENDBRANCH  28  29
ENDBRANCH  22  28
ENDBRANCH  21  25
ENDBRANCH  20  21
ENDBRANCH  19  20
ENDBRANCH   1  19
TORSDOF 8
ENDMDL
MODEL 6
REMARK VINA RESULT:      -7.0      7.651     11.633
REMARK  Name = *****
REMARK                            x       y       z     vdW  Elec       q    Type
REMARK                         _______ _______ _______ _____ _____    ______ ____
ROOT
ATOM      1  N   LIG    1       25.625 -29.895   8.251  0.00  0.00    -0.298 N 
ATOM      2  C   LIG    1       25.214 -29.067   7.172  0.00  0.00    +0.048 A 
ATOM      3  C   LIG    1       24.746 -29.590   5.958  0.00  0.00    +0.034 A 
ATOM      4  C   LIG    1       24.320 -28.723   4.940  0.00  0.00    +0.017 A 
ATOM      5  C   LIG    1       24.419 -27.339   5.098  0.00  0.00    +0.013 A 
ATOM      6  C   LIG    1       24.957 -26.798   6.267  0.00  0.00    +0.057 A 
ATOM      7  S   LIG    1       24.646 -31.344   5.654  0.00  0.00    -0.086 S 
ATOM      8  C   LIG    1       25.751 -31.972   6.910  0.00  0.00    +0.034 A 
ATOM      9  C   LIG    1       26.267 -33.267   6.731  0.00  0.00    +0.017 A 
ATOM     10  C   LIG    1       27.116 -33.825   7.689  0.00  0.00    +0.001 A 
ATOM     11  C   LIG    1       27.437 -33.108   8.831  0.00  0.00    +0.002 A 
ATOM     12  C   LIG    1       26.917 -31.822   9.023  0.00  0.00    +0.024 A 
ATOM     13  C   LIG    1       25.343 -27.670   7.299  0.00  0.00    +0.037 A 
ATOM     14  C   LIG    1       26.071 -31.234   8.063  0.00  0.00    +0.048 A 
ENDROOT
BRANCH   6  15
ATOM     15  C   LIG    1       25.146 -25.313   6.443  0.00  0.00    +0.417 C 
ATOM     16  F   LIG    1       26.067 -25.015   7.399  0.00  0.00    -0.166 F 
ATOM     17  F   LIG    1       23.998 -24.685   6.822  0.00  0.00    -0.166 F 
ATOM     18  F   LIG    1       25.563 -24.679   5.312  0.00  0.00    -0.166 F 
ENDBRANCH   6  15
BRANCH   1  19
ATOM     19  C   LIG    1       24.803 -29.686   9.477  0.00  0.00    +0.112 C 
BRANCH  19  20
ATOM     20  C   LIG    1       23.377 -30.239   9.322  0.00  0.00    +0.035 C 
BRANCH  20  21
ATOM     21  C   LIG    1       22.596 -30.200  10.644  0.00  0.00    +0.086 C 
BRANCH  21  25
ATOM     22  N   LIG    1       19.580 -32.112  11.474  0.00  0.00    -0.298 NA
ATOM     23  C   LIG    1       20.273 -31.186  12.402  0.00  0.00    +0.100 C 
ATOM     24  C   LIG    1       21.777 -31.495  12.579  0.00  0.00    +0.100 C 
ATOM     25  N   LIG    1       22.530 -31.518  11.307  0.00  0.00    -0.300 NA
ATOM     26  C   LIG    1       21.874 -32.530  10.450  0.00  0.00    +0.100 C 
ATOM     27  C   LIG    1       20.357 -32.302  10.229  0.00  0.00    +0.100 C 
BRANCH  22  28
ATOM     28  C   LIG    1       18.218 -31.593  11.205  0.00  0.00    +0.112 C 
BRANCH  28  29
ATOM     29  C   LIG    1       17.821 -31.566   9.720  0.00  0.00    +0.171 C 
BRANCH  29  30
ATOM     30  O   LIG    1       17.656 -30.232   9.257  0.00  0.00    -0.394 OA
ATOM     31  H   LIG    1       18.094 -30.199   8.386  0.00  0.00    +0.209 HD
ENDBRANCH  29  30
ENDBRANCH  28  29
ENDBRANCH  22  28
ENDBRANCH  21  25
ENDBRANCH  20  21
ENDBRANCH  19  20
ENDBRANCH   1  19
TORSDOF 8
ENDMDL
MODEL 7
REMARK VINA RESULT:      -6.8     10.108     12.300
REMARK  Name = *****
REMARK                            x       y       z     vdW  Elec       q    Type
REMARK                         _______ _______ _______ _____ _____    ______ ____
ROOT
ATOM      1  N   LIG    1       22.408 -30.496  12.782  0.00  0.00    -0.298 N 
ATOM      2  C   LIG    1       22.306 -29.099  13.022  0.00  0.00    +0.048 A 
ATOM      3  C   LIG    1       23.430 -28.266  13.103  0.00  0.00    +0.034 A 
ATOM      4  C   LIG    1       23.266 -26.886  13.306  0.00  0.00    +0.017 A 
ATOM      5  C   LIG    1       21.993 -26.343  13.495  0.00  0.00    +0.013 A 
ATOM      6  C   LIG    1       20.866 -27.167  13.499  0.00  0.00    +0.057 A 
ATOM      7  S   LIG    1       25.092 -28.890  12.933  0.00  0.00    -0.086 S 
ATOM      8  C   LIG    1       24.837 -30.630  13.247  0.00  0.00    +0.034 A 
ATOM      9  C   LIG    1       25.956 -31.393  13.620  0.00  0.00    +0.017 A 
ATOM     10  C   LIG    1       25.828 -32.763  13.855  0.00  0.00    +0.001 A 
ATOM     11  C   LIG    1       24.596 -33.380  13.703  0.00  0.00    +0.002 A 
ATOM     12  C   LIG    1       23.478 -32.629  13.320  0.00  0.00    +0.024 A 
ATOM     13  C   LIG    1       21.034 -28.540  13.253  0.00  0.00    +0.037 A 
ATOM     14  C   LIG    1       23.580 -31.243  13.092  0.00  0.00    +0.048 A 
ENDROOT
BRANCH   6  15
ATOM     15  C   LIG    1       19.486 -26.626  13.771  0.00  0.00    +0.417 C 
ATOM     16  F   LIG    1       18.548 -27.610  13.851  0.00  0.00    -0.166 F 
ATOM     17  F   LIG    1       19.058 -25.781  12.793  0.00  0.00    -0.166 F 
ATOM     18  F   LIG    1       19.395 -25.927  14.936  0.00  0.00    -0.166 F 
ENDBRANCH   6  15
BRANCH   1  19
ATOM     19  C   LIG    1       21.729 -30.912  11.522  0.00  0.00    +0.112 C 
BRANCH  19  20
ATOM     20  C   LIG    1       22.510 -30.481  10.271  0.00  0.00    +0.035 C 
BRANCH  20  21
ATOM     21  C   LIG    1       22.968 -31.684   9.434  0.00  0.00    +0.086 C 
BRANCH  21  25
ATOM     22  N   LIG    1       25.638 -31.069   6.997  0.00  0.00    -0.298 NA
ATOM     23  C   LIG    1       24.908 -32.352   7.142  0.00  0.00    +0.100 C 
ATOM     24  C   LIG    1       24.929 -32.918   8.580  0.00  0.00    +0.100 C 
ATOM     25  N   LIG    1       24.407 -31.976   9.594  0.00  0.00    -0.300 NA
ATOM     26  C   LIG    1       25.230 -30.751   9.490  0.00  0.00    +0.100 C 
ATOM     27  C   LIG    1       25.274 -30.123   8.074  0.00  0.00    +0.100 C 
BRANCH  22  28
ATOM     28  C   LIG    1       25.364 -30.511   5.651  0.00  0.00    +0.112 C 
BRANCH  28  29
ATOM     29  C   LIG    1       24.535 -29.216   5.648  0.00  0.00    +0.171 C 
BRANCH  29  30
ATOM     30  O   LIG    1       23.161 -29.488   5.401  0.00  0.00    -0.394 OA
ATOM     31  H   LIG    1       22.675 -29.077   6.140  0.00  0.00    +0.209 HD
ENDBRANCH  29  30
ENDBRANCH  28  29
ENDBRANCH  22  28
ENDBRANCH  21  25
ENDBRANCH  20  21
ENDBRANCH  19  20
ENDBRANCH   1  19
TORSDOF 8
ENDMDL
MODEL 8
REMARK VINA RESULT:      -6.8      4.232      7.477
REMARK  Name = *****
REMARK                            x       y       z     vdW  Elec       q    Type
REMARK                         _______ _______ _______ _____ _____    ______ ____
ROOT
ATOM      1  N   LIG    1       25.836 -21.202   6.139  0.00  0.00    -0.298 N 
ATOM      2  C   LIG    1       25.327 -20.224   5.241  0.00  0.00    +0.048 A 
ATOM      3  C   LIG    1       26.162 -19.373   4.503  0.00  0.00    +0.034 A 
ATOM      4  C   LIG    1       25.603 -18.451   3.605  0.00  0.00    +0.017 A 
ATOM      5  C   LIG    1       24.217 -18.326   3.485  0.00  0.00    +0.013 A 
ATOM      6  C   LIG    1       23.367 -19.108   4.269  0.00  0.00    +0.057 A 
ATOM      7  S   LIG    1       27.939 -19.427   4.645  0.00  0.00    -0.086 S 
ATOM      8  C   LIG    1       28.132 -20.278   6.203  0.00  0.00    +0.034 A 
ATOM      9  C   LIG    1       29.364 -20.144   6.867  0.00  0.00    +0.017 A 
ATOM     10  C   LIG    1       29.587 -20.804   8.077  0.00  0.00    +0.001 A 
ATOM     11  C   LIG    1       28.598 -21.611   8.619  0.00  0.00    +0.002 A 
ATOM     12  C   LIG    1       27.373 -21.760   7.957  0.00  0.00    +0.024 A 
ATOM     13  C   LIG    1       23.933 -20.058   5.136  0.00  0.00    +0.037 A 
ATOM     14  C   LIG    1       27.120 -21.092   6.744  0.00  0.00    +0.048 A 
ENDROOT
BRANCH   6  15
ATOM     15  C   LIG    1       21.869 -18.950   4.218  0.00  0.00    +0.417 C 
ATOM     16  F   LIG    1       21.418 -18.665   2.966  0.00  0.00    -0.166 F 
ATOM     17  F   LIG    1       21.428 -17.935   5.013  0.00  0.00    -0.166 F 
ATOM     18  F   LIG    1       21.189 -20.061   4.616  0.00  0.00    -0.166 F 
ENDBRANCH   6  15
BRANCH   1  19
ATOM     19  C   LIG    1       25.455 -22.589   5.749  0.00  0.00    +0.112 C 
BRANCH  19  20
ATOM     20  C   LIG    1       24.480 -23.228   6.751  0.00  0.00    +0.035 C 
BRANCH  20  21
ATOM     21  C   LIG    1       24.298 -24.732   6.499  0.00  0.00    +0.086 C 
BRANCH  21  25
ATOM     22  N   LIG    1       25.198 -28.278   6.251  0.00  0.00    -0.298 NA
ATOM     23  C   LIG    1       25.795 -27.322   7.216  0.00  0.00    +0.100 C 
ATOM     24  C   LIG    1       26.381 -26.056   6.552  0.00  0.00    +0.100 C 
ATOM     25  N   LIG    1       25.407 -25.319   5.719  0.00  0.00    -0.300 NA
ATOM     26  C   LIG    1       24.916 -26.276   4.703  0.00  0.00    +0.100 C 
ATOM     27  C   LIG    1       24.321 -27.584   5.284  0.00  0.00    +0.100 C 
BRANCH  22  28
ATOM     28  C   LIG    1       24.474 -29.331   7.003  0.00  0.00    +0.112 C 
BRANCH  28  29
ATOM     29  C   LIG    1       24.536 -30.730   6.372  0.00  0.00    +0.171 C 
BRANCH  29  30
ATOM     30  O   LIG    1       23.295 -31.077   5.770  0.00  0.00    -0.394 OA
ATOM     31  H   LIG    1       23.294 -32.051   5.713  0.00  0.00    +0.209 HD
ENDBRANCH  29  30
ENDBRANCH  28  29
ENDBRANCH  22  28
ENDBRANCH  21  25
ENDBRANCH  20  21
ENDBRANCH  19  20
ENDBRANCH   1  19
TORSDOF 8
ENDMDL
MODEL 9
REMARK VINA RESULT:      -6.8      6.715      8.925
REMARK  Name = *****
REMARK                            x       y       z     vdW  Elec       q    Type
REMARK                         _______ _______ _______ _____ _____    ______ ____
ROOT
ATOM      1  N   LIG    1       25.496 -29.926   8.160  0.00  0.00    -0.298 N 
ATOM      2  C   LIG    1       25.278 -29.058   7.055  0.00  0.00    +0.048 A 
ATOM      3  C   LIG    1       25.119 -29.533   5.746  0.00  0.00    +0.034 A 
ATOM      4  C   LIG    1       24.869 -28.631   4.699  0.00  0.00    +0.017 A 
ATOM      5  C   LIG    1       24.843 -27.255   4.939  0.00  0.00    +0.013 A 
ATOM      6  C   LIG    1       25.078 -26.757   6.221  0.00  0.00    +0.057 A 
ATOM      7  S   LIG    1       25.200 -31.269   5.347  0.00  0.00    -0.086 S 
ATOM      8  C   LIG    1       26.044 -31.911   6.785  0.00  0.00    +0.034 A 
ATOM      9  C   LIG    1       26.668 -33.164   6.666  0.00  0.00    +0.017 A 
ATOM     10  C   LIG    1       27.323 -33.732   7.760  0.00  0.00    +0.001 A 
ATOM     11  C   LIG    1       27.342 -33.068   8.977  0.00  0.00    +0.002 A 
ATOM     12  C   LIG    1       26.711 -31.824   9.108  0.00  0.00    +0.024 A 
ATOM     13  C   LIG    1       25.286 -27.667   7.271  0.00  0.00    +0.037 A 
ATOM     14  C   LIG    1       26.058 -31.226   8.014  0.00  0.00    +0.048 A 
ENDROOT
BRANCH   6  15
ATOM     15  C   LIG    1       25.128 -25.277   6.502  0.00  0.00    +0.417 C 
ATOM     16  F   LIG    1       23.922 -24.780   6.890  0.00  0.00    -0.166 F 
ATOM     17  F   LIG    1       25.495 -24.553   5.408  0.00  0.00    -0.166 F 
ATOM     18  F   LIG    1       26.006 -24.938   7.487  0.00  0.00    -0.166 F 
ENDBRANCH   6  15
BRANCH   1  19
ATOM     19  C   LIG    1       24.416 -29.833   9.182  0.00  0.00    +0.112 C 
BRANCH  19  20
ATOM     20  C   LIG    1       24.931 -30.123  10.601  0.00  0.00    +0.035 C 
BRANCH  20  21
ATOM     21  C   LIG    1       25.483 -28.862  11.283  0.00  0.00    +0.086 C 
BRANCH  21  25
ATOM     22  N   LIG    1       25.534 -26.314  13.919  0.00  0.00    -0.298 NA
ATOM     23  C   LIG    1       26.726 -26.768  13.162  0.00  0.00    +0.100 C 
ATOM     24  C   LIG    1       26.938 -28.298  13.197  0.00  0.00    +0.100 C 
ATOM     25  N   LIG    1       25.770 -29.068  12.718  0.00  0.00    -0.300 NA
ATOM     26  C   LIG    1       24.627 -28.668  13.567  0.00  0.00    +0.100 C 
ATOM     27  C   LIG    1       24.351 -27.143  13.600  0.00  0.00    +0.100 C 
BRANCH  22  28
ATOM     28  C   LIG    1       25.301 -24.879  13.633  0.00  0.00    +0.112 C 
BRANCH  28  29
ATOM     29  C   LIG    1       25.662 -23.927  14.785  0.00  0.00    +0.171 C 
BRANCH  29  30
ATOM     30  O   LIG    1       25.456 -22.570  14.412  0.00  0.00    -0.394 OA
ATOM     31  H   LIG    1       24.555 -22.533  14.039  0.00  0.00    +0.209 HD
ENDBRANCH  29  30
ENDBRANCH  28  29
ENDBRANCH  22  28
ENDBRANCH  21  25
ENDBRANCH  20  21
ENDBRANCH  19  20
ENDBRANCH   1  19
TORSDOF 8
ENDMDL
