MODEL 1
REMARK VINA RESULT:      -5.7      0.000      0.000
REMARK  Name = *****
REMARK                            x       y       z     vdW  Elec       q    Type
REMARK                         _______ _______ _______ _____ _____    ______ ____
ROOT
ATOM      1  C   LIG    1       25.232 -15.236   3.705  0.00  0.00    -0.034 A 
ATOM      2  C   LIG    1       26.213 -16.159   3.311  0.00  0.00    +0.005 A 
ATOM      3  C   LIG    1       25.951 -17.534   3.316  0.00  0.00    +0.012 A 
ATOM      4  C   LIG    1       24.686 -18.013   3.667  0.00  0.00    +0.023 A 
ATOM      5  C   LIG    1       23.701 -17.093   4.062  0.00  0.00    +0.012 A 
ATOM      6  C   LIG    1       23.970 -15.718   4.080  0.00  0.00    +0.005 A 
ENDROOT
BRANCH   1   8
ATOM      7  C   LIG    1       25.469 -13.103   2.393  0.00  0.00    +0.024 C 
ATOM      8  C   LIG    1       25.544 -13.745   3.783  0.00  0.00    +0.124 C 
BRANCH   8   9
ATOM      9  C   LIG    1       26.887 -13.426   4.446  0.00  0.00    +0.312 C 
ATOM     10  O   LIG    1       27.917 -13.196   3.830  0.00  0.00    -0.250 OA
BRANCH   9  11
ATOM     11  O   LIG    1       26.852 -13.343   5.799  0.00  0.00    -0.480 OA
ATOM     12  H   LIG    1       25.955 -13.336   6.184  0.00  0.00    +0.295 HD
ENDBRANCH   9  11
ENDBRANCH   8   9
ENDBRANCH   1   8
BRANCH   4  13
ATOM     13  C   LIG    1       24.386 -19.480   3.728  0.00  0.00    +0.200 C 
ATOM     14  O   LIG    1       24.352 -20.066   2.645  0.00  0.00    -0.286 OA
BRANCH  13  15
ATOM     15  C   LIG    1       24.134 -20.145   5.008  0.00  0.00    +0.059 A 
ATOM     16  S   LIG    1       25.403 -21.086   5.695  0.00  0.00    -0.093 S 
ATOM     17  C   LIG    1       24.467 -21.502   7.062  0.00  0.00    +0.046 A 
ATOM     18  C   LIG    1       23.218 -20.928   7.021  0.00  0.00    +0.008 A 
ATOM     19  C   LIG    1       23.026 -20.141   5.842  0.00  0.00    +0.019 A 
ENDBRANCH  13  15
ENDBRANCH   4  13
TORSDOF 5
ENDMDL
MODEL 2
REMARK VINA RESULT:      -5.7      1.371      1.746
REMARK  Name = *****
REMARK                            x       y       z     vdW  Elec       q    Type
REMARK                         _______ _______ _______ _____ _____    ______ ____
ROOT
ATOM      1  C   LIG    1       25.294 -15.172   3.711  0.00  0.00    -0.034 A 
ATOM      2  C   LIG    1       26.290 -16.079   3.318  0.00  0.00    +0.005 A 
ATOM      3  C   LIG    1       26.043 -17.458   3.308  0.00  0.00    +0.012 A 
ATOM      4  C   LIG    1       24.780 -17.954   3.641  0.00  0.00    +0.023 A 
ATOM      5  C   LIG    1       23.780 -17.048   4.034  0.00  0.00    +0.012 A 
ATOM      6  C   LIG    1       24.034 -15.671   4.067  0.00  0.00    +0.005 A 
ENDROOT
BRANCH   1   8
ATOM      7  C   LIG    1       26.357 -13.357   5.092  0.00  0.00    +0.024 C 
ATOM      8  C   LIG    1       25.588 -13.678   3.805  0.00  0.00    +0.124 C 
BRANCH   8   9
ATOM      9  C   LIG    1       24.342 -12.793   3.694  0.00  0.00    +0.312 C 
ATOM     10  O   LIG    1       23.849 -12.185   4.632  0.00  0.00    -0.250 OA
BRANCH   9  11
ATOM     11  O   LIG    1       23.843 -12.663   2.440  0.00  0.00    -0.480 OA
ATOM     12  H   LIG    1       23.143 -13.303   2.211  0.00  0.00    +0.295 HD
ENDBRANCH   9  11
ENDBRANCH   8   9
ENDBRANCH   1   8
BRANCH   4  13
ATOM     13  C   LIG    1       24.496 -19.425   3.685  0.00  0.00    +0.200 C 
ATOM     14  O   LIG    1       24.536 -20.011   2.602  0.00  0.00    -0.286 OA
BRANCH  13  15
ATOM     15  C   LIG    1       24.175 -20.092   4.948  0.00  0.00    +0.059 A 
ATOM     16  S   LIG    1       25.452 -20.882   5.793  0.00  0.00    -0.093 S 
ATOM     17  C   LIG    1       24.420 -21.374   7.062  0.00  0.00    +0.046 A 
ATOM     18  C   LIG    1       23.130 -20.936   6.872  0.00  0.00    +0.008 A 
ATOM     19  C   LIG    1       22.988 -20.193   5.657  0.00  0.00    +0.019 A 
ENDBRANCH  13  15
ENDBRANCH   4  13
TORSDOF 5
ENDMDL
MODEL 3
REMARK VINA RESULT:      -5.6      2.615      6.697
REMARK  Name = *****
REMARK                            x       y       z     vdW  Elec       q    Type
REMARK                         _______ _______ _______ _____ _____    ______ ____
ROOT
ATOM      1  C   LIG    1       23.346 -18.611   4.296  0.00  0.00    -0.034 A 
ATOM      2  C   LIG    1       22.448 -17.592   4.647  0.00  0.00    +0.005 A 
ATOM      3  C   LIG    1       22.783 -16.244   4.469  0.00  0.00    +0.012 A 
ATOM      4  C   LIG    1       24.004 -15.888   3.890  0.00  0.00    +0.023 A 
ATOM      5  C   LIG    1       24.906 -16.906   3.536  0.00  0.00    +0.012 A 
ATOM      6  C   LIG    1       24.580 -18.254   3.735  0.00  0.00    +0.005 A 
ENDROOT
BRANCH   1   8
ATOM      7  C   LIG    1       22.782 -20.308   6.065  0.00  0.00    +0.024 C 
ATOM      8  C   LIG    1       23.017 -20.075   4.568  0.00  0.00    +0.124 C 
BRANCH   8   9
ATOM      9  C   LIG    1       24.065 -21.056   4.034  0.00  0.00    +0.312 C 
ATOM     10  O   LIG    1       25.049 -21.416   4.663  0.00  0.00    -0.250 OA
BRANCH   9  11
ATOM     11  O   LIG    1       23.794 -21.572   2.810  0.00  0.00    -0.480 OA
ATOM     12  H   LIG    1       24.580 -21.752   2.259  0.00  0.00    +0.295 HD
ENDBRANCH   9  11
ENDBRANCH   8   9
ENDBRANCH   1   8
BRANCH   4  13
ATOM     13  C   LIG    1       24.414 -14.456   3.728  0.00  0.00    +0.200 C 
ATOM     14  O   LIG    1       23.534 -13.688   3.336  0.00  0.00    -0.286 OA
BRANCH  13  15
ATOM     15  C   LIG    1       25.786 -14.029   4.008  0.00  0.00    +0.059 A 
ATOM     16  S   LIG    1       26.892 -13.942   2.691  0.00  0.00    -0.093 S 
ATOM     17  C   LIG    1       28.170 -13.408   3.690  0.00  0.00    +0.046 A 
ATOM     18  C   LIG    1       27.774 -13.275   5.000  0.00  0.00    +0.008 A 
ATOM     19  C   LIG    1       26.400 -13.627   5.185  0.00  0.00    +0.019 A 
ENDBRANCH  13  15
ENDBRANCH   4  13
TORSDOF 5
ENDMDL
MODEL 4
REMARK VINA RESULT:      -5.5      1.406      1.701
REMARK  Name = *****
REMARK                            x       y       z     vdW  Elec       q    Type
REMARK                         _______ _______ _______ _____ _____    ______ ____
ROOT
ATOM      1  C   LIG    1       24.787 -14.859   3.743  0.00  0.00    -0.034 A 
ATOM      2  C   LIG    1       25.370 -16.095   3.420  0.00  0.00    +0.005 A 
ATOM      3  C   LIG    1       24.674 -17.293   3.622  0.00  0.00    +0.012 A 
ATOM      4  C   LIG    1       23.363 -17.278   4.103  0.00  0.00    +0.023 A 
ATOM      5  C   LIG    1       22.775 -16.044   4.427  0.00  0.00    +0.012 A 
ATOM      6  C   LIG    1       23.480 -14.846   4.247  0.00  0.00    +0.005 A 
ENDROOT
BRANCH   1   8
ATOM      7  C   LIG    1       24.852 -12.585   2.669  0.00  0.00    +0.024 C 
ATOM      8  C   LIG    1       25.575 -13.560   3.605  0.00  0.00    +0.124 C 
BRANCH   8   9
ATOM      9  C   LIG    1       27.025 -13.759   3.151  0.00  0.00    +0.312 C 
ATOM     10  O   LIG    1       27.987 -13.719   3.902  0.00  0.00    -0.250 OA
BRANCH   9  11
ATOM     11  O   LIG    1       27.176 -14.061   1.839  0.00  0.00    -0.480 OA
ATOM     12  H   LIG    1       27.525 -14.956   1.663  0.00  0.00    +0.295 HD
ENDBRANCH   9  11
ENDBRANCH   8   9
ENDBRANCH   1   8
BRANCH   4  13
ATOM     13  C   LIG    1       22.607 -18.544   4.374  0.00  0.00    +0.200 C 
ATOM     14  O   LIG    1       21.438 -18.563   3.985  0.00  0.00    -0.286 OA
BRANCH  13  15
ATOM     15  C   LIG    1       23.239 -19.663   5.075  0.00  0.00    +0.059 A 
ATOM     16  S   LIG    1       24.509 -20.507   4.274  0.00  0.00    -0.093 S 
ATOM     17  C   LIG    1       24.743 -21.571   5.588  0.00  0.00    +0.046 A 
ATOM     18  C   LIG    1       23.893 -21.291   6.632  0.00  0.00    +0.008 A 
ATOM     19  C   LIG    1       23.030 -20.188   6.341  0.00  0.00    +0.019 A 
ENDBRANCH  13  15
ENDBRANCH   4  13
TORSDOF 5
ENDMDL
MODEL 5
REMARK VINA RESULT:      -5.2      0.831      1.683
REMARK  Name = *****
REMARK                            x       y       z     vdW  Elec       q    Type
REMARK                         _______ _______ _______ _____ _____    ______ ____
ROOT
ATOM      1  C   LIG    1       25.230 -15.264   3.654  0.00  0.00    -0.034 A 
ATOM      2  C   LIG    1       23.971 -15.727   4.069  0.00  0.00    +0.005 A 
ATOM      3  C   LIG    1       23.685 -17.097   4.107  0.00  0.00    +0.012 A 
ATOM      4  C   LIG    1       24.667 -18.036   3.779  0.00  0.00    +0.023 A 
ATOM      5  C   LIG    1       25.929 -17.577   3.365  0.00  0.00    +0.012 A 
ATOM      6  C   LIG    1       26.208 -16.205   3.305  0.00  0.00    +0.005 A 
ENDROOT
BRANCH   1   8
ATOM      7  C   LIG    1       25.225 -13.281   2.107  0.00  0.00    +0.024 C 
ATOM      8  C   LIG    1       25.515 -13.771   3.530  0.00  0.00    +0.124 C 
BRANCH   8   9
ATOM      9  C   LIG    1       26.933 -13.374   3.953  0.00  0.00    +0.312 C 
ATOM     10  O   LIG    1       27.321 -13.354   5.111  0.00  0.00    -0.250 OA
BRANCH   9  11
ATOM     11  O   LIG    1       27.779 -13.102   2.929  0.00  0.00    -0.480 OA
ATOM     12  H   LIG    1       27.601 -12.264   2.462  0.00  0.00    +0.295 HD
ENDBRANCH   9  11
ENDBRANCH   8   9
ENDBRANCH   1   8
BRANCH   4  13
ATOM     13  C   LIG    1       24.380 -19.506   3.765  0.00  0.00    +0.200 C 
ATOM     14  O   LIG    1       24.280 -20.022   2.650  0.00  0.00    -0.286 OA
BRANCH  13  15
ATOM     15  C   LIG    1       24.217 -20.254   5.013  0.00  0.00    +0.059 A 
ATOM     16  S   LIG    1       22.652 -20.869   5.390  0.00  0.00    -0.093 S 
ATOM     17  C   LIG    1       23.188 -21.572   6.850  0.00  0.00    +0.046 A 
ATOM     18  C   LIG    1       24.533 -21.369   7.053  0.00  0.00    +0.008 A 
ATOM     19  C   LIG    1       25.129 -20.615   5.993  0.00  0.00    +0.019 A 
ENDBRANCH  13  15
ENDBRANCH   4  13
TORSDOF 5
ENDMDL
MODEL 6
REMARK VINA RESULT:      -5.1      2.611      6.662
REMARK  Name = *****
REMARK                            x       y       z     vdW  Elec       q    Type
REMARK                         _______ _______ _______ _____ _____    ______ ____
ROOT
ATOM      1  C   LIG    1       23.724 -18.635   4.133  0.00  0.00    -0.034 A 
ATOM      2  C   LIG    1       22.760 -17.674   4.475  0.00  0.00    +0.005 A 
ATOM      3  C   LIG    1       23.022 -16.307   4.325  0.00  0.00    +0.012 A 
ATOM      4  C   LIG    1       24.235 -15.873   3.783  0.00  0.00    +0.023 A 
ATOM      5  C   LIG    1       25.203 -16.832   3.439  0.00  0.00    +0.012 A 
ATOM      6  C   LIG    1       24.949 -18.200   3.610  0.00  0.00    +0.005 A 
ENDROOT
BRANCH   1   8
ATOM      7  C   LIG    1       22.032 -20.355   4.845  0.00  0.00    +0.024 C 
ATOM      8  C   LIG    1       23.472 -20.119   4.376  0.00  0.00    +0.124 C 
BRANCH   8   9
ATOM      9  C   LIG    1       24.462 -20.765   5.351  0.00  0.00    +0.312 C 
ATOM     10  O   LIG    1       24.322 -20.771   6.564  0.00  0.00    -0.250 OA
BRANCH   9  11
ATOM     11  O   LIG    1       25.501 -21.410   4.766  0.00  0.00    -0.480 OA
ATOM     12  H   LIG    1       26.200 -20.825   4.416  0.00  0.00    +0.295 HD
ENDBRANCH   9  11
ENDBRANCH   8   9
ENDBRANCH   1   8
BRANCH   4  13
ATOM     13  C   LIG    1       24.567 -14.417   3.652  0.00  0.00    +0.200 C 
ATOM     14  O   LIG    1       23.608 -13.662   3.486  0.00  0.00    -0.286 OA
BRANCH  13  15
ATOM     15  C   LIG    1       25.954 -13.954   3.704  0.00  0.00    +0.059 A 
ATOM     16  S   LIG    1       26.609 -13.528   5.240  0.00  0.00    -0.093 S 
ATOM     17  C   LIG    1       28.131 -13.132   4.575  0.00  0.00    +0.046 A 
ATOM     18  C   LIG    1       28.163 -13.333   3.215  0.00  0.00    +0.008 A 
ATOM     19  C   LIG    1       26.912 -13.811   2.712  0.00  0.00    +0.019 A 
ENDBRANCH  13  15
ENDBRANCH   4  13
TORSDOF 5
ENDMDL
MODEL 7
REMARK VINA RESULT:      -5.1      2.734      6.767
REMARK  Name = *****
REMARK                            x       y       z     vdW  Elec       q    Type
REMARK                         _______ _______ _______ _____ _____    ______ ____
ROOT
ATOM      1  C   LIG    1       24.066 -18.942   4.072  0.00  0.00    -0.034 A 
ATOM      2  C   LIG    1       23.331 -17.763   4.273  0.00  0.00    +0.005 A 
ATOM      3  C   LIG    1       23.899 -16.509   4.019  0.00  0.00    +0.012 A 
ATOM      4  C   LIG    1       25.196 -16.408   3.510  0.00  0.00    +0.023 A 
ATOM      5  C   LIG    1       25.935 -17.586   3.306  0.00  0.00    +0.012 A 
ATOM      6  C   LIG    1       25.375 -18.840   3.582  0.00  0.00    +0.005 A 
ENDROOT
BRANCH   1   8
ATOM      7  C   LIG    1       21.996 -20.175   4.797  0.00  0.00    +0.024 C 
ATOM      8  C   LIG    1       23.479 -20.303   4.430  0.00  0.00    +0.124 C 
BRANCH   8   9
ATOM      9  C   LIG    1       24.241 -21.035   5.539  0.00  0.00    +0.312 C 
ATOM     10  O   LIG    1       23.813 -21.195   6.672  0.00  0.00    -0.250 OA
BRANCH   9  11
ATOM     11  O   LIG    1       25.427 -21.572   5.159  0.00  0.00    -0.480 OA
ATOM     12  H   LIG    1       26.046 -21.754   5.892  0.00  0.00    +0.295 HD
ENDBRANCH   9  11
ENDBRANCH   8   9
ENDBRANCH   1   8
BRANCH   4  13
ATOM     13  C   LIG    1       25.851 -15.081   3.271  0.00  0.00    +0.200 C 
ATOM     14  O   LIG    1       27.038 -15.120   2.944  0.00  0.00    -0.286 OA
BRANCH  13  15
ATOM     15  C   LIG    1       25.105 -13.833   3.440  0.00  0.00    +0.059 A 
ATOM     16  S   LIG    1       24.719 -12.922   2.030  0.00  0.00    -0.093 S 
ATOM     17  C   LIG    1       23.908 -11.717   2.928  0.00  0.00    +0.046 A 
ATOM     18  C   LIG    1       23.905 -11.997   4.274  0.00  0.00    +0.008 A 
ATOM     19  C   LIG    1       24.589 -13.218   4.571  0.00  0.00    +0.019 A 
ENDBRANCH  13  15
ENDBRANCH   4  13
TORSDOF 5
ENDMDL
MODEL 8
REMARK VINA RESULT:      -4.3      2.841      6.621
REMARK  Name = *****
REMARK                            x       y       z     vdW  Elec       q    Type
REMARK                         _______ _______ _______ _____ _____    ______ ____
ROOT
ATOM      1  C   LIG    1       25.661 -18.818   3.940  0.00  0.00    -0.034 A 
ATOM      2  C   LIG    1       24.622 -17.937   3.604  0.00  0.00    +0.005 A 
ATOM      3  C   LIG    1       24.878 -16.582   3.361  0.00  0.00    +0.012 A 
ATOM      4  C   LIG    1       26.186 -16.090   3.399  0.00  0.00    +0.023 A 
ATOM      5  C   LIG    1       27.229 -16.970   3.733  0.00  0.00    +0.012 A 
ATOM      6  C   LIG    1       26.970 -18.321   4.000  0.00  0.00    +0.005 A 
ENDROOT
BRANCH   1   8
ATOM      7  C   LIG    1       24.097 -20.757   3.589  0.00  0.00    +0.024 C 
ATOM      8  C   LIG    1       25.372 -20.275   4.289  0.00  0.00    +0.124 C 
BRANCH   8   9
ATOM      9  C   LIG    1       25.290 -20.547   5.795  0.00  0.00    +0.312 C 
ATOM     10  O   LIG    1       26.248 -20.497   6.551  0.00  0.00    -0.250 OA
BRANCH   9  11
ATOM     11  O   LIG    1       24.041 -20.785   6.265  0.00  0.00    -0.480 OA
ATOM     12  H   LIG    1       23.933 -20.648   7.226  0.00  0.00    +0.295 HD
ENDBRANCH   9  11
ENDBRANCH   8   9
ENDBRANCH   1   8
BRANCH   4  13
ATOM     13  C   LIG    1       26.490 -14.638   3.189  0.00  0.00    +0.200 C 
ATOM     14  O   LIG    1       27.621 -14.381   2.773  0.00  0.00    -0.286 OA
BRANCH  13  15
ATOM     15  C   LIG    1       25.492 -13.609   3.487  0.00  0.00    +0.059 A 
ATOM     16  S   LIG    1       24.786 -12.758   2.165  0.00  0.00    -0.093 S 
ATOM     17  C   LIG    1       23.797 -11.817   3.190  0.00  0.00    +0.046 A 
ATOM     18  C   LIG    1       23.973 -12.145   4.514  0.00  0.00    +0.008 A 
ATOM     19  C   LIG    1       24.945 -13.181   4.687  0.00  0.00    +0.019 A 
ENDBRANCH  13  15
ENDBRANCH   4  13
TORSDOF 5
ENDMDL
MODEL 9
REMARK VINA RESULT:      -4.1      2.713      6.688
REMARK  Name = *****
REMARK                            x       y       z     vdW  Elec       q    Type
REMARK                         _______ _______ _______ _____ _____    ______ ____
ROOT
ATOM      1  C   LIG    1       24.184 -19.066   4.010  0.00  0.00    -0.034 A 
ATOM      2  C   LIG    1       25.415 -18.525   3.608  0.00  0.00    +0.005 A 
ATOM      3  C   LIG    1       25.595 -17.140   3.508  0.00  0.00    +0.012 A 
ATOM      4  C   LIG    1       24.563 -16.265   3.855  0.00  0.00    +0.023 A 
ATOM      5  C   LIG    1       23.329 -16.802   4.259  0.00  0.00    +0.012 A 
ATOM      6  C   LIG    1       23.141 -18.188   4.337  0.00  0.00    +0.005 A 
ENDROOT
BRANCH   1   8
ATOM      7  C   LIG    1       23.419 -21.066   2.690  0.00  0.00    +0.024 C 
ATOM      8  C   LIG    1       23.960 -20.574   4.037  0.00  0.00    +0.124 C 
BRANCH   8   9
ATOM      9  C   LIG    1       23.056 -21.047   5.180  0.00  0.00    +0.312 C 
ATOM     10  O   LIG    1       23.370 -21.011   6.359  0.00  0.00    -0.250 OA
BRANCH   9  11
ATOM     11  O   LIG    1       21.821 -21.455   4.799  0.00  0.00    -0.480 OA
ATOM     12  H   LIG    1       21.341 -20.827   4.226  0.00  0.00    +0.295 HD
ENDBRANCH   9  11
ENDBRANCH   8   9
ENDBRANCH   1   8
BRANCH   4  13
ATOM     13  C   LIG    1       24.706 -14.780   3.715  0.00  0.00    +0.200 C 
ATOM     14  O   LIG    1       23.696 -14.176   3.350  0.00  0.00    -0.286 OA
BRANCH  13  15
ATOM     15  C   LIG    1       25.984 -14.118   3.985  0.00  0.00    +0.059 A 
ATOM     16  S   LIG    1       27.089 -13.927   2.677  0.00  0.00    -0.093 S 
ATOM     17  C   LIG    1       28.241 -13.134   3.657  0.00  0.00    +0.046 A 
ATOM     18  C   LIG    1       27.800 -12.991   4.952  0.00  0.00    +0.008 A 
ATOM     19  C   LIG    1       26.498 -13.552   5.142  0.00  0.00    +0.019 A 
ENDBRANCH  13  15
ENDBRANCH   4  13
TORSDOF 5
ENDMDL
