MODEL 1
REMARK VINA RESULT:      -8.6      0.000      0.000
REMARK  Name = *****
REMARK                            x       y       z     vdW  Elec       q    Type
REMARK                         _______ _______ _______ _____ _____    ______ ____
ROOT
ATOM      1  C   LIG    1       24.577 -21.209   5.405  0.00  0.00    +0.065 C 
ATOM      2  C   LIG    1       25.683 -22.094   5.998  0.00  0.00    +0.096 C 
ATOM      3  C   LIG    1       26.197 -21.511   7.317  0.00  0.00    +0.065 C 
ATOM      4  C   LIG    1       25.371 -20.743   8.070  0.00  0.00    +0.016 C 
ATOM      5  C   LIG    1       25.745 -20.108   9.387  0.00  0.00    +0.061 C 
ATOM      6  N   LIG    1       24.088 -20.469   7.603  0.00  0.00    -0.321 N 
ATOM      7  H   LIG    1       23.550 -19.805   8.157  0.00  0.00    +0.152 HD
ATOM      8  C   LIG    1       23.793 -20.488   6.223  0.00  0.00    +0.016 C 
ATOM      9  C   LIG    1       22.609 -19.652   5.818  0.00  0.00    +0.061 C 
ENDROOT
BRANCH   2  10
ATOM     10  C   LIG    1       25.191 -23.558   6.105  0.00  0.00    -0.029 A 
ATOM     11  C   LIG    1       26.031 -24.632   5.741  0.00  0.00    +0.088 A 
ATOM     12  C   LIG    1       25.551 -25.955   5.751  0.00  0.00    +0.273 A 
ATOM     13  C   LIG    1       24.235 -26.233   6.130  0.00  0.00    +0.084 A 
ATOM     14  C   LIG    1       23.402 -25.184   6.506  0.00  0.00    +0.007 A 
ATOM     15  C   LIG    1       23.872 -23.866   6.488  0.00  0.00    +0.005 A 
BRANCH  12  16
ATOM     16  N   LIG    1       26.436 -27.063   5.359  0.00  0.00    +0.080 N 
ATOM     17  O   LIG    1       25.918 -28.172   5.161  0.00  0.00    -0.576 OA
ATOM     18  O   LIG    1       27.647 -26.824   5.246  0.00  0.00    +0.041 OA
ENDBRANCH  12  16
ENDBRANCH   2  10
BRANCH   1  19
ATOM     19  C   LIG    1       24.509 -21.059   3.915  0.00  0.00    +0.337 C 
ATOM     20  O   LIG    1       23.662 -21.558   3.185  0.00  0.00    -0.245 OA
BRANCH  19  22
ATOM     21  C   LIG    1       25.193 -18.811   3.491  0.00  0.00    +0.280 C 
ATOM     22  O   LIG    1       25.472 -20.204   3.508  0.00  0.00    -0.465 OA
ENDBRANCH  19  22
ENDBRANCH   1  19
BRANCH   3  23
ATOM     23  C   LIG    1       27.631 -21.692   7.659  0.00  0.00    +0.338 C 
ATOM     24  O   LIG    1       28.041 -22.040   8.762  0.00  0.00    -0.245 OA
BRANCH  23  25
ATOM     25  O   LIG    1       28.423 -21.363   6.609  0.00  0.00    -0.460 OA
BRANCH  25  26
ATOM     26  C   LIG    1       28.696 -19.957   6.439  0.00  0.00    +0.247 C 
BRANCH  26  27
ATOM     27  C   LIG    1       30.191 -19.613   6.627  0.00  0.00    +0.125 C 
BRANCH  27  28
ATOM     28  N   LIG    1       30.615 -19.392   8.032  0.00  0.00    -0.298 NA
ATOM     29  C   LIG    1       31.191 -20.641   8.556  0.00  0.00    +0.105 C 
BRANCH  28  30
ATOM     30  C   LIG    1       31.609 -18.300   8.094  0.00  0.00    +0.119 C 
BRANCH  30  31
ATOM     31  C   LIG    1       31.633 -17.483   9.369  0.00  0.00    -0.033 A 
ATOM     32  C   LIG    1       32.784 -16.813   9.808  0.00  0.00    +0.005 A 
ATOM     33  C   LIG    1       32.801 -16.165  11.043  0.00  0.00    +0.000 A 
ATOM     34  C   LIG    1       31.673 -16.193  11.859  0.00  0.00    +0.000 A 
ATOM     35  C   LIG    1       30.516 -16.838  11.427  0.00  0.00    +0.000 A 
ATOM     36  C   LIG    1       30.496 -17.482  10.191  0.00  0.00    +0.005 A 
ENDBRANCH  30  31
ENDBRANCH  28  30
ENDBRANCH  27  28
ENDBRANCH  26  27
ENDBRANCH  25  26
ENDBRANCH  23  25
ENDBRANCH   3  23
TORSDOF 11
ENDMDL
MODEL 2
REMARK VINA RESULT:      -7.8      6.673     10.778
REMARK  Name = *****
REMARK                            x       y       z     vdW  Elec       q    Type
REMARK                         _______ _______ _______ _____ _____    ______ ____
ROOT
ATOM      1  C   LIG    1       26.263 -30.396  13.392  0.00  0.00    +0.065 C 
ATOM      2  C   LIG    1       26.003 -29.362  12.286  0.00  0.00    +0.096 C 
ATOM      3  C   LIG    1       25.639 -30.054  10.970  0.00  0.00    +0.065 C 
ATOM      4  C   LIG    1       25.053 -31.277  11.003  0.00  0.00    +0.016 C 
ATOM      5  C   LIG    1       24.643 -32.071   9.787  0.00  0.00    +0.061 C 
ATOM      6  N   LIG    1       24.834 -31.891  12.234  0.00  0.00    -0.321 N 
ATOM      7  H   LIG    1       24.489 -32.848  12.194  0.00  0.00    +0.152 HD
ATOM      8  C   LIG    1       25.631 -31.580  13.357  0.00  0.00    +0.016 C 
ATOM      9  C   LIG    1       25.696 -32.658  14.405  0.00  0.00    +0.061 C 
ENDROOT
BRANCH   2  10
ATOM     10  C   LIG    1       24.956 -28.326  12.763  0.00  0.00    -0.029 A 
ATOM     11  C   LIG    1       23.575 -28.572  12.610  0.00  0.00    +0.088 A 
ATOM     12  C   LIG    1       22.627 -27.591  12.959  0.00  0.00    +0.273 A 
ATOM     13  C   LIG    1       23.035 -26.357  13.471  0.00  0.00    +0.084 A 
ATOM     14  C   LIG    1       24.394 -26.108  13.641  0.00  0.00    +0.007 A 
ATOM     15  C   LIG    1       25.339 -27.078  13.287  0.00  0.00    +0.005 A 
BRANCH  12  16
ATOM     16  N   LIG    1       21.191 -27.858  12.784  0.00  0.00    +0.080 N 
ATOM     17  O   LIG    1       20.840 -29.035  12.612  0.00  0.00    -0.576 OA
ATOM     18  O   LIG    1       20.415 -26.893  12.821  0.00  0.00    +0.041 OA
ENDBRANCH  12  16
ENDBRANCH   2  10
BRANCH   1  19
ATOM     19  C   LIG    1       27.337 -30.106  14.396  0.00  0.00    +0.337 C 
ATOM     20  O   LIG    1       27.167 -29.602  15.499  0.00  0.00    -0.245 OA
BRANCH  19  22
ATOM     21  C   LIG    1       29.563 -29.660  13.655  0.00  0.00    +0.280 C 
ATOM     22  O   LIG    1       28.517 -30.579  13.937  0.00  0.00    -0.465 OA
ENDBRANCH  19  22
ENDBRANCH   1  19
BRANCH   3  23
ATOM     23  C   LIG    1       26.069 -29.424   9.696  0.00  0.00    +0.338 C 
ATOM     24  O   LIG    1       27.210 -29.037   9.465  0.00  0.00    -0.245 OA
BRANCH  23  25
ATOM     25  O   LIG    1       25.018 -29.280   8.851  0.00  0.00    -0.460 OA
BRANCH  25  26
ATOM     26  C   LIG    1       25.342 -29.200   7.448  0.00  0.00    +0.247 C 
BRANCH  26  27
ATOM     27  C   LIG    1       24.455 -28.188   6.688  0.00  0.00    +0.125 C 
BRANCH  27  28
ATOM     28  N   LIG    1       25.150 -26.956   6.236  0.00  0.00    -0.298 NA
ATOM     29  C   LIG    1       26.018 -27.292   5.095  0.00  0.00    +0.105 C 
BRANCH  28  30
ATOM     30  C   LIG    1       24.159 -25.931   5.845  0.00  0.00    +0.119 C 
BRANCH  30  31
ATOM     31  C   LIG    1       24.275 -24.586   6.532  0.00  0.00    -0.033 A 
ATOM     32  C   LIG    1       23.182 -23.719   6.669  0.00  0.00    +0.005 A 
ATOM     33  C   LIG    1       23.352 -22.442   7.204  0.00  0.00    +0.000 A 
ATOM     34  C   LIG    1       24.618 -22.013   7.593  0.00  0.00    +0.000 A 
ATOM     35  C   LIG    1       25.710 -22.871   7.480  0.00  0.00    +0.000 A 
ATOM     36  C   LIG    1       25.541 -24.150   6.951  0.00  0.00    +0.005 A 
ENDBRANCH  30  31
ENDBRANCH  28  30
ENDBRANCH  27  28
ENDBRANCH  26  27
ENDBRANCH  25  26
ENDBRANCH  23  25
ENDBRANCH   3  23
TORSDOF 11
ENDMDL
MODEL 3
REMARK VINA RESULT:      -7.7      5.632     10.118
REMARK  Name = *****
REMARK                            x       y       z     vdW  Elec       q    Type
REMARK                         _______ _______ _______ _____ _____    ______ ____
ROOT
ATOM      1  C   LIG    1       26.028 -31.525   9.165  0.00  0.00    +0.065 C 
ATOM      2  C   LIG    1       24.874 -30.677   8.610  0.00  0.00    +0.096 C 
ATOM      3  C   LIG    1       24.979 -30.545   7.088  0.00  0.00    +0.065 C 
ATOM      4  C   LIG    1       25.598 -31.521   6.378  0.00  0.00    +0.016 C 
ATOM      5  C   LIG    1       25.772 -31.520   4.879  0.00  0.00    +0.061 C 
ATOM      6  N   LIG    1       26.157 -32.601   7.057  0.00  0.00    -0.321 N 
ATOM      7  H   LIG    1       26.698 -33.248   6.485  0.00  0.00    +0.152 HD
ATOM      8  C   LIG    1       26.577 -32.482   8.399  0.00  0.00    +0.016 C 
ATOM      9  C   LIG    1       27.639 -33.461   8.819  0.00  0.00    +0.061 C 
ENDROOT
BRANCH   2  10
ATOM     10  C   LIG    1       23.517 -31.240   9.100  0.00  0.00    -0.029 A 
ATOM     11  C   LIG    1       22.735 -30.529  10.034  0.00  0.00    +0.088 A 
ATOM     12  C   LIG    1       21.549 -31.084  10.550  0.00  0.00    +0.273 A 
ATOM     13  C   LIG    1       21.117 -32.348  10.139  0.00  0.00    +0.084 A 
ATOM     14  C   LIG    1       21.872 -33.053   9.207  0.00  0.00    +0.007 A 
ATOM     15  C   LIG    1       23.057 -32.508   8.700  0.00  0.00    +0.005 A 
BRANCH  12  16
ATOM     16  N   LIG    1       20.749 -30.334  11.531  0.00  0.00    +0.080 N 
ATOM     17  O   LIG    1       19.620 -30.768  11.807  0.00  0.00    -0.576 OA
ATOM     18  O   LIG    1       21.249 -29.314  12.026  0.00  0.00    +0.041 OA
ENDBRANCH  12  16
ENDBRANCH   2  10
BRANCH   1  19
ATOM     19  C   LIG    1       26.608 -31.151  10.495  0.00  0.00    +0.337 C 
ATOM     20  O   LIG    1       26.240 -31.580  11.581  0.00  0.00    -0.245 OA
BRANCH  19  22
ATOM     21  C   LIG    1       27.933 -29.316  11.256  0.00  0.00    +0.280 C 
ATOM     22  O   LIG    1       27.671 -30.339  10.305  0.00  0.00    -0.465 OA
ENDBRANCH  19  22
ENDBRANCH   1  19
BRANCH   3  23
ATOM     23  C   LIG    1       24.524 -29.281   6.454  0.00  0.00    +0.338 C 
ATOM     24  O   LIG    1       23.519 -29.179   5.758  0.00  0.00    -0.245 OA
BRANCH  23  25
ATOM     25  O   LIG    1       25.400 -28.276   6.699  0.00  0.00    -0.460 OA
BRANCH  25  26
ATOM     26  C   LIG    1       25.725 -27.432   5.575  0.00  0.00    +0.247 C 
BRANCH  26  27
ATOM     27  C   LIG    1       26.258 -26.046   6.004  0.00  0.00    +0.125 C 
BRANCH  27  28
ATOM     28  N   LIG    1       25.337 -24.911   5.749  0.00  0.00    -0.298 NA
ATOM     29  C   LIG    1       23.966 -25.325   6.093  0.00  0.00    +0.105 C 
BRANCH  28  30
ATOM     30  C   LIG    1       25.740 -23.742   6.558  0.00  0.00    +0.119 C 
BRANCH  30  31
ATOM     31  C   LIG    1       24.896 -22.493   6.406  0.00  0.00    -0.033 A 
ATOM     32  C   LIG    1       24.257 -21.884   7.496  0.00  0.00    +0.005 A 
ATOM     33  C   LIG    1       23.396 -20.804   7.300  0.00  0.00    +0.000 A 
ATOM     34  C   LIG    1       23.152 -20.332   6.013  0.00  0.00    +0.000 A 
ATOM     35  C   LIG    1       23.795 -20.916   4.923  0.00  0.00    +0.000 A 
ATOM     36  C   LIG    1       24.660 -21.992   5.117  0.00  0.00    +0.005 A 
ENDBRANCH  30  31
ENDBRANCH  28  30
ENDBRANCH  27  28
ENDBRANCH  26  27
ENDBRANCH  25  26
ENDBRANCH  23  25
ENDBRANCH   3  23
TORSDOF 11
ENDMDL
MODEL 4
REMARK VINA RESULT:      -7.6      5.300      9.466
REMARK  Name = *****
REMARK                            x       y       z     vdW  Elec       q    Type
REMARK                         _______ _______ _______ _____ _____    ______ ____
ROOT
ATOM      1  C   LIG    1       25.421 -31.499   7.429  0.00  0.00    +0.065 C 
ATOM      2  C   LIG    1       25.426 -30.148   8.158  0.00  0.00    +0.096 C 
ATOM      3  C   LIG    1       25.147 -29.002   7.181  0.00  0.00    +0.065 C 
ATOM      4  C   LIG    1       24.418 -29.246   6.063  0.00  0.00    +0.016 C 
ATOM      5  C   LIG    1       24.069 -28.214   5.019  0.00  0.00    +0.061 C 
ATOM      6  N   LIG    1       23.977 -30.542   5.812  0.00  0.00    -0.321 N 
ATOM      7  H   LIG    1       23.526 -30.686   4.910  0.00  0.00    +0.152 HD
ATOM      8  C   LIG    1       24.660 -31.662   6.335  0.00  0.00    +0.016 C 
ATOM      9  C   LIG    1       24.464 -32.939   5.565  0.00  0.00    +0.061 C 
ENDROOT
BRANCH   2  10
ATOM     10  C   LIG    1       24.460 -30.193   9.368  0.00  0.00    -0.029 A 
ATOM     11  C   LIG    1       23.193 -30.804   9.258  0.00  0.00    +0.088 A 
ATOM     12  C   LIG    1       22.280 -30.762  10.328  0.00  0.00    +0.273 A 
ATOM     13  C   LIG    1       22.613 -30.122  11.525  0.00  0.00    +0.084 A 
ATOM     14  C   LIG    1       23.866 -29.530  11.651  0.00  0.00    +0.007 A 
ATOM     15  C   LIG    1       24.773 -29.560  10.585  0.00  0.00    +0.005 A 
BRANCH  12  16
ATOM     16  N   LIG    1       20.958 -31.395  10.195  0.00  0.00    +0.080 N 
ATOM     17  O   LIG    1       20.918 -32.629  10.082  0.00  0.00    -0.576 OA
ATOM     18  O   LIG    1       19.961 -30.659  10.206  0.00  0.00    +0.041 OA
ENDBRANCH  12  16
ENDBRANCH   2  10
BRANCH   1  19
ATOM     19  C   LIG    1       26.389 -32.552   7.878  0.00  0.00    +0.337 C 
ATOM     20  O   LIG    1       26.159 -33.433   8.696  0.00  0.00    -0.245 OA
BRANCH  19  22
ATOM     21  C   LIG    1       27.982 -33.556   6.410  0.00  0.00    +0.280 C 
ATOM     22  O   LIG    1       27.531 -32.440   7.164  0.00  0.00    -0.465 OA
ENDBRANCH  19  22
ENDBRANCH   1  19
BRANCH   3  23
ATOM     23  C   LIG    1       25.804 -27.692   7.420  0.00  0.00    +0.338 C 
ATOM     24  O   LIG    1       26.745 -27.520   8.188  0.00  0.00    -0.245 OA
BRANCH  23  25
ATOM     25  O   LIG    1       25.185 -26.708   6.723  0.00  0.00    -0.460 OA
BRANCH  25  26
ATOM     26  C   LIG    1       26.022 -25.615   6.292  0.00  0.00    +0.247 C 
BRANCH  26  27
ATOM     27  C   LIG    1       25.704 -24.293   7.027  0.00  0.00    +0.125 C 
BRANCH  27  28
ATOM     28  N   LIG    1       24.727 -23.411   6.342  0.00  0.00    -0.298 NA
ATOM     29  C   LIG    1       23.365 -23.858   6.680  0.00  0.00    +0.105 C 
BRANCH  28  30
ATOM     30  C   LIG    1       24.929 -22.009   6.765  0.00  0.00    +0.119 C 
BRANCH  30  31
ATOM     31  C   LIG    1       24.356 -20.942   5.855  0.00  0.00    -0.033 A 
ATOM     32  C   LIG    1       23.087 -20.383   6.064  0.00  0.00    +0.005 A 
ATOM     33  C   LIG    1       22.546 -19.488   5.142  0.00  0.00    +0.000 A 
ATOM     34  C   LIG    1       23.260 -19.153   3.994  0.00  0.00    +0.000 A 
ATOM     35  C   LIG    1       24.531 -19.686   3.783  0.00  0.00    +0.000 A 
ATOM     36  C   LIG    1       25.075 -20.577   4.707  0.00  0.00    +0.005 A 
ENDBRANCH  30  31
ENDBRANCH  28  30
ENDBRANCH  27  28
ENDBRANCH  26  27
ENDBRANCH  25  26
ENDBRANCH  23  25
ENDBRANCH   3  23
TORSDOF 11
ENDMDL
MODEL 5
REMARK VINA RESULT:      -7.6      5.608      9.339
REMARK  Name = *****
REMARK                            x       y       z     vdW  Elec       q    Type
REMARK                         _______ _______ _______ _____ _____    ______ ____
ROOT
ATOM      1  C   LIG    1       24.113 -30.344   9.066  0.00  0.00    +0.065 C 
ATOM      2  C   LIG    1       24.131 -30.152   7.543  0.00  0.00    +0.096 C 
ATOM      3  C   LIG    1       24.840 -28.848   7.168  0.00  0.00    +0.065 C 
ATOM      4  C   LIG    1       25.792 -28.348   7.996  0.00  0.00    +0.016 C 
ATOM      5  C   LIG    1       26.568 -27.078   7.751  0.00  0.00    +0.061 C 
ATOM      6  N   LIG    1       26.070 -29.013   9.187  0.00  0.00    -0.321 N 
ATOM      7  H   LIG    1       26.716 -28.539   9.816  0.00  0.00    +0.152 HD
ATOM      8  C   LIG    1       25.102 -29.827   9.814  0.00  0.00    +0.016 C 
ATOM      9  C   LIG    1       25.288 -30.006  11.295  0.00  0.00    +0.061 C 
ENDROOT
BRANCH   2  10
ATOM     10  C   LIG    1       24.719 -31.409   6.856  0.00  0.00    -0.029 A 
ATOM     11  C   LIG    1       26.002 -31.886   7.198  0.00  0.00    +0.088 A 
ATOM     12  C   LIG    1       26.573 -32.971   6.508  0.00  0.00    +0.273 A 
ATOM     13  C   LIG    1       25.876 -33.605   5.475  0.00  0.00    +0.084 A 
ATOM     14  C   LIG    1       24.604 -33.153   5.139  0.00  0.00    +0.007 A 
ATOM     15  C   LIG    1       24.037 -32.067   5.816  0.00  0.00    +0.005 A 
BRANCH  12  16
ATOM     16  N   LIG    1       27.916 -33.451   6.869  0.00  0.00    +0.080 N 
ATOM     17  O   LIG    1       28.778 -33.476   5.978  0.00  0.00    -0.576 OA
ATOM     18  O   LIG    1       28.109 -33.800   8.043  0.00  0.00    +0.041 OA
ENDBRANCH  12  16
ENDBRANCH   2  10
BRANCH   1  19
ATOM     19  C   LIG    1       22.904 -30.975   9.688  0.00  0.00    +0.337 C 
ATOM     20  O   LIG    1       21.872 -30.392   9.994  0.00  0.00    -0.245 OA
BRANCH  19  22
ATOM     21  C   LIG    1       23.084 -32.929  11.048  0.00  0.00    +0.280 C 
ATOM     22  O   LIG    1       23.089 -32.311   9.769  0.00  0.00    -0.465 OA
ENDBRANCH  19  22
ENDBRANCH   1  19
BRANCH   3  23
ATOM     23  C   LIG    1       24.363 -28.099   5.978  0.00  0.00    +0.338 C 
ATOM     24  O   LIG    1       24.382 -28.536   4.832  0.00  0.00    -0.245 OA
BRANCH  23  25
ATOM     25  O   LIG    1       23.962 -26.851   6.323  0.00  0.00    -0.460 OA
BRANCH  25  26
ATOM     26  C   LIG    1       24.323 -25.795   5.409  0.00  0.00    +0.247 C 
BRANCH  26  27
ATOM     27  C   LIG    1       24.738 -24.494   6.135  0.00  0.00    +0.125 C 
BRANCH  27  28
ATOM     28  N   LIG    1       23.819 -23.346   5.943  0.00  0.00    -0.298 NA
ATOM     29  C   LIG    1       22.634 -23.538   6.795  0.00  0.00    +0.105 C 
BRANCH  28  30
ATOM     30  C   LIG    1       24.506 -22.084   6.293  0.00  0.00    +0.119 C 
BRANCH  30  31
ATOM     31  C   LIG    1       24.093 -20.853   5.512  0.00  0.00    -0.033 A 
ATOM     32  C   LIG    1       22.870 -20.203   5.731  0.00  0.00    +0.005 A 
ATOM     33  C   LIG    1       22.475 -19.143   4.916  0.00  0.00    +0.000 A 
ATOM     34  C   LIG    1       23.290 -18.731   3.865  0.00  0.00    +0.000 A 
ATOM     35  C   LIG    1       24.516 -19.355   3.648  0.00  0.00    +0.000 A 
ATOM     36  C   LIG    1       24.915 -20.412   4.465  0.00  0.00    +0.005 A 
ENDBRANCH  30  31
ENDBRANCH  28  30
ENDBRANCH  27  28
ENDBRANCH  26  27
ENDBRANCH  25  26
ENDBRANCH  23  25
ENDBRANCH   3  23
TORSDOF 11
ENDMDL
MODEL 6
REMARK VINA RESULT:      -7.5      5.077      9.019
REMARK  Name = *****
REMARK                            x       y       z     vdW  Elec       q    Type
REMARK                         _______ _______ _______ _____ _____    ______ ____
ROOT
ATOM      1  C   LIG    1       25.439 -30.907   6.798  0.00  0.00    +0.065 C 
ATOM      2  C   LIG    1       25.901 -29.546   7.340  0.00  0.00    +0.096 C 
ATOM      3  C   LIG    1       25.403 -28.408   6.446  0.00  0.00    +0.065 C 
ATOM      4  C   LIG    1       24.267 -28.578   5.724  0.00  0.00    +0.016 C 
ATOM      5  C   LIG    1       23.664 -27.544   4.806  0.00  0.00    +0.061 C 
ATOM      6  N   LIG    1       23.604 -29.801   5.785  0.00  0.00    -0.321 N 
ATOM      7  H   LIG    1       22.818 -29.908   5.145  0.00  0.00    +0.152 HD
ATOM      8  C   LIG    1       24.292 -30.992   6.104  0.00  0.00    +0.016 C 
ATOM      9  C   LIG    1       23.650 -32.251   5.591  0.00  0.00    +0.061 C 
ENDROOT
BRANCH   2  10
ATOM     10  C   LIG    1       25.496 -29.402   8.828  0.00  0.00    -0.029 A 
ATOM     11  C   LIG    1       26.346 -28.754   9.748  0.00  0.00    +0.088 A 
ATOM     12  C   LIG    1       26.020 -28.705  11.117  0.00  0.00    +0.273 A 
ATOM     13  C   LIG    1       24.843 -29.290  11.590  0.00  0.00    +0.084 A 
ATOM     14  C   LIG    1       23.988 -29.918  10.689  0.00  0.00    +0.007 A 
ATOM     15  C   LIG    1       24.314 -29.977   9.329  0.00  0.00    +0.005 A 
BRANCH  12  16
ATOM     16  N   LIG    1       26.922 -28.035  12.066  0.00  0.00    +0.080 N 
ATOM     17  O   LIG    1       27.691 -28.746  12.731  0.00  0.00    -0.576 OA
ATOM     18  O   LIG    1       26.864 -26.800  12.146  0.00  0.00    +0.041 OA
ENDBRANCH  12  16
ENDBRANCH   2  10
BRANCH   1  19
ATOM     19  C   LIG    1       26.366 -32.077   6.932  0.00  0.00    +0.337 C 
ATOM     20  O   LIG    1       27.268 -32.366   6.157  0.00  0.00    -0.245 OA
BRANCH  19  22
ATOM     21  C   LIG    1       27.208 -33.254   8.831  0.00  0.00    +0.280 C 
ATOM     22  O   LIG    1       26.118 -32.711   8.099  0.00  0.00    -0.465 OA
ENDBRANCH  19  22
ENDBRANCH   1  19
BRANCH   3  23
ATOM     23  C   LIG    1       26.259 -27.204   6.290  0.00  0.00    +0.338 C 
ATOM     24  O   LIG    1       27.149 -27.092   5.453  0.00  0.00    -0.245 OA
BRANCH  23  25
ATOM     25  O   LIG    1       25.963 -26.276   7.233  0.00  0.00    -0.460 OA
BRANCH  25  26
ATOM     26  C   LIG    1       25.938 -24.905   6.786  0.00  0.00    +0.247 C 
BRANCH  26  27
ATOM     27  C   LIG    1       24.502 -24.354   6.630  0.00  0.00    +0.125 C 
BRANCH  27  28
ATOM     28  N   LIG    1       24.387 -22.875   6.679  0.00  0.00    -0.298 NA
ATOM     29  C   LIG    1       25.256 -22.366   7.753  0.00  0.00    +0.105 C 
BRANCH  28  30
ATOM     30  C   LIG    1       24.781 -22.295   5.378  0.00  0.00    +0.119 C 
BRANCH  30  31
ATOM     31  C   LIG    1       24.148 -20.968   5.013  0.00  0.00    -0.033 A 
ATOM     32  C   LIG    1       22.962 -20.514   5.611  0.00  0.00    +0.005 A 
ATOM     33  C   LIG    1       22.348 -19.343   5.169  0.00  0.00    +0.000 A 
ATOM     34  C   LIG    1       22.903 -18.621   4.115  0.00  0.00    +0.000 A 
ATOM     35  C   LIG    1       24.090 -19.049   3.524  0.00  0.00    +0.000 A 
ATOM     36  C   LIG    1       24.708 -20.217   3.969  0.00  0.00    +0.005 A 
ENDBRANCH  30  31
ENDBRANCH  28  30
ENDBRANCH  27  28
ENDBRANCH  26  27
ENDBRANCH  25  26
ENDBRANCH  23  25
ENDBRANCH   3  23
TORSDOF 11
ENDMDL
MODEL 7
REMARK VINA RESULT:      -7.5      5.508      9.560
REMARK  Name = *****
REMARK                            x       y       z     vdW  Elec       q    Type
REMARK                         _______ _______ _______ _____ _____    ______ ____
ROOT
ATOM      1  C   LIG    1       24.571 -31.580   8.868  0.00  0.00    +0.065 C 
ATOM      2  C   LIG    1       24.922 -30.806   7.589  0.00  0.00    +0.096 C 
ATOM      3  C   LIG    1       25.431 -29.402   7.927  0.00  0.00    +0.065 C 
ATOM      4  C   LIG    1       26.035 -29.184   9.122  0.00  0.00    +0.016 C 
ATOM      5  C   LIG    1       26.582 -27.856   9.583  0.00  0.00    +0.061 C 
ATOM      6  N   LIG    1       26.139 -30.235  10.029  0.00  0.00    -0.321 N 
ATOM      7  H   LIG    1       26.506 -29.990  10.947  0.00  0.00    +0.152 HD
ATOM      8  C   LIG    1       25.227 -31.312  10.009  0.00  0.00    +0.016 C 
ATOM      9  C   LIG    1       25.077 -32.040  11.316  0.00  0.00    +0.061 C 
ENDROOT
BRANCH   2  10
ATOM     10  C   LIG    1       25.895 -31.635   6.716  0.00  0.00    -0.029 A 
ATOM     11  C   LIG    1       25.648 -31.824   5.339  0.00  0.00    +0.088 A 
ATOM     12  C   LIG    1       26.482 -32.655   4.567  0.00  0.00    +0.273 A 
ATOM     13  C   LIG    1       27.576 -33.302   5.146  0.00  0.00    +0.084 A 
ATOM     14  C   LIG    1       27.839 -33.111   6.499  0.00  0.00    +0.007 A 
ATOM     15  C   LIG    1       27.007 -32.294   7.272  0.00  0.00    +0.005 A 
BRANCH  12  16
ATOM     16  N   LIG    1       26.206 -32.850   3.135  0.00  0.00    +0.080 N 
ATOM     17  O   LIG    1       27.155 -32.744   2.345  0.00  0.00    -0.576 OA
ATOM     18  O   LIG    1       25.041 -33.112   2.801  0.00  0.00    +0.041 OA
ENDBRANCH  12  16
ENDBRANCH   2  10
BRANCH   1  19
ATOM     19  C   LIG    1       23.395 -32.509   8.835  0.00  0.00    +0.337 C 
ATOM     20  O   LIG    1       23.442 -33.714   8.622  0.00  0.00    -0.245 OA
BRANCH  19  22
ATOM     21  C   LIG    1       21.320 -32.458  10.015  0.00  0.00    +0.280 C 
ATOM     22  O   LIG    1       22.280 -31.828   9.177  0.00  0.00    -0.465 OA
ENDBRANCH  19  22
ENDBRANCH   1  19
BRANCH   3  23
ATOM     23  C   LIG    1       25.121 -28.292   6.990  0.00  0.00    +0.338 C 
ATOM     24  O   LIG    1       24.069 -28.186   6.366  0.00  0.00    -0.245 OA
BRANCH  23  25
ATOM     25  O   LIG    1       26.176 -27.449   6.875  0.00  0.00    -0.460 OA
BRANCH  25  26
ATOM     26  C   LIG    1       25.995 -26.327   5.986  0.00  0.00    +0.247 C 
BRANCH  26  27
ATOM     27  C   LIG    1       25.886 -24.981   6.739  0.00  0.00    +0.125 C 
BRANCH  27  28
ATOM     28  N   LIG    1       24.866 -24.044   6.207  0.00  0.00    -0.298 NA
ATOM     29  C   LIG    1       23.528 -24.540   6.571  0.00  0.00    +0.105 C 
BRANCH  28  30
ATOM     30  C   LIG    1       25.082 -22.692   6.765  0.00  0.00    +0.119 C 
BRANCH  30  31
ATOM     31  C   LIG    1       24.443 -21.543   6.014  0.00  0.00    -0.033 A 
ATOM     32  C   LIG    1       23.321 -20.859   6.506  0.00  0.00    +0.005 A 
ATOM     33  C   LIG    1       22.691 -19.883   5.734  0.00  0.00    +0.000 A 
ATOM     34  C   LIG    1       23.165 -19.591   4.458  0.00  0.00    +0.000 A 
ATOM     35  C   LIG    1       24.291 -20.249   3.964  0.00  0.00    +0.000 A 
ATOM     36  C   LIG    1       24.924 -21.221   4.737  0.00  0.00    +0.005 A 
ENDBRANCH  30  31
ENDBRANCH  28  30
ENDBRANCH  27  28
ENDBRANCH  26  27
ENDBRANCH  25  26
ENDBRANCH  23  25
ENDBRANCH   3  23
TORSDOF 11
ENDMDL
MODEL 8
REMARK VINA RESULT:      -7.4      6.350     10.364
REMARK  Name = *****
REMARK                            x       y       z     vdW  Elec       q    Type
REMARK                         _______ _______ _______ _____ _____    ______ ____
ROOT
ATOM      1  C   LIG    1       23.701 -30.178  11.855  0.00  0.00    +0.065 C 
ATOM      2  C   LIG    1       23.229 -30.219  10.394  0.00  0.00    +0.096 C 
ATOM      3  C   LIG    1       24.407 -30.478   9.450  0.00  0.00    +0.065 C 
ATOM      4  C   LIG    1       25.486 -31.162   9.907  0.00  0.00    +0.016 C 
ATOM      5  C   LIG    1       26.711 -31.487   9.089  0.00  0.00    +0.061 C 
ATOM      6  N   LIG    1       25.513 -31.576  11.236  0.00  0.00    -0.321 N 
ATOM      7  H   LIG    1       26.388 -31.991  11.551  0.00  0.00    +0.152 HD
ATOM      8  C   LIG    1       24.773 -30.896  12.229  0.00  0.00    +0.016 C 
ATOM      9  C   LIG    1       25.304 -31.046  13.628  0.00  0.00    +0.061 C 
ENDROOT
BRANCH   2  10
ATOM     10  C   LIG    1       22.065 -31.228  10.240  0.00  0.00    -0.029 A 
ATOM     11  C   LIG    1       20.725 -30.815  10.397  0.00  0.00    +0.088 A 
ATOM     12  C   LIG    1       19.674 -31.749  10.349  0.00  0.00    +0.273 A 
ATOM     13  C   LIG    1       19.936 -33.105  10.136  0.00  0.00    +0.084 A 
ATOM     14  C   LIG    1       21.252 -33.523   9.963  0.00  0.00    +0.007 A 
ATOM     15  C   LIG    1       22.301 -32.598  10.021  0.00  0.00    +0.005 A 
BRANCH  12  16
ATOM     16  N   LIG    1       18.283 -31.305  10.525  0.00  0.00    +0.080 N 
ATOM     17  O   LIG    1       17.811 -31.328  11.672  0.00  0.00    -0.576 OA
ATOM     18  O   LIG    1       17.664 -30.931   9.519  0.00  0.00    +0.041 OA
ENDBRANCH  12  16
ENDBRANCH   2  10
BRANCH   1  19
ATOM     19  C   LIG    1       23.037 -29.212  12.789  0.00  0.00    +0.337 C 
ATOM     20  O   LIG    1       22.117 -29.475  13.554  0.00  0.00    -0.245 OA
BRANCH  19  22
ATOM     21  C   LIG    1       23.054 -26.879  13.297  0.00  0.00    +0.280 C 
ATOM     22  O   LIG    1       23.677 -28.024  12.731  0.00  0.00    -0.465 OA
ENDBRANCH  19  22
ENDBRANCH   1  19
BRANCH   3  23
ATOM     23  C   LIG    1       24.388 -29.849   8.106  0.00  0.00    +0.338 C 
ATOM     24  O   LIG    1       23.682 -30.225   7.175  0.00  0.00    -0.245 OA
BRANCH  23  25
ATOM     25  O   LIG    1       25.297 -28.845   8.030  0.00  0.00    -0.460 OA
BRANCH  25  26
ATOM     26  C   LIG    1       25.258 -28.047   6.829  0.00  0.00    +0.247 C 
BRANCH  26  27
ATOM     27  C   LIG    1       25.963 -26.681   6.998  0.00  0.00    +0.125 C 
BRANCH  27  28
ATOM     28  N   LIG    1       25.595 -25.654   5.992  0.00  0.00    -0.298 NA
ATOM     29  C   LIG    1       25.494 -26.297   4.671  0.00  0.00    +0.105 C 
BRANCH  28  30
ATOM     30  C   LIG    1       24.307 -25.027   6.359  0.00  0.00    +0.119 C 
BRANCH  30  31
ATOM     31  C   LIG    1       24.367 -23.583   6.813  0.00  0.00    -0.033 A 
ATOM     32  C   LIG    1       23.220 -22.782   6.914  0.00  0.00    +0.005 A 
ATOM     33  C   LIG    1       23.327 -21.427   7.225  0.00  0.00    +0.000 A 
ATOM     34  C   LIG    1       24.581 -20.854   7.423  0.00  0.00    +0.000 A 
ATOM     35  C   LIG    1       25.727 -21.642   7.344  0.00  0.00    +0.000 A 
ATOM     36  C   LIG    1       25.622 -22.998   7.039  0.00  0.00    +0.005 A 
ENDBRANCH  30  31
ENDBRANCH  28  30
ENDBRANCH  27  28
ENDBRANCH  26  27
ENDBRANCH  25  26
ENDBRANCH  23  25
ENDBRANCH   3  23
TORSDOF 11
ENDMDL
MODEL 9
REMARK VINA RESULT:      -7.4      6.555     10.568
REMARK  Name = *****
REMARK                            x       y       z     vdW  Elec       q    Type
REMARK                         _______ _______ _______ _____ _____    ______ ____
ROOT
ATOM      1  C   LIG    1       24.935 -29.075  12.653  0.00  0.00    +0.065 C 
ATOM      2  C   LIG    1       23.925 -29.247  11.509  0.00  0.00    +0.096 C 
ATOM      3  C   LIG    1       24.419 -30.288  10.500  0.00  0.00    +0.065 C 
ATOM      4  C   LIG    1       25.250 -31.275  10.918  0.00  0.00    +0.016 C 
ATOM      5  C   LIG    1       25.810 -32.363  10.035  0.00  0.00    +0.061 C 
ATOM      6  N   LIG    1       25.667 -31.292  12.247  0.00  0.00    -0.321 N 
ATOM      7  H   LIG    1       26.370 -31.992  12.479  0.00  0.00    +0.152 HD
ATOM      8  C   LIG    1       25.713 -30.108  13.014  0.00  0.00    +0.016 C 
ATOM      9  C   LIG    1       26.677 -30.140  14.169  0.00  0.00    +0.061 C 
ENDROOT
BRANCH   2  10
ATOM     10  C   LIG    1       22.518 -29.544  12.083  0.00  0.00    -0.029 A 
ATOM     11  C   LIG    1       21.729 -28.510  12.631  0.00  0.00    +0.088 A 
ATOM     12  C   LIG    1       20.490 -28.796  13.236  0.00  0.00    +0.273 A 
ATOM     13  C   LIG    1       20.014 -30.108  13.298  0.00  0.00    +0.084 A 
ATOM     14  C   LIG    1       20.776 -31.134  12.748  0.00  0.00    +0.007 A 
ATOM     15  C   LIG    1       22.013 -30.855  12.154  0.00  0.00    +0.005 A 
BRANCH  12  16
ATOM     16  N   LIG    1       19.683 -27.709  13.811  0.00  0.00    +0.080 N 
ATOM     17  O   LIG    1       18.889 -27.999  14.719  0.00  0.00    -0.576 OA
ATOM     18  O   LIG    1       19.843 -26.567  13.358  0.00  0.00    +0.041 OA
ENDBRANCH  12  16
ENDBRANCH   2  10
BRANCH   1  19
ATOM     19  C   LIG    1       25.127 -27.705  13.231  0.00  0.00    +0.337 C 
ATOM     20  O   LIG    1       24.606 -27.282  14.254  0.00  0.00    -0.245 OA
BRANCH  19  22
ATOM     21  C   LIG    1       26.966 -26.183  13.167  0.00  0.00    +0.280 C 
ATOM     22  O   LIG    1       26.048 -27.038  12.500  0.00  0.00    -0.465 OA
ENDBRANCH  19  22
ENDBRANCH   1  19
BRANCH   3  23
ATOM     23  C   LIG    1       24.082 -30.100   9.067  0.00  0.00    +0.338 C 
ATOM     24  O   LIG    1       23.135 -30.638   8.501  0.00  0.00    -0.245 OA
BRANCH  23  25
ATOM     25  O   LIG    1       24.995 -29.303   8.457  0.00  0.00    -0.460 OA
BRANCH  25  26
ATOM     26  C   LIG    1       25.031 -29.370   7.017  0.00  0.00    +0.247 C 
BRANCH  26  27
ATOM     27  C   LIG    1       24.260 -28.210   6.347  0.00  0.00    +0.125 C 
BRANCH  27  28
ATOM     28  N   LIG    1       25.050 -26.973   6.126  0.00  0.00    -0.298 NA
ATOM     29  C   LIG    1       26.049 -27.230   5.075  0.00  0.00    +0.105 C 
BRANCH  28  30
ATOM     30  C   LIG    1       24.156 -25.866   5.727  0.00  0.00    +0.119 C 
BRANCH  30  31
ATOM     31  C   LIG    1       24.328 -24.559   6.474  0.00  0.00    -0.033 A 
ATOM     32  C   LIG    1       23.265 -23.666   6.673  0.00  0.00    +0.005 A 
ATOM     33  C   LIG    1       23.486 -22.422   7.264  0.00  0.00    +0.000 A 
ATOM     34  C   LIG    1       24.772 -22.052   7.648  0.00  0.00    +0.000 A 
ATOM     35  C   LIG    1       25.834 -22.938   7.475  0.00  0.00    +0.000 A 
ATOM     36  C   LIG    1       25.614 -24.183   6.888  0.00  0.00    +0.005 A 
ENDBRANCH  30  31
ENDBRANCH  28  30
ENDBRANCH  27  28
ENDBRANCH  26  27
ENDBRANCH  25  26
ENDBRANCH  23  25
ENDBRANCH   3  23
TORSDOF 11
ENDMDL
