MODEL 1
REMARK VINA RESULT:      14.9      0.000      0.000
REMARK  Name = *****
REMARK                            x       y       z     vdW  Elec       q    Type
REMARK                         _______ _______ _______ _____ _____    ______ ____
ROOT
ATOM      1  C   LIG    1       23.958 -18.303   3.677  0.00  0.00    +0.237 C 
ATOM      2  N   LIG    1       23.494 -17.281   4.492  0.00  0.00    -0.288 N 
ATOM      3  C   LIG    1       23.011 -16.016   3.912  0.00  0.00    +0.166 C 
ATOM      4  C   LIG    1       22.557 -15.200   5.120  0.00  0.00    +0.029 C 
ATOM      5  C   LIG    1       21.338 -15.467   5.999  0.00  0.00    -0.025 C 
ATOM      6  C   LIG    1       20.890 -14.392   6.963  0.00  0.00    +0.011 C 
ATOM      7  C   LIG    1       20.205 -16.308   5.477  0.00  0.00    +0.011 C 
ATOM      8  C   LIG    1       22.683 -16.085   6.322  0.00  0.00    +0.018 C 
ATOM      9  C   LIG    1       23.105 -17.440   5.879  0.00  0.00    +0.113 C 
ATOM     10  O   LIG    1       24.217 -18.099   2.485  0.00  0.00    -0.274 OA
ENDROOT
BRANCH   3  11
ATOM     11  C   LIG    1       24.125 -15.237   3.184  0.00  0.00    +0.234 C 
ATOM     12  N   LIG    1       25.372 -15.283   3.798  0.00  0.00    -0.304 N 
ATOM     13  H   LIG    1       25.489 -15.923   4.577  0.00  0.00    +0.149 HD
ATOM     14  O   LIG    1       23.920 -14.725   2.087  0.00  0.00    -0.274 OA
BRANCH  12  15
ATOM     15  C   LIG    1       26.598 -14.747   3.179  0.00  0.00    +0.149 C 
BRANCH  15  16
ATOM     16  C   LIG    1       27.798 -14.673   4.142  0.00  0.00    +0.237 C 
ATOM     17  O   LIG    1       28.583 -15.547   4.466  0.00  0.00    -0.285 OA
BRANCH  16  18
ATOM     18  C   LIG    1       28.131 -13.292   4.665  0.00  0.00    +0.279 C 
ATOM     19  O   LIG    1       28.504 -12.421   3.939  0.00  0.00    -0.267 OA
ATOM     20  N   LIG    1       27.924 -13.180   6.021  0.00  0.00    -0.323 N 
ATOM     21  H   LIG    1       27.919 -12.256   6.422  0.00  0.00    +0.145 HD
ATOM     22  H   LIG    1       27.436 -13.923   6.503  0.00  0.00    +0.145 HD
ENDBRANCH  16  18
ENDBRANCH  15  16
BRANCH  15  23
ATOM     23  C   LIG    1       26.375 -13.488   2.324  0.00  0.00    +0.034 C 
BRANCH  23  24
ATOM     24  C   LIG    1       25.669 -12.373   3.076  0.00  0.00    -0.009 C 
ATOM     25  C   LIG    1       24.277 -11.924   2.556  0.00  0.00    +0.004 C 
ATOM     26  C   LIG    1       23.895 -11.690   4.030  0.00  0.00    +0.000 C 
ATOM     27  C   LIG    1       24.950 -12.758   4.394  0.00  0.00    +0.004 C 
ENDBRANCH  23  24
ENDBRANCH  15  23
ENDBRANCH  12  15
ENDBRANCH   3  11
BRANCH   1  28
ATOM     28  C   LIG    1       24.010 -19.752   4.272  0.00  0.00    +0.166 C 
BRANCH  28  32
ATOM     29  N   LIG    1       27.199 -19.747   6.210  0.00  0.00    -0.295 N 
ATOM     30  H   LIG    1       26.693 -19.636   7.070  0.00  0.00    +0.151 HD
ATOM     31  C   LIG    1       26.435 -19.760   5.051  0.00  0.00    +0.301 C 
ATOM     32  N   LIG    1       25.072 -19.770   5.326  0.00  0.00    -0.288 N 
ATOM     33  H   LIG    1       24.771 -19.577   6.265  0.00  0.00    +0.151 HD
ATOM     34  O   LIG    1       26.906 -19.807   3.929  0.00  0.00    -0.253 OA
BRANCH  29  36
ATOM     35  C   LIG    1       29.296 -19.880   4.888  0.00  0.00    +0.031 C 
ATOM     36  C   LIG    1       28.689 -19.844   6.314  0.00  0.00    +0.028 C 
ATOM     37  C   LIG    1       29.295 -18.631   7.040  0.00  0.00    +0.031 C 
ATOM     38  C   LIG    1       29.164 -21.107   7.056  0.00  0.00    +0.031 C 
ENDBRANCH  29  36
ENDBRANCH  28  32
BRANCH  28  39
ATOM     39  C   LIG    1       22.608 -20.280   4.789  0.00  0.00    -0.011 C 
ATOM     40  C   LIG    1       22.194 -21.562   4.023  0.00  0.00    +0.013 C 
ATOM     41  C   LIG    1       21.457 -19.262   4.660  0.00  0.00    +0.013 C 
ATOM     42  C   LIG    1       22.711 -20.677   6.282  0.00  0.00    +0.013 C 
ENDBRANCH  28  39
ENDBRANCH   1  28
TORSDOF 10
ENDMDL
MODEL 2
REMARK VINA RESULT:      17.2      1.898      4.805
REMARK  Name = *****
REMARK                            x       y       z     vdW  Elec       q    Type
REMARK                         _______ _______ _______ _____ _____    ______ ____
ROOT
ATOM      1  C   LIG    1       25.972 -17.740   3.689  0.00  0.00    +0.237 C 
ATOM      2  N   LIG    1       24.949 -18.438   4.316  0.00  0.00    -0.288 N 
ATOM      3  C   LIG    1       23.566 -18.356   3.814  0.00  0.00    +0.166 C 
ATOM      4  C   LIG    1       22.780 -19.287   4.735  0.00  0.00    +0.029 C 
ATOM      5  C   LIG    1       22.860 -20.810   4.782  0.00  0.00    -0.025 C 
ATOM      6  C   LIG    1       21.802 -21.569   5.550  0.00  0.00    +0.011 C 
ATOM      7  C   LIG    1       23.399 -21.572   3.600  0.00  0.00    +0.011 C 
ATOM      8  C   LIG    1       23.771 -19.954   5.638  0.00  0.00    +0.018 C 
ATOM      9  C   LIG    1       25.142 -19.539   5.238  0.00  0.00    +0.113 C 
ATOM     10  O   LIG    1       25.726 -16.848   2.870  0.00  0.00    -0.274 OA
ENDROOT
BRANCH   3  11
ATOM     11  C   LIG    1       22.978 -16.937   3.933  0.00  0.00    +0.234 C 
ATOM     12  N   LIG    1       23.907 -15.936   4.199  0.00  0.00    -0.304 N 
ATOM     13  H   LIG    1       24.890 -16.184   4.154  0.00  0.00    +0.149 HD
ATOM     14  O   LIG    1       21.793 -16.725   3.689  0.00  0.00    -0.274 OA
BRANCH  12  15
ATOM     15  C   LIG    1       23.574 -14.500   4.184  0.00  0.00    +0.149 C 
BRANCH  15  16
ATOM     16  C   LIG    1       23.252 -13.952   2.780  0.00  0.00    +0.237 C 
ATOM     17  O   LIG    1       22.315 -14.214   2.047  0.00  0.00    -0.285 OA
BRANCH  16  18
ATOM     18  C   LIG    1       24.153 -12.838   2.292  0.00  0.00    +0.279 C 
ATOM     19  O   LIG    1       23.812 -11.694   2.336  0.00  0.00    -0.267 OA
ATOM     20  N   LIG    1       25.367 -13.303   1.842  0.00  0.00    -0.323 N 
ATOM     21  H   LIG    1       26.102 -12.632   1.692  0.00  0.00    +0.145 HD
ATOM     22  H   LIG    1       25.615 -14.268   2.019  0.00  0.00    +0.145 HD
ENDBRANCH  16  18
ENDBRANCH  15  16
BRANCH  15  23
ATOM     23  C   LIG    1       24.523 -13.623   5.019  0.00  0.00    +0.034 C 
BRANCH  23  24
ATOM     24  C   LIG    1       23.792 -12.672   5.951  0.00  0.00    -0.009 C 
ATOM     25  C   LIG    1       23.081 -11.447   5.315  0.00  0.00    +0.004 C 
ATOM     26  C   LIG    1       22.000 -11.618   6.400  0.00  0.00    +0.000 C 
ATOM     27  C   LIG    1       22.391 -13.111   6.446  0.00  0.00    +0.004 C 
ENDBRANCH  23  24
ENDBRANCH  15  23
ENDBRANCH  12  15
ENDBRANCH   3  11
BRANCH   1  28
ATOM     28  C   LIG    1       27.446 -18.211   3.945  0.00  0.00    +0.166 C 
BRANCH  28  32
ATOM     29  N   LIG    1       28.707 -14.768   4.641  0.00  0.00    -0.295 N 
ATOM     30  H   LIG    1       29.573 -15.140   4.987  0.00  0.00    +0.151 HD
ATOM     31  C   LIG    1       27.754 -15.702   4.255  0.00  0.00    +0.301 C 
ATOM     32  N   LIG    1       28.256 -16.999   4.280  0.00  0.00    -0.288 N 
ATOM     33  H   LIG    1       29.137 -17.163   4.735  0.00  0.00    +0.151 HD
ATOM     34  O   LIG    1       26.629 -15.411   3.891  0.00  0.00    -0.253 OA
BRANCH  29  36
ATOM     35  C   LIG    1       29.465 -12.694   3.508  0.00  0.00    +0.031 C 
ATOM     36  C   LIG    1       28.571 -13.278   4.631  0.00  0.00    +0.028 C 
ATOM     37  C   LIG    1       27.126 -12.834   4.346  0.00  0.00    +0.031 C 
ATOM     38  C   LIG    1       28.998 -12.622   5.957  0.00  0.00    +0.031 C 
ENDBRANCH  29  36
ENDBRANCH  28  32
BRANCH  28  39
ATOM     39  C   LIG    1       27.570 -19.364   5.025  0.00  0.00    -0.011 C 
ATOM     40  C   LIG    1       26.691 -20.576   4.630  0.00  0.00    +0.013 C 
ATOM     41  C   LIG    1       27.174 -18.941   6.454  0.00  0.00    +0.013 C 
ATOM     42  C   LIG    1       29.028 -19.880   5.081  0.00  0.00    +0.013 C 
ENDBRANCH  28  39
ENDBRANCH   1  28
TORSDOF 10
ENDMDL
MODEL 3
REMARK VINA RESULT:      17.6      2.197      6.682
REMARK  Name = *****
REMARK                            x       y       z     vdW  Elec       q    Type
REMARK                         _______ _______ _______ _____ _____    ______ ____
ROOT
ATOM      1  C   LIG    1       26.120 -18.129   4.401  0.00  0.00    +0.237 C 
ATOM      2  N   LIG    1       25.373 -17.057   3.934  0.00  0.00    -0.288 N 
ATOM      3  C   LIG    1       24.066 -16.733   4.533  0.00  0.00    +0.166 C 
ATOM      4  C   LIG    1       23.608 -15.487   3.778  0.00  0.00    +0.029 C 
ATOM      5  C   LIG    1       24.202 -14.085   3.881  0.00  0.00    -0.025 C 
ATOM      6  C   LIG    1       23.437 -12.928   3.282  0.00  0.00    +0.011 C 
ATOM      7  C   LIG    1       25.016 -13.700   5.088  0.00  0.00    +0.011 C 
ATOM      8  C   LIG    1       24.731 -15.083   2.872  0.00  0.00    +0.018 C 
ATOM      9  C   LIG    1       25.892 -15.979   3.116  0.00  0.00    +0.113 C 
ATOM     10  O   LIG    1       25.617 -18.981   5.142  0.00  0.00    -0.274 OA
ENDROOT
BRANCH   3  11
ATOM     11  C   LIG    1       23.025 -17.848   4.317  0.00  0.00    +0.234 C 
ATOM     12  N   LIG    1       23.410 -18.849   3.431  0.00  0.00    -0.304 N 
ATOM     13  H   LIG    1       24.373 -18.849   3.113  0.00  0.00    +0.149 HD
ATOM     14  O   LIG    1       21.992 -17.881   4.981  0.00  0.00    -0.274 OA
BRANCH  12  15
ATOM     15  C   LIG    1       22.631 -20.083   3.217  0.00  0.00    +0.149 C 
BRANCH  15  16
ATOM     16  C   LIG    1       21.168 -19.983   3.692  0.00  0.00    +0.237 C 
ATOM     17  O   LIG    1       20.574 -20.668   4.506  0.00  0.00    -0.285 OA
BRANCH  16  18
ATOM     18  C   LIG    1       20.394 -18.791   3.173  0.00  0.00    +0.279 C 
ATOM     19  O   LIG    1       20.622 -18.315   2.102  0.00  0.00    -0.267 OA
ATOM     20  N   LIG    1       19.420 -18.374   4.051  0.00  0.00    -0.323 N 
ATOM     21  H   LIG    1       18.725 -17.729   3.713  0.00  0.00    +0.145 HD
ATOM     22  H   LIG    1       19.196 -18.961   4.845  0.00  0.00    +0.145 HD
ENDBRANCH  16  18
ENDBRANCH  15  16
BRANCH  15  23
ATOM     23  C   LIG    1       23.361 -21.371   3.634  0.00  0.00    +0.034 C 
BRANCH  23  24
ATOM     24  C   LIG    1       23.406 -21.572   5.138  0.00  0.00    -0.009 C 
ATOM     25  C   LIG    1       24.659 -21.055   5.896  0.00  0.00    +0.004 C 
ATOM     26  C   LIG    1       23.710 -20.709   7.059  0.00  0.00    +0.000 C 
ATOM     27  C   LIG    1       22.589 -20.581   6.006  0.00  0.00    +0.004 C 
ENDBRANCH  23  24
ENDBRANCH  15  23
ENDBRANCH  12  15
ENDBRANCH   3  11
BRANCH   1  28
ATOM     28  C   LIG    1       27.655 -18.151   4.079  0.00  0.00    +0.166 C 
BRANCH  28  32
ATOM     29  N   LIG    1       28.334 -14.507   3.646  0.00  0.00    -0.295 N 
ATOM     30  H   LIG    1       28.812 -14.684   2.781  0.00  0.00    +0.151 HD
ATOM     31  C   LIG    1       27.872 -15.625   4.327  0.00  0.00    +0.301 C 
ATOM     32  N   LIG    1       28.032 -16.790   3.585  0.00  0.00    -0.288 N 
ATOM     33  H   LIG    1       28.610 -16.760   2.763  0.00  0.00    +0.151 HD
ATOM     34  O   LIG    1       27.345 -15.581   5.424  0.00  0.00    -0.253 OA
BRANCH  29  36
ATOM     35  C   LIG    1       26.994 -12.432   3.394  0.00  0.00    +0.031 C 
ATOM     36  C   LIG    1       28.229 -13.077   4.075  0.00  0.00    +0.028 C 
ATOM     37  C   LIG    1       28.035 -12.945   5.595  0.00  0.00    +0.031 C 
ATOM     38  C   LIG    1       29.463 -12.238   3.696  0.00  0.00    +0.031 C 
ENDBRANCH  29  36
ENDBRANCH  28  32
BRANCH  28  39
ATOM     39  C   LIG    1       28.553 -18.649   5.286  0.00  0.00    -0.011 C 
ATOM     40  C   LIG    1       29.470 -17.506   5.789  0.00  0.00    +0.013 C 
ATOM     41  C   LIG    1       29.449 -19.859   4.954  0.00  0.00    +0.013 C 
ATOM     42  C   LIG    1       27.656 -19.049   6.482  0.00  0.00    +0.013 C 
ENDBRANCH  28  39
ENDBRANCH   1  28
TORSDOF 10
ENDMDL
MODEL 4
REMARK VINA RESULT:      17.8      1.905      6.689
REMARK  Name = *****
REMARK                            x       y       z     vdW  Elec       q    Type
REMARK                         _______ _______ _______ _____ _____    ______ ____
ROOT
ATOM      1  C   LIG    1       25.015 -15.780   3.627  0.00  0.00    +0.237 C 
ATOM      2  N   LIG    1       26.074 -15.022   4.107  0.00  0.00    -0.288 N 
ATOM      3  C   LIG    1       27.464 -15.371   3.767  0.00  0.00    +0.166 C 
ATOM      4  C   LIG    1       28.298 -14.283   4.439  0.00  0.00    +0.029 C 
ATOM      5  C   LIG    1       28.382 -12.814   4.035  0.00  0.00    -0.025 C 
ATOM      6  C   LIG    1       29.475 -11.959   4.635  0.00  0.00    +0.011 C 
ATOM      7  C   LIG    1       27.993 -12.393   2.643  0.00  0.00    +0.011 C 
ATOM      8  C   LIG    1       27.339 -13.292   5.025  0.00  0.00    +0.018 C 
ATOM      9  C   LIG    1       25.954 -13.684   4.651  0.00  0.00    +0.113 C 
ATOM     10  O   LIG    1       25.206 -16.894   3.126  0.00  0.00    -0.274 OA
ENDROOT
BRANCH   3  11
ATOM     11  C   LIG    1       27.886 -16.738   4.341  0.00  0.00    +0.234 C 
ATOM     12  N   LIG    1       26.842 -17.629   4.567  0.00  0.00    -0.304 N 
ATOM     13  H   LIG    1       25.925 -17.376   4.214  0.00  0.00    +0.149 HD
ATOM     14  O   LIG    1       29.073 -17.028   4.466  0.00  0.00    -0.274 OA
BRANCH  12  15
ATOM     15  C   LIG    1       27.050 -19.037   4.952  0.00  0.00    +0.149 C 
BRANCH  15  16
ATOM     16  C   LIG    1       28.214 -19.244   5.939  0.00  0.00    +0.237 C 
ATOM     17  O   LIG    1       29.083 -18.462   6.283  0.00  0.00    -0.285 OA
BRANCH  16  18
ATOM     18  C   LIG    1       28.210 -20.561   6.686  0.00  0.00    +0.279 C 
ATOM     19  O   LIG    1       27.194 -21.064   7.060  0.00  0.00    -0.267 OA
ATOM     20  N   LIG    1       29.474 -21.083   6.839  0.00  0.00    -0.323 N 
ATOM     21  H   LIG    1       29.555 -22.041   7.135  0.00  0.00    +0.145 HD
ATOM     22  H   LIG    1       30.240 -20.664   6.326  0.00  0.00    +0.145 HD
ENDBRANCH  16  18
ENDBRANCH  15  16
BRANCH  15  23
ATOM     23  C   LIG    1       27.015 -20.025   3.774  0.00  0.00    +0.034 C 
BRANCH  23  24
ATOM     24  C   LIG    1       25.875 -21.024   3.866  0.00  0.00    -0.009 C 
ATOM     25  C   LIG    1       25.402 -21.447   5.283  0.00  0.00    +0.004 C 
ATOM     26  C   LIG    1       23.979 -21.516   4.696  0.00  0.00    +0.000 C 
ATOM     27  C   LIG    1       24.441 -20.476   3.653  0.00  0.00    +0.004 C 
ENDBRANCH  23  24
ENDBRANCH  15  23
ENDBRANCH  12  15
ENDBRANCH   3  11
BRANCH   1  28
ATOM     28  C   LIG    1       23.590 -15.126   3.612  0.00  0.00    +0.166 C 
BRANCH  28  32
ATOM     29  N   LIG    1       21.506 -18.221   3.621  0.00  0.00    -0.295 N 
ATOM     30  H   LIG    1       20.878 -17.817   2.948  0.00  0.00    +0.151 HD
ATOM     31  C   LIG    1       22.541 -17.404   4.054  0.00  0.00    +0.301 C 
ATOM     32  N   LIG    1       22.598 -16.212   3.341  0.00  0.00    -0.288 N 
ATOM     33  H   LIG    1       21.820 -15.967   2.753  0.00  0.00    +0.151 HD
ATOM     34  O   LIG    1       23.335 -17.720   4.922  0.00  0.00    -0.253 OA
BRANCH  29  36
ATOM     35  C   LIG    1       19.666 -19.806   4.134  0.00  0.00    +0.031 C 
ATOM     36  C   LIG    1       21.203 -19.616   4.070  0.00  0.00    +0.028 C 
ATOM     37  C   LIG    1       21.754 -20.668   3.092  0.00  0.00    +0.031 C 
ATOM     38  C   LIG    1       21.773 -19.942   5.462  0.00  0.00    +0.031 C 
ENDBRANCH  29  36
ENDBRANCH  28  32
BRANCH  28  39
ATOM     39  C   LIG    1       23.259 -14.287   4.915  0.00  0.00    -0.011 C 
ATOM     40  C   LIG    1       21.930 -14.768   5.548  0.00  0.00    +0.013 C 
ATOM     41  C   LIG    1       23.146 -12.767   4.682  0.00  0.00    +0.013 C 
ATOM     42  C   LIG    1       24.358 -14.513   5.982  0.00  0.00    +0.013 C 
ENDBRANCH  28  39
ENDBRANCH   1  28
TORSDOF 10
ENDMDL
