MODEL 1
REMARK VINA RESULT:      -5.9      0.000      0.000
REMARK  Name = *****
REMARK                            x       y       z     vdW  Elec       q    Type
REMARK                         _______ _______ _______ _____ _____    ______ ____
ROOT
ATOM      1  N   LIG    1       22.848 -19.037   5.358  0.00  0.00    -0.310 NA
ATOM      2  H   LIG    1       22.313 -18.799   6.200  0.00  0.00    +0.122 HD
ENDROOT
BRANCH   1   4
ATOM      3  C   LIG    1       21.123 -18.638   3.683  0.00  0.00    +0.024 C 
ATOM      4  C   LIG    1       22.443 -18.111   4.269  0.00  0.00    +0.055 C 
BRANCH   4   5
ATOM      5  C   LIG    1       22.305 -16.662   4.799  0.00  0.00    +0.053 C 
BRANCH   5   6
ATOM      6  C   LIG    1       23.402 -15.688   4.422  0.00  0.00    -0.042 A 
ATOM      7  C   LIG    1       24.577 -16.167   3.829  0.00  0.00    +0.053 A 
ATOM      8  C   LIG    1       25.547 -15.255   3.479  0.00  0.00    +0.167 A 
ATOM      9  O   LIG    1       26.741 -15.555   2.913  0.00  0.00    -0.453 OA
ATOM     10  C   LIG    1       27.311 -14.234   2.779  0.00  0.00    +0.466 C 
ATOM     11  O   LIG    1       26.450 -13.188   3.263  0.00  0.00    -0.453 OA
ATOM     12  C   LIG    1       25.370 -13.905   3.675  0.00  0.00    +0.166 A 
ATOM     13  C   LIG    1       24.218 -13.397   4.227  0.00  0.00    +0.050 A 
ATOM     14  C   LIG    1       23.219 -14.299   4.603  0.00  0.00    +0.007 A 
ENDBRANCH   5   6
ENDBRANCH   4   5
ENDBRANCH   1   4
BRANCH   1  15
ATOM     15  C   LIG    1       22.597 -20.459   5.031  0.00  0.00    +0.117 C 
BRANCH  15  16
ATOM     16  C   LIG    1       23.848 -21.179   4.456  0.00  0.00    +0.158 C 
BRANCH  16  17
ATOM     17  C   LIG    1       25.162 -20.895   5.155  0.00  0.00    -0.014 A 
ATOM     18  C   LIG    1       26.069 -19.955   4.643  0.00  0.00    +0.055 A 
ATOM     19  C   LIG    1       27.257 -19.702   5.308  0.00  0.00    +0.159 A 
ATOM     20  C   LIG    1       27.576 -20.374   6.481  0.00  0.00    +0.158 A 
ATOM     21  C   LIG    1       26.686 -21.288   7.028  0.00  0.00    +0.049 A 
ATOM     22  C   LIG    1       25.474 -21.530   6.374  0.00  0.00    +0.010 A 
BRANCH  19  23
ATOM     23  O   LIG    1       28.115 -18.774   4.790  0.00  0.00    -0.503 OA
ATOM     24  H   LIG    1       27.946 -18.802   3.828  0.00  0.00    +0.292 HD
ENDBRANCH  19  23
BRANCH  20  25
ATOM     25  O   LIG    1       28.782 -20.100   7.062  0.00  0.00    -0.503 OA
ATOM     26  H   LIG    1       28.928 -20.755   7.767  0.00  0.00    +0.292 HD
ENDBRANCH  20  25
ENDBRANCH  16  17
BRANCH  16  27
ATOM     27  O   LIG    1       23.951 -20.843   3.064  0.00  0.00    -0.386 OA
ATOM     28  H   LIG    1       23.120 -21.167   2.665  0.00  0.00    +0.210 HD
ENDBRANCH  16  27
ENDBRANCH  15  16
ENDBRANCH   1  15
TORSDOF 9
ENDMDL
MODEL 2
REMARK VINA RESULT:      -5.8      1.721      6.186
REMARK  Name = *****
REMARK                            x       y       z     vdW  Elec       q    Type
REMARK                         _______ _______ _______ _____ _____    ______ ____
ROOT
ATOM      1  N   LIG    1       22.352 -17.028   4.452  0.00  0.00    -0.310 NA
ATOM      2  H   LIG    1       22.172 -16.708   5.409  0.00  0.00    +0.122 HD
ENDROOT
BRANCH   1   4
ATOM      3  C   LIG    1       20.903 -18.832   3.685  0.00  0.00    +0.024 C 
ATOM      4  C   LIG    1       22.214 -18.508   4.420  0.00  0.00    +0.055 C 
BRANCH   4   5
ATOM      5  C   LIG    1       23.439 -19.164   3.736  0.00  0.00    +0.053 C 
BRANCH   5   6
ATOM      6  C   LIG    1       24.472 -19.797   4.645  0.00  0.00    -0.042 A 
ATOM      7  C   LIG    1       25.828 -19.500   4.461  0.00  0.00    +0.053 A 
ATOM      8  C   LIG    1       26.742 -20.075   5.316  0.00  0.00    +0.167 A 
ATOM      9  O   LIG    1       28.084 -19.903   5.264  0.00  0.00    -0.453 OA
ATOM     10  C   LIG    1       28.501 -20.723   6.378  0.00  0.00    +0.466 C 
ATOM     11  O   LIG    1       27.405 -21.358   7.062  0.00  0.00    -0.453 OA
ATOM     12  C   LIG    1       26.345 -20.898   6.345  0.00  0.00    +0.166 A 
ATOM     13  C   LIG    1       25.021 -21.188   6.573  0.00  0.00    +0.050 A 
ATOM     14  C   LIG    1       24.071 -20.628   5.715  0.00  0.00    +0.007 A 
ENDBRANCH   5   6
ENDBRANCH   4   5
ENDBRANCH   1   4
BRANCH   1  15
ATOM     15  C   LIG    1       23.699 -16.565   4.048  0.00  0.00    +0.117 C 
BRANCH  15  16
ATOM     16  C   LIG    1       23.820 -15.017   4.000  0.00  0.00    +0.158 C 
BRANCH  16  17
ATOM     17  C   LIG    1       25.221 -14.461   3.856  0.00  0.00    -0.014 A 
ATOM     18  C   LIG    1       25.888 -13.880   4.945  0.00  0.00    +0.055 A 
ATOM     19  C   LIG    1       27.175 -13.391   4.792  0.00  0.00    +0.159 A 
ATOM     20  C   LIG    1       27.823 -13.457   3.565  0.00  0.00    +0.158 A 
ATOM     21  C   LIG    1       27.200 -14.052   2.476  0.00  0.00    +0.049 A 
ATOM     22  C   LIG    1       25.910 -14.569   2.631  0.00  0.00    +0.010 A 
BRANCH  19  23
ATOM     23  O   LIG    1       27.802 -12.841   5.873  0.00  0.00    -0.503 OA
ATOM     24  H   LIG    1       28.461 -12.232   5.486  0.00  0.00    +0.292 HD
ENDBRANCH  19  23
BRANCH  20  25
ATOM     25  O   LIG    1       29.076 -12.921   3.479  0.00  0.00    -0.503 OA
ATOM     26  H   LIG    1       29.668 -13.605   3.120  0.00  0.00    +0.292 HD
ENDBRANCH  20  25
ENDBRANCH  16  17
BRANCH  16  27
ATOM     27  O   LIG    1       23.203 -14.489   5.184  0.00  0.00    -0.386 OA
ATOM     28  H   LIG    1       23.927 -14.048   5.670  0.00  0.00    +0.210 HD
ENDBRANCH  16  27
ENDBRANCH  15  16
ENDBRANCH   1  15
TORSDOF 9
ENDMDL
MODEL 3
REMARK VINA RESULT:      -5.1      1.573      6.390
REMARK  Name = *****
REMARK                            x       y       z     vdW  Elec       q    Type
REMARK                         _______ _______ _______ _____ _____    ______ ____
ROOT
ATOM      1  N   LIG    1       22.252 -18.601   4.301  0.00  0.00    -0.310 NA
ATOM      2  H   LIG    1       21.420 -18.250   4.787  0.00  0.00    +0.122 HD
ENDROOT
BRANCH   1   4
ATOM      3  C   LIG    1       21.381 -20.826   4.779  0.00  0.00    +0.024 C 
ATOM      4  C   LIG    1       22.616 -19.917   4.888  0.00  0.00    +0.055 C 
BRANCH   4   5
ATOM      5  C   LIG    1       23.847 -20.522   4.168  0.00  0.00    +0.053 C 
BRANCH   5   6
ATOM      6  C   LIG    1       25.134 -20.599   4.962  0.00  0.00    -0.042 A 
ATOM      7  C   LIG    1       26.178 -19.712   4.673  0.00  0.00    +0.053 A 
ATOM      8  C   LIG    1       27.328 -19.793   5.425  0.00  0.00    +0.167 A 
ATOM      9  O   LIG    1       28.430 -19.021   5.265  0.00  0.00    -0.453 OA
ATOM     10  C   LIG    1       29.278 -19.547   6.309  0.00  0.00    +0.466 C 
ATOM     11  O   LIG    1       28.666 -20.611   7.062  0.00  0.00    -0.453 OA
ATOM     12  C   LIG    1       27.452 -20.698   6.455  0.00  0.00    +0.166 A 
ATOM     13  C   LIG    1       26.437 -21.564   6.785  0.00  0.00    +0.050 A 
ATOM     14  C   LIG    1       25.261 -21.513   6.032  0.00  0.00    +0.007 A 
ENDBRANCH   5   6
ENDBRANCH   4   5
ENDBRANCH   1   4
BRANCH   1  15
ATOM     15  C   LIG    1       23.329 -17.593   4.428  0.00  0.00    +0.117 C 
BRANCH  15  16
ATOM     16  C   LIG    1       22.815 -16.134   4.288  0.00  0.00    +0.158 C 
BRANCH  16  17
ATOM     17  C   LIG    1       23.819 -15.117   3.785  0.00  0.00    -0.014 A 
ATOM     18  C   LIG    1       23.420 -13.826   3.410  0.00  0.00    +0.055 A 
ATOM     19  C   LIG    1       24.359 -12.909   2.967  0.00  0.00    +0.159 A 
ATOM     20  C   LIG    1       25.703 -13.250   2.878  0.00  0.00    +0.158 A 
ATOM     21  C   LIG    1       26.132 -14.511   3.269  0.00  0.00    +0.049 A 
ATOM     22  C   LIG    1       25.192 -15.432   3.740  0.00  0.00    +0.010 A 
BRANCH  19  23
ATOM     23  O   LIG    1       23.941 -11.657   2.619  0.00  0.00    -0.503 OA
ATOM     24  H   LIG    1       22.975 -11.750   2.500  0.00  0.00    +0.292 HD
ENDBRANCH  19  23
BRANCH  20  25
ATOM     25  O   LIG    1       26.566 -12.307   2.397  0.00  0.00    -0.503 OA
ATOM     26  H   LIG    1       26.800 -11.715   3.133  0.00  0.00    +0.292 HD
ENDBRANCH  20  25
ENDBRANCH  16  17
BRANCH  16  27
ATOM     27  O   LIG    1       22.298 -15.723   5.563  0.00  0.00    -0.386 OA
ATOM     28  H   LIG    1       21.844 -16.513   5.916  0.00  0.00    +0.210 HD
ENDBRANCH  16  27
ENDBRANCH  15  16
ENDBRANCH   1  15
TORSDOF 9
ENDMDL
MODEL 4
REMARK VINA RESULT:      -4.7      2.160      6.763
REMARK  Name = *****
REMARK                            x       y       z     vdW  Elec       q    Type
REMARK                         _______ _______ _______ _____ _____    ______ ____
ROOT
ATOM      1  N   LIG    1       27.505 -19.044   4.688  0.00  0.00    -0.310 NA
ATOM      2  H   LIG    1       26.565 -18.957   5.089  0.00  0.00    +0.122 HD
ENDROOT
BRANCH   1   4
ATOM      3  C   LIG    1       29.171 -18.850   6.456  0.00  0.00    +0.024 C 
ATOM      4  C   LIG    1       28.342 -19.841   5.623  0.00  0.00    +0.055 C 
BRANCH   4   5
ATOM      5  C   LIG    1       27.461 -20.753   6.513  0.00  0.00    +0.053 C 
BRANCH   5   6
ATOM      6  C   LIG    1       25.971 -20.743   6.240  0.00  0.00    -0.042 A 
ATOM      7  C   LIG    1       25.478 -20.053   5.126  0.00  0.00    +0.053 A 
ATOM      8  C   LIG    1       24.121 -20.080   4.893  0.00  0.00    +0.167 A 
ATOM      9  O   LIG    1       23.485 -19.455   3.873  0.00  0.00    -0.453 OA
ATOM     10  C   LIG    1       22.117 -19.836   4.139  0.00  0.00    +0.466 C 
ATOM     11  O   LIG    1       21.972 -20.673   5.301  0.00  0.00    -0.453 OA
ATOM     12  C   LIG    1       23.265 -20.784   5.708  0.00  0.00    +0.166 A 
ATOM     13  C   LIG    1       23.718 -21.496   6.793  0.00  0.00    +0.050 A 
ATOM     14  C   LIG    1       25.089 -21.480   7.062  0.00  0.00    +0.007 A 
ENDBRANCH   5   6
ENDBRANCH   4   5
ENDBRANCH   1   4
BRANCH   1  15
ATOM     15  C   LIG    1       28.040 -17.685   4.448  0.00  0.00    +0.117 C 
BRANCH  15  16
ATOM     16  C   LIG    1       27.184 -16.864   3.445  0.00  0.00    +0.158 C 
BRANCH  16  17
ATOM     17  C   LIG    1       26.646 -15.542   3.952  0.00  0.00    -0.014 A 
ATOM     18  C   LIG    1       27.489 -14.601   4.562  0.00  0.00    +0.055 A 
ATOM     19  C   LIG    1       26.976 -13.392   5.004  0.00  0.00    +0.159 A 
ATOM     20  C   LIG    1       25.627 -13.094   4.862  0.00  0.00    +0.158 A 
ATOM     21  C   LIG    1       24.774 -13.993   4.238  0.00  0.00    +0.049 A 
ATOM     22  C   LIG    1       25.290 -15.204   3.767  0.00  0.00    +0.010 A 
BRANCH  19  23
ATOM     23  O   LIG    1       27.824 -12.492   5.584  0.00  0.00    -0.503 OA
ATOM     24  H   LIG    1       28.606 -12.486   4.998  0.00  0.00    +0.292 HD
ENDBRANCH  19  23
BRANCH  20  25
ATOM     25  O   LIG    1       25.186 -11.899   5.356  0.00  0.00    -0.503 OA
ATOM     26  H   LIG    1       25.503 -11.197   4.763  0.00  0.00    +0.292 HD
ENDBRANCH  20  25
ENDBRANCH  16  17
BRANCH  16  27
ATOM     27  O   LIG    1       26.101 -17.697   3.003  0.00  0.00    -0.386 OA
ATOM     28  H   LIG    1       26.528 -18.512   2.675  0.00  0.00    +0.210 HD
ENDBRANCH  16  27
ENDBRANCH  15  16
ENDBRANCH   1  15
TORSDOF 9
ENDMDL
MODEL 5
REMARK VINA RESULT:      -4.6      2.453      4.189
REMARK  Name = *****
REMARK                            x       y       z     vdW  Elec       q    Type
REMARK                         _______ _______ _______ _____ _____    ______ ____
ROOT
ATOM      1  N   LIG    1       27.741 -17.672   5.033  0.00  0.00    -0.310 NA
ATOM      2  H   LIG    1       26.821 -17.938   5.400  0.00  0.00    +0.122 HD
ENDROOT
BRANCH   1   4
ATOM      3  C   LIG    1       26.089 -17.106   3.333  0.00  0.00    +0.024 C 
ATOM      4  C   LIG    1       27.538 -16.879   3.793  0.00  0.00    +0.055 C 
BRANCH   4   5
ATOM      5  C   LIG    1       27.840 -15.380   4.040  0.00  0.00    +0.053 C 
BRANCH   5   6
ATOM      6  C   LIG    1       26.744 -14.395   3.688  0.00  0.00    -0.042 A 
ATOM      7  C   LIG    1       25.998 -13.798   4.712  0.00  0.00    +0.053 A 
ATOM      8  C   LIG    1       25.023 -12.891   4.363  0.00  0.00    +0.167 A 
ATOM      9  O   LIG    1       24.208 -12.240   5.227  0.00  0.00    -0.453 OA
ATOM     10  C   LIG    1       23.423 -11.448   4.307  0.00  0.00    +0.466 C 
ATOM     11  O   LIG    1       23.788 -11.644   2.929  0.00  0.00    -0.453 OA
ATOM     12  C   LIG    1       24.794 -12.551   3.049  0.00  0.00    +0.166 A 
ATOM     13  C   LIG    1       25.526 -13.095   2.020  0.00  0.00    +0.050 A 
ATOM     14  C   LIG    1       26.517 -14.027   2.343  0.00  0.00    +0.007 A 
ENDBRANCH   5   6
ENDBRANCH   4   5
ENDBRANCH   1   4
BRANCH   1  15
ATOM     15  C   LIG    1       28.530 -18.904   4.809  0.00  0.00    +0.117 C 
BRANCH  15  16
ATOM     16  C   LIG    1       28.105 -20.075   5.738  0.00  0.00    +0.158 C 
BRANCH  16  17
ATOM     17  C   LIG    1       26.624 -20.393   5.776  0.00  0.00    -0.014 A 
ATOM     18  C   LIG    1       25.882 -20.538   4.594  0.00  0.00    +0.055 A 
ATOM     19  C   LIG    1       24.532 -20.844   4.655  0.00  0.00    +0.159 A 
ATOM     20  C   LIG    1       23.890 -21.002   5.876  0.00  0.00    +0.158 A 
ATOM     21  C   LIG    1       24.604 -20.893   7.061  0.00  0.00    +0.049 A 
ATOM     22  C   LIG    1       25.972 -20.609   7.006  0.00  0.00    +0.010 A 
BRANCH  19  23
ATOM     23  O   LIG    1       23.839 -20.989   3.487  0.00  0.00    -0.503 OA
ATOM     24  H   LIG    1       23.009 -21.432   3.753  0.00  0.00    +0.292 HD
ENDBRANCH  19  23
BRANCH  20  25
ATOM     25  O   LIG    1       22.550 -21.266   5.859  0.00  0.00    -0.503 OA
ATOM     26  H   LIG    1       22.385 -21.923   5.161  0.00  0.00    +0.292 HD
ENDBRANCH  20  25
ENDBRANCH  16  17
BRANCH  16  27
ATOM     27  O   LIG    1       28.578 -19.782   7.062  0.00  0.00    -0.386 OA
ATOM     28  H   LIG    1       29.030 -20.598   7.353  0.00  0.00    +0.210 HD
ENDBRANCH  16  27
ENDBRANCH  15  16
ENDBRANCH   1  15
TORSDOF 9
ENDMDL
MODEL 6
REMARK VINA RESULT:      -3.5      2.212      4.630
REMARK  Name = *****
REMARK                            x       y       z     vdW  Elec       q    Type
REMARK                         _______ _______ _______ _____ _____    ______ ____
ROOT
ATOM      1  N   LIG    1       27.292 -19.424   4.693  0.00  0.00    -0.310 NA
ATOM      2  H   LIG    1       28.034 -19.993   4.271  0.00  0.00    +0.122 HD
ENDROOT
BRANCH   1   4
ATOM      3  C   LIG    1       29.317 -18.161   5.188  0.00  0.00    +0.024 C 
ATOM      4  C   LIG    1       27.813 -18.046   4.890  0.00  0.00    +0.055 C 
BRANCH   4   5
ATOM      5  C   LIG    1       27.534 -17.167   3.646  0.00  0.00    +0.053 C 
BRANCH   5   6
ATOM      6  C   LIG    1       26.909 -15.809   3.893  0.00  0.00    -0.042 A 
ATOM      7  C   LIG    1       25.626 -15.539   3.402  0.00  0.00    +0.053 A 
ATOM      8  C   LIG    1       25.077 -14.304   3.660  0.00  0.00    +0.167 A 
ATOM      9  O   LIG    1       23.858 -13.882   3.246  0.00  0.00    -0.453 OA
ATOM     10  C   LIG    1       23.833 -12.550   3.805  0.00  0.00    +0.466 C 
ATOM     11  O   LIG    1       25.027 -12.214   4.536  0.00  0.00    -0.453 OA
ATOM     12  C   LIG    1       25.748 -13.360   4.404  0.00  0.00    +0.166 A 
ATOM     13  C   LIG    1       26.996 -13.601   4.927  0.00  0.00    +0.050 A 
ATOM     14  C   LIG    1       27.584 -14.843   4.672  0.00  0.00    +0.007 A 
ENDBRANCH   5   6
ENDBRANCH   4   5
ENDBRANCH   1   4
BRANCH   1  15
ATOM     15  C   LIG    1       26.870 -20.068   5.957  0.00  0.00    +0.117 C 
BRANCH  15  16
ATOM     16  C   LIG    1       25.647 -21.010   5.779  0.00  0.00    +0.158 C 
BRANCH  16  17
ATOM     17  C   LIG    1       24.408 -20.388   5.167  0.00  0.00    -0.014 A 
ATOM     18  C   LIG    1       23.160 -21.022   5.252  0.00  0.00    +0.055 A 
ATOM     19  C   LIG    1       22.039 -20.425   4.698  0.00  0.00    +0.159 A 
ATOM     20  C   LIG    1       22.130 -19.203   4.044  0.00  0.00    +0.158 A 
ATOM     21  C   LIG    1       23.346 -18.539   3.969  0.00  0.00    +0.049 A 
ATOM     22  C   LIG    1       24.476 -19.124   4.548  0.00  0.00    +0.010 A 
BRANCH  19  23
ATOM     23  O   LIG    1       20.836 -21.062   4.806  0.00  0.00    -0.503 OA
ATOM     24  H   LIG    1       20.773 -21.599   3.992  0.00  0.00    +0.292 HD
ENDBRANCH  19  23
BRANCH  20  25
ATOM     25  O   LIG    1       20.990 -18.694   3.489  0.00  0.00    -0.503 OA
ATOM     26  H   LIG    1       21.252 -18.083   2.779  0.00  0.00    +0.292 HD
ENDBRANCH  20  25
ENDBRANCH  16  17
BRANCH  16  27
ATOM     27  O   LIG    1       25.330 -21.572   7.062  0.00  0.00    -0.386 OA
ATOM     28  H   LIG    1       24.963 -20.828   7.578  0.00  0.00    +0.210 HD
ENDBRANCH  16  27
ENDBRANCH  15  16
ENDBRANCH   1  15
TORSDOF 9
ENDMDL
MODEL 7
REMARK VINA RESULT:      -3.3      2.319      7.467
REMARK  Name = *****
REMARK                            x       y       z     vdW  Elec       q    Type
REMARK                         _______ _______ _______ _____ _____    ______ ____
ROOT
ATOM      1  N   LIG    1       27.113 -18.080   4.587  0.00  0.00    -0.310 NA
ATOM      2  H   LIG    1       26.831 -17.640   5.470  0.00  0.00    +0.122 HD
ENDROOT
BRANCH   1   4
ATOM      3  C   LIG    1       29.400 -18.132   5.429  0.00  0.00    +0.024 C 
ATOM      4  C   LIG    1       28.256 -18.989   4.862  0.00  0.00    +0.055 C 
BRANCH   4   5
ATOM      5  C   LIG    1       27.841 -20.120   5.836  0.00  0.00    +0.053 C 
BRANCH   5   6
ATOM      6  C   LIG    1       26.367 -20.465   5.897  0.00  0.00    -0.042 A 
ATOM      7  C   LIG    1       25.539 -20.146   4.814  0.00  0.00    +0.053 A 
ATOM      8  C   LIG    1       24.208 -20.490   4.890  0.00  0.00    +0.167 A 
ATOM      9  O   LIG    1       23.275 -20.241   3.940  0.00  0.00    -0.453 OA
ATOM     10  C   LIG    1       22.104 -20.818   4.559  0.00  0.00    +0.466 C 
ATOM     11  O   LIG    1       22.366 -21.393   5.852  0.00  0.00    -0.453 OA
ATOM     12  C   LIG    1       23.698 -21.155   5.982  0.00  0.00    +0.166 A 
ATOM     13  C   LIG    1       24.488 -21.509   7.049  0.00  0.00    +0.050 A 
ATOM     14  C   LIG    1       25.841 -21.164   7.006  0.00  0.00    +0.007 A 
ENDBRANCH   5   6
ENDBRANCH   4   5
ENDBRANCH   1   4
BRANCH   1  15
ATOM     15  C   LIG    1       27.445 -17.012   3.617  0.00  0.00    +0.117 C 
BRANCH  15  16
ATOM     16  C   LIG    1       27.385 -15.589   4.236  0.00  0.00    +0.158 C 
BRANCH  16  17
ATOM     17  C   LIG    1       26.417 -14.619   3.589  0.00  0.00    -0.014 A 
ATOM     18  C   LIG    1       25.034 -14.724   3.800  0.00  0.00    +0.055 A 
ATOM     19  C   LIG    1       24.170 -13.816   3.209  0.00  0.00    +0.159 A 
ATOM     20  C   LIG    1       24.652 -12.798   2.395  0.00  0.00    +0.158 A 
ATOM     21  C   LIG    1       26.016 -12.652   2.191  0.00  0.00    +0.049 A 
ATOM     22  C   LIG    1       26.895 -13.550   2.805  0.00  0.00    +0.010 A 
BRANCH  19  23
ATOM     23  O   LIG    1       22.831 -13.938   3.442  0.00  0.00    -0.503 OA
ATOM     24  H   LIG    1       22.489 -13.024   3.372  0.00  0.00    +0.292 HD
ENDBRANCH  19  23
BRANCH  20  25
ATOM     25  O   LIG    1       23.738 -11.964   1.816  0.00  0.00    -0.503 OA
ATOM     26  H   LIG    1       24.217 -11.186   1.480  0.00  0.00    +0.292 HD
ENDBRANCH  20  25
ENDBRANCH  16  17
BRANCH  16  27
ATOM     27  O   LIG    1       28.712 -15.042   4.218  0.00  0.00    -0.386 OA
ATOM     28  H   LIG    1       28.876 -14.813   3.282  0.00  0.00    +0.210 HD
ENDBRANCH  16  27
ENDBRANCH  15  16
ENDBRANCH   1  15
TORSDOF 9
ENDMDL
