MODEL 1
REMARK VINA RESULT:      -5.2      0.000      0.000
REMARK  Name = *****
REMARK                            x       y       z     vdW  Elec       q    Type
REMARK                         _______ _______ _______ _____ _____    ______ ____
ROOT
ATOM      1  C   LIG    1       26.006 -15.900   3.474  0.00  0.00    -0.011 A 
ATOM      2  C   LIG    1       27.249 -15.253   3.380  0.00  0.00    +0.051 A 
ATOM      3  C   LIG    1       27.351 -13.881   3.619  0.00  0.00    +0.121 A 
ATOM      4  C   LIG    1       26.234 -13.126   3.947  0.00  0.00    +0.090 A 
ATOM      5  C   LIG    1       25.000 -13.761   4.037  0.00  0.00    +0.121 A 
ATOM      6  C   LIG    1       24.874 -15.131   3.797  0.00  0.00    +0.051 A 
ENDROOT
BRANCH   3   7
ATOM      7  O   LIG    1       28.588 -13.311   3.517  0.00  0.00    -0.507 OA
ATOM      8  H   LIG    1       28.569 -12.671   2.787  0.00  0.00    +0.292 HD
ENDBRANCH   3   7
BRANCH   5   9
ATOM      9  O   LIG    1       23.918 -12.997   4.370  0.00  0.00    -0.507 OA
ATOM     10  H   LIG    1       23.114 -13.503   4.160  0.00  0.00    +0.292 HD
ENDBRANCH   5   9
BRANCH   1  11
ATOM     11  C   LIG    1       25.914 -17.391   3.218  0.00  0.00    +0.158 C 
BRANCH  11  12
ATOM     12  O   LIG    1       26.958 -18.081   3.919  0.00  0.00    -0.386 OA
ATOM     13  H   LIG    1       27.086 -17.562   4.738  0.00  0.00    +0.210 HD
ENDBRANCH  11  12
BRANCH  11  14
ATOM     14  C   LIG    1       24.548 -17.987   3.648  0.00  0.00    +0.117 C 
BRANCH  14  15
ATOM     15  N   LIG    1       24.683 -19.425   3.988  0.00  0.00    -0.311 NA
ATOM     16  H   LIG    1       24.908 -19.942   3.135  0.00  0.00    +0.122 HD
BRANCH  15  18
ATOM     17  C   LIG    1       23.741 -20.529   5.962  0.00  0.00    +0.024 C 
ATOM     18  C   LIG    1       23.446 -19.995   4.556  0.00  0.00    +0.048 C 
ATOM     19  C   LIG    1       22.315 -18.967   4.640  0.00  0.00    +0.024 C 
ENDBRANCH  15  18
ENDBRANCH  14  15
ENDBRANCH  11  14
ENDBRANCH   1  11
TORSDOF 7
ENDMDL
MODEL 2
REMARK VINA RESULT:      -5.2      0.090      2.136
REMARK  Name = *****
REMARK                            x       y       z     vdW  Elec       q    Type
REMARK                         _______ _______ _______ _____ _____    ______ ____
ROOT
ATOM      1  C   LIG    1       26.060 -15.951   3.464  0.00  0.00    -0.011 A 
ATOM      2  C   LIG    1       24.918 -15.187   3.756  0.00  0.00    +0.051 A 
ATOM      3  C   LIG    1       25.025 -13.811   3.966  0.00  0.00    +0.121 A 
ATOM      4  C   LIG    1       26.254 -13.169   3.897  0.00  0.00    +0.090 A 
ATOM      5  C   LIG    1       27.388 -13.922   3.613  0.00  0.00    +0.121 A 
ATOM      6  C   LIG    1       27.305 -15.300   3.405  0.00  0.00    +0.051 A 
ENDROOT
BRANCH   3   7
ATOM      7  O   LIG    1       23.879 -13.121   4.241  0.00  0.00    -0.507 OA
ATOM      8  H   LIG    1       23.172 -13.763   4.417  0.00  0.00    +0.292 HD
ENDBRANCH   3   7
BRANCH   5   9
ATOM      9  O   LIG    1       28.583 -13.265   3.543  0.00  0.00    -0.507 OA
ATOM     10  H   LIG    1       28.843 -13.015   4.447  0.00  0.00    +0.292 HD
ENDBRANCH   5   9
BRANCH   1  11
ATOM     11  C   LIG    1       25.925 -17.444   3.232  0.00  0.00    +0.158 C 
BRANCH  11  12
ATOM     12  O   LIG    1       26.935 -18.154   3.962  0.00  0.00    -0.386 OA
ATOM     13  H   LIG    1       26.996 -19.020   3.513  0.00  0.00    +0.210 HD
ENDBRANCH  11  12
BRANCH  11  14
ATOM     14  C   LIG    1       24.534 -17.988   3.648  0.00  0.00    +0.117 C 
BRANCH  14  15
ATOM     15  N   LIG    1       24.596 -19.447   3.915  0.00  0.00    -0.311 NA
ATOM     16  H   LIG    1       24.742 -19.935   3.028  0.00  0.00    +0.122 HD
BRANCH  15  18
ATOM     17  C   LIG    1       23.671 -20.476   5.937  0.00  0.00    +0.024 C 
ATOM     18  C   LIG    1       23.357 -19.967   4.526  0.00  0.00    +0.048 C 
ATOM     19  C   LIG    1       22.258 -18.906   4.611  0.00  0.00    +0.024 C 
ENDBRANCH  15  18
ENDBRANCH  14  15
ENDBRANCH  11  14
ENDBRANCH   1  11
TORSDOF 7
ENDMDL
MODEL 3
REMARK VINA RESULT:      -4.7      2.743      6.499
REMARK  Name = *****
REMARK                            x       y       z     vdW  Elec       q    Type
REMARK                         _______ _______ _______ _____ _____    ______ ____
ROOT
ATOM      1  C   LIG    1       25.405 -19.764   4.768  0.00  0.00    -0.011 A 
ATOM      2  C   LIG    1       24.251 -20.288   5.374  0.00  0.00    +0.051 A 
ATOM      3  C   LIG    1       24.353 -21.093   6.509  0.00  0.00    +0.121 A 
ATOM      4  C   LIG    1       25.590 -21.400   7.062  0.00  0.00    +0.090 A 
ATOM      5  C   LIG    1       26.736 -20.888   6.462  0.00  0.00    +0.121 A 
ATOM      6  C   LIG    1       26.656 -20.085   5.323  0.00  0.00    +0.051 A 
ENDROOT
BRANCH   3   7
ATOM      7  O   LIG    1       23.196 -21.567   7.056  0.00  0.00    -0.507 OA
ATOM      8  H   LIG    1       23.277 -21.530   8.023  0.00  0.00    +0.292 HD
ENDBRANCH   3   7
BRANCH   5   9
ATOM      9  O   LIG    1       27.938 -21.198   7.030  0.00  0.00    -0.507 OA
ATOM     10  H   LIG    1       27.838 -22.039   7.509  0.00  0.00    +0.292 HD
ENDBRANCH   5   9
BRANCH   1  11
ATOM     11  C   LIG    1       25.275 -18.886   3.539  0.00  0.00    +0.158 C 
BRANCH  11  12
ATOM     12  O   LIG    1       23.957 -18.328   3.464  0.00  0.00    -0.386 OA
ATOM     13  H   LIG    1       23.507 -18.857   2.776  0.00  0.00    +0.210 HD
ENDBRANCH  11  12
BRANCH  11  14
ATOM     14  C   LIG    1       26.308 -17.729   3.521  0.00  0.00    +0.117 C 
BRANCH  14  15
ATOM     15  N   LIG    1       25.727 -16.512   2.902  0.00  0.00    -0.311 NA
ATOM     16  H   LIG    1       26.105 -16.416   1.956  0.00  0.00    +0.122 HD
BRANCH  15  18
ATOM     17  C   LIG    1       26.978 -14.407   2.803  0.00  0.00    +0.024 C 
ATOM     18  C   LIG    1       26.048 -15.282   3.652  0.00  0.00    +0.048 C 
ATOM     19  C   LIG    1       24.799 -14.477   4.016  0.00  0.00    +0.024 C 
ENDBRANCH  15  18
ENDBRANCH  14  15
ENDBRANCH  11  14
ENDBRANCH   1  11
TORSDOF 7
ENDMDL
MODEL 4
REMARK VINA RESULT:      -4.6      2.739      6.148
REMARK  Name = *****
REMARK                            x       y       z     vdW  Elec       q    Type
REMARK                         _______ _______ _______ _____ _____    ______ ____
ROOT
ATOM      1  C   LIG    1       25.361 -19.741   4.766  0.00  0.00    -0.011 A 
ATOM      2  C   LIG    1       26.591 -20.077   5.355  0.00  0.00    +0.051 A 
ATOM      3  C   LIG    1       26.631 -20.891   6.488  0.00  0.00    +0.121 A 
ATOM      4  C   LIG    1       25.465 -21.381   7.061  0.00  0.00    +0.090 A 
ATOM      5  C   LIG    1       24.244 -21.046   6.484  0.00  0.00    +0.121 A 
ATOM      6  C   LIG    1       24.181 -20.229   5.353  0.00  0.00    +0.051 A 
ENDROOT
BRANCH   3   7
ATOM      7  O   LIG    1       27.856 -21.188   7.012  0.00  0.00    -0.507 OA
ATOM      8  H   LIG    1       28.043 -20.557   7.727  0.00  0.00    +0.292 HD
ENDBRANCH   3   7
BRANCH   5   9
ATOM      9  O   LIG    1       23.113 -21.547   7.062  0.00  0.00    -0.507 OA
ATOM     10  H   LIG    1       22.347 -21.100   6.663  0.00  0.00    +0.292 HD
ENDBRANCH   5   9
BRANCH   1  11
ATOM     11  C   LIG    1       25.336 -18.861   3.531  0.00  0.00    +0.158 C 
BRANCH  11  12
ATOM     12  O   LIG    1       24.019 -18.335   3.322  0.00  0.00    -0.386 OA
ATOM     13  H   LIG    1       24.096 -17.387   3.551  0.00  0.00    +0.210 HD
ENDBRANCH  11  12
BRANCH  11  14
ATOM     14  C   LIG    1       26.336 -17.679   3.621  0.00  0.00    +0.117 C 
BRANCH  14  15
ATOM     15  N   LIG    1       25.823 -16.497   2.886  0.00  0.00    -0.311 NA
ATOM     16  H   LIG    1       26.304 -16.439   1.985  0.00  0.00    +0.122 HD
BRANCH  15  18
ATOM     17  C   LIG    1       26.928 -14.313   2.749  0.00  0.00    +0.024 C 
ATOM     18  C   LIG    1       26.053 -15.231   3.611  0.00  0.00    +0.048 C 
ATOM     19  C   LIG    1       24.749 -14.506   3.948  0.00  0.00    +0.024 C 
ENDBRANCH  15  18
ENDBRANCH  14  15
ENDBRANCH  11  14
ENDBRANCH   1  11
TORSDOF 7
ENDMDL
MODEL 5
REMARK VINA RESULT:      -4.6      0.789      2.420
REMARK  Name = *****
REMARK                            x       y       z     vdW  Elec       q    Type
REMARK                         _______ _______ _______ _____ _____    ______ ____
ROOT
ATOM      1  C   LIG    1       25.921 -16.431   3.546  0.00  0.00    -0.011 A 
ATOM      2  C   LIG    1       24.827 -15.595   3.826  0.00  0.00    +0.051 A 
ATOM      3  C   LIG    1       25.020 -14.230   4.045  0.00  0.00    +0.121 A 
ATOM      4  C   LIG    1       26.290 -13.669   3.999  0.00  0.00    +0.090 A 
ATOM      5  C   LIG    1       27.376 -14.494   3.728  0.00  0.00    +0.121 A 
ATOM      6  C   LIG    1       27.206 -15.862   3.510  0.00  0.00    +0.051 A 
ENDROOT
BRANCH   3   7
ATOM      7  O   LIG    1       23.918 -13.468   4.307  0.00  0.00    -0.507 OA
ATOM      8  H   LIG    1       23.743 -13.503   5.261  0.00  0.00    +0.292 HD
ENDBRANCH   3   7
BRANCH   5   9
ATOM      9  O   LIG    1       28.612 -13.915   3.681  0.00  0.00    -0.507 OA
ATOM     10  H   LIG    1       28.701 -13.329   4.452  0.00  0.00    +0.292 HD
ENDBRANCH   5   9
BRANCH   1  11
ATOM     11  C   LIG    1       25.693 -17.910   3.303  0.00  0.00    +0.158 C 
BRANCH  11  12
ATOM     12  O   LIG    1       26.625 -18.689   4.064  0.00  0.00    -0.386 OA
ATOM     13  H   LIG    1       26.115 -19.476   4.343  0.00  0.00    +0.210 HD
ENDBRANCH  11  12
BRANCH  11  14
ATOM     14  C   LIG    1       24.254 -18.359   3.667  0.00  0.00    +0.117 C 
BRANCH  14  15
ATOM     15  N   LIG    1       24.191 -19.830   3.853  0.00  0.00    -0.311 NA
ATOM     16  H   LIG    1       23.487 -20.209   3.215  0.00  0.00    +0.122 HD
BRANCH  15  18
ATOM     17  C   LIG    1       22.458 -20.920   5.200  0.00  0.00    +0.024 C 
ATOM     18  C   LIG    1       23.819 -20.215   5.229  0.00  0.00    +0.048 C 
ATOM     19  C   LIG    1       24.849 -21.143   5.873  0.00  0.00    +0.024 C 
ENDBRANCH  15  18
ENDBRANCH  14  15
ENDBRANCH  11  14
ENDBRANCH   1  11
TORSDOF 7
ENDMDL
MODEL 6
REMARK VINA RESULT:      -4.2      2.845      6.147
REMARK  Name = *****
REMARK                            x       y       z     vdW  Elec       q    Type
REMARK                         _______ _______ _______ _____ _____    ______ ____
ROOT
ATOM      1  C   LIG    1       23.173 -18.258   4.270  0.00  0.00    -0.011 A 
ATOM      2  C   LIG    1       24.497 -18.638   3.994  0.00  0.00    +0.051 A 
ATOM      3  C   LIG    1       24.881 -19.976   4.090  0.00  0.00    +0.121 A 
ATOM      4  C   LIG    1       23.973 -20.958   4.465  0.00  0.00    +0.090 A 
ATOM      5  C   LIG    1       22.663 -20.585   4.744  0.00  0.00    +0.121 A 
ATOM      6  C   LIG    1       22.258 -19.252   4.659  0.00  0.00    +0.051 A 
ENDROOT
BRANCH   3   7
ATOM      7  O   LIG    1       26.180 -20.285   3.804  0.00  0.00    -0.507 OA
ATOM      8  H   LIG    1       26.748 -19.596   4.186  0.00  0.00    +0.292 HD
ENDBRANCH   3   7
BRANCH   5   9
ATOM      9  O   LIG    1       21.788 -21.571   5.103  0.00  0.00    -0.507 OA
ATOM     10  H   LIG    1       21.009 -21.151   5.507  0.00  0.00    +0.292 HD
ENDBRANCH   5   9
BRANCH   1  11
ATOM     11  C   LIG    1       22.770 -16.800   4.153  0.00  0.00    +0.158 C 
BRANCH  11  12
ATOM     12  O   LIG    1       21.962 -16.417   5.273  0.00  0.00    -0.386 OA
ATOM     13  H   LIG    1       21.784 -17.256   5.744  0.00  0.00    +0.210 HD
ENDBRANCH  11  12
BRANCH  11  14
ATOM     14  C   LIG    1       23.993 -15.849   4.072  0.00  0.00    +0.117 C 
BRANCH  14  15
ATOM     15  N   LIG    1       23.616 -14.471   4.472  0.00  0.00    -0.311 NA
ATOM     16  H   LIG    1       22.744 -14.221   4.000  0.00  0.00    +0.122 HD
BRANCH  15  18
ATOM     17  C   LIG    1       25.939 -14.198   3.739  0.00  0.00    +0.024 C 
ATOM     18  C   LIG    1       24.639 -13.472   4.103  0.00  0.00    +0.048 C 
ATOM     19  C   LIG    1       24.205 -12.601   2.922  0.00  0.00    +0.024 C 
ENDBRANCH  15  18
ENDBRANCH  14  15
ENDBRANCH  11  14
ENDBRANCH   1  11
TORSDOF 7
ENDMDL
MODEL 7
REMARK VINA RESULT:      -4.2      2.878      6.491
REMARK  Name = *****
REMARK                            x       y       z     vdW  Elec       q    Type
REMARK                         _______ _______ _______ _____ _____    ______ ____
ROOT
ATOM      1  C   LIG    1       23.258 -18.316   4.249  0.00  0.00    -0.011 A 
ATOM      2  C   LIG    1       22.343 -19.318   4.616  0.00  0.00    +0.051 A 
ATOM      3  C   LIG    1       22.761 -20.644   4.737  0.00  0.00    +0.121 A 
ATOM      4  C   LIG    1       24.080 -21.005   4.495  0.00  0.00    +0.090 A 
ATOM      5  C   LIG    1       24.987 -20.018   4.127  0.00  0.00    +0.121 A 
ATOM      6  C   LIG    1       24.590 -18.686   3.995  0.00  0.00    +0.051 A 
ENDROOT
BRANCH   3   7
ATOM      7  O   LIG    1       21.828 -21.571   5.102  0.00  0.00    -0.507 OA
ATOM      8  H   LIG    1       20.950 -21.231   4.862  0.00  0.00    +0.292 HD
ENDBRANCH   3   7
BRANCH   5   9
ATOM      9  O   LIG    1       26.279 -20.399   3.902  0.00  0.00    -0.507 OA
ATOM     10  H   LIG    1       26.719 -20.501   4.764  0.00  0.00    +0.292 HD
ENDBRANCH   5   9
BRANCH   1  11
ATOM     11  C   LIG    1       22.789 -16.879   4.129  0.00  0.00    +0.158 C 
BRANCH  11  12
ATOM     12  O   LIG    1       21.958 -16.532   5.245  0.00  0.00    -0.386 OA
ATOM     13  H   LIG    1       22.015 -17.306   5.841  0.00  0.00    +0.210 HD
ENDBRANCH  11  12
BRANCH  11  14
ATOM     14  C   LIG    1       23.966 -15.872   4.052  0.00  0.00    +0.117 C 
BRANCH  14  15
ATOM     15  N   LIG    1       23.517 -14.507   4.423  0.00  0.00    -0.311 NA
ATOM     16  H   LIG    1       22.690 -14.273   3.869  0.00  0.00    +0.122 HD
BRANCH  15  18
ATOM     17  C   LIG    1       25.852 -14.172   3.758  0.00  0.00    +0.024 C 
ATOM     18  C   LIG    1       24.547 -13.480   4.167  0.00  0.00    +0.048 C 
ATOM     19  C   LIG    1       24.133 -12.502   3.066  0.00  0.00    +0.024 C 
ENDBRANCH  15  18
ENDBRANCH  14  15
ENDBRANCH  11  14
ENDBRANCH   1  11
TORSDOF 7
ENDMDL
MODEL 8
REMARK VINA RESULT:      -4.1      1.978      3.223
REMARK  Name = *****
REMARK                            x       y       z     vdW  Elec       q    Type
REMARK                         _______ _______ _______ _____ _____    ______ ____
ROOT
ATOM      1  C   LIG    1       24.248 -14.707   3.901  0.00  0.00    -0.011 A 
ATOM      2  C   LIG    1       23.624 -13.513   3.503  0.00  0.00    +0.051 A 
ATOM      3  C   LIG    1       24.310 -12.587   2.715  0.00  0.00    +0.121 A 
ATOM      4  C   LIG    1       25.619 -12.818   2.313  0.00  0.00    +0.090 A 
ATOM      5  C   LIG    1       26.243 -13.997   2.709  0.00  0.00    +0.121 A 
ATOM      6  C   LIG    1       25.577 -14.934   3.501  0.00  0.00    +0.051 A 
ENDROOT
BRANCH   3   7
ATOM      7  O   LIG    1       23.649 -11.448   2.356  0.00  0.00    -0.507 OA
ATOM      8  H   LIG    1       22.877 -11.348   2.935  0.00  0.00    +0.292 HD
ENDBRANCH   3   7
BRANCH   5   9
ATOM      9  O   LIG    1       27.527 -14.203   2.294  0.00  0.00    -0.507 OA
ATOM     10  H   LIG    1       27.498 -14.645   1.428  0.00  0.00    +0.292 HD
ENDBRANCH   5   9
BRANCH   1  11
ATOM     11  C   LIG    1       23.486 -15.706   4.751  0.00  0.00    +0.158 C 
BRANCH  11  12
ATOM     12  O   LIG    1       22.463 -15.039   5.502  0.00  0.00    -0.386 OA
ATOM     13  H   LIG    1       22.944 -14.599   6.231  0.00  0.00    +0.210 HD
ENDBRANCH  11  12
BRANCH  11  14
ATOM     14  C   LIG    1       22.832 -16.830   3.906  0.00  0.00    +0.117 C 
BRANCH  14  15
ATOM     15  N   LIG    1       22.160 -17.823   4.781  0.00  0.00    -0.311 NA
ATOM     16  H   LIG    1       22.393 -17.611   5.754  0.00  0.00    +0.122 HD
BRANCH  15  18
ATOM     17  C   LIG    1       23.877 -19.179   3.676  0.00  0.00    +0.024 C 
ATOM     18  C   LIG    1       22.584 -19.209   4.499  0.00  0.00    +0.048 C 
ATOM     19  C   LIG    1       22.824 -20.017   5.776  0.00  0.00    +0.024 C 
ENDBRANCH  15  18
ENDBRANCH  14  15
ENDBRANCH  11  14
ENDBRANCH   1  11
TORSDOF 7
ENDMDL
MODEL 9
REMARK VINA RESULT:      -4.0      3.559      5.716
REMARK  Name = *****
REMARK                            x       y       z     vdW  Elec       q    Type
REMARK                         _______ _______ _______ _____ _____    ______ ____
ROOT
ATOM      1  C   LIG    1       24.453 -19.361   4.076  0.00  0.00    -0.011 A 
ATOM      2  C   LIG    1       23.833 -18.100   4.076  0.00  0.00    +0.051 A 
ATOM      3  C   LIG    1       22.455 -17.991   4.271  0.00  0.00    +0.121 A 
ATOM      4  C   LIG    1       21.667 -19.119   4.462  0.00  0.00    +0.090 A 
ATOM      5  C   LIG    1       22.276 -20.369   4.458  0.00  0.00    +0.121 A 
ATOM      6  C   LIG    1       23.651 -20.501   4.260  0.00  0.00    +0.051 A 
ENDROOT
BRANCH   3   7
ATOM      7  O   LIG    1       21.911 -16.739   4.266  0.00  0.00    -0.507 OA
ATOM      8  H   LIG    1       22.630 -16.094   4.364  0.00  0.00    +0.292 HD
ENDBRANCH   3   7
BRANCH   5   9
ATOM      9  O   LIG    1       21.479 -21.460   4.656  0.00  0.00    -0.507 OA
ATOM     10  H   LIG    1       21.937 -22.238   4.293  0.00  0.00    +0.292 HD
ENDBRANCH   5   9
BRANCH   1  11
ATOM     11  C   LIG    1       25.952 -19.460   3.869  0.00  0.00    +0.158 C 
BRANCH  11  12
ATOM     12  O   LIG    1       26.477 -18.202   3.425  0.00  0.00    -0.386 OA
ATOM     13  H   LIG    1       25.764 -17.821   2.874  0.00  0.00    +0.210 HD
ENDBRANCH  11  12
BRANCH  11  14
ATOM     14  C   LIG    1       26.704 -19.887   5.157  0.00  0.00    +0.117 C 
BRANCH  14  15
ATOM     15  N   LIG    1       28.152 -20.068   4.887  0.00  0.00    -0.311 NA
ATOM     16  H   LIG    1       28.263 -20.802   4.183  0.00  0.00    +0.122 HD
BRANCH  15  18
ATOM     17  C   LIG    1       29.406 -19.204   6.807  0.00  0.00    +0.024 C 
ATOM     18  C   LIG    1       28.910 -20.465   6.089  0.00  0.00    +0.048 C 
ATOM     19  C   LIG    1       28.069 -21.295   7.061  0.00  0.00    +0.024 C 
ENDBRANCH  15  18
ENDBRANCH  14  15
ENDBRANCH  11  14
ENDBRANCH   1  11
TORSDOF 7
ENDMDL
