MODEL 1
REMARK VINA RESULT:      -0.8      0.000      0.000
REMARK  Name = *****
REMARK                            x       y       z     vdW  Elec       q    Type
REMARK                         _______ _______ _______ _____ _____    ______ ____
ROOT
ATOM      1  C   LIG    1       26.331 -18.325   4.116  0.00  0.00    +0.086 C 
ATOM      2  C   LIG    1       25.061 -17.716   3.849  0.00  0.00    +0.089 C 
ATOM      3 CL   LIG    1       23.750 -18.716   3.247  0.00  0.00    -0.079 Cl
ATOM      4  C   LIG    1       24.885 -16.299   3.735  0.00  0.00    +0.073 C 
ATOM      5  C   LIG    1       26.044 -15.513   3.627  0.00  0.00    +0.050 C 
ATOM      6  C   LIG    1       25.954 -14.066   3.317  0.00  0.00    +0.203 C 
ATOM      7  C   LIG    1       24.618 -13.462   3.150  0.00  0.00    +0.122 C 
ATOM      8  C   LIG    1       23.570 -14.273   3.365  0.00  0.00    +0.105 C 
ATOM      9  O   LIG    1       26.957 -13.376   3.176  0.00  0.00    -0.286 OA
ATOM     10  C   LIG    1       27.304 -16.074   3.761  0.00  0.00    +0.054 C 
ATOM     11  N   LIG    1       23.622 -15.619   3.695  0.00  0.00    -0.341 NA
ATOM     12  C   LIG    1       27.427 -17.432   4.031  0.00  0.00    +0.146 C 
ATOM     13  F   LIG    1       28.690 -17.856   4.185  0.00  0.00    -0.203 F 
ENDROOT
BRANCH   1  16
ATOM     14  C   LIG    1       27.720 -20.300   6.553  0.00  0.00    +0.068 C 
ATOM     15  C   LIG    1       27.780 -20.175   5.006  0.00  0.00    +0.123 C 
ATOM     16  N   LIG    1       26.525 -19.687   4.390  0.00  0.00    -0.325 NA
ATOM     17  C   LIG    1       25.471 -20.711   4.331  0.00  0.00    +0.105 C 
ATOM     18  C   LIG    1       24.555 -20.719   5.548  0.00  0.00    +0.019 C 
ATOM     19  C   LIG    1       25.213 -20.609   6.922  0.00  0.00    +0.003 C 
ATOM     20  C   LIG    1       26.604 -21.230   7.062  0.00  0.00    +0.020 C 
BRANCH  14  21
ATOM     21  N   LIG    1       29.014 -20.797   7.062  0.00  0.00    -0.326 NA
ATOM     22  H   LIG    1       29.168 -21.738   6.698  0.00  0.00    +0.118 HD
ATOM     23  H   LIG    1       29.766 -20.228   6.673  0.00  0.00    +0.118 HD
ENDBRANCH  14  21
ENDBRANCH   1  16
BRANCH  11  24
ATOM     24  C   LIG    1       22.384 -16.175   4.291  0.00  0.00    +0.087 C 
ATOM     25  C   LIG    1       22.357 -17.300   5.299  0.00  0.00    +0.027 C 
ATOM     26  C   LIG    1       22.047 -15.910   5.745  0.00  0.00    +0.027 C 
ENDBRANCH  11  24
BRANCH   7  27
ATOM     27  C   LIG    1       24.395 -12.049   2.810  0.00  0.00    +0.342 C 
ATOM     28  O   LIG    1       25.052 -11.450   1.971  0.00  0.00    -0.245 OA
BRANCH  27  29
ATOM     29  O   LIG    1       23.406 -11.449   3.504  0.00  0.00    -0.477 OA
ATOM     30  H   LIG    1       23.349 -10.468   3.366  0.00  0.00    +0.295 HD
ENDBRANCH  27  29
ENDBRANCH   7  27
TORSDOF 5
ENDMDL
MODEL 2
REMARK VINA RESULT:       1.3      2.990      3.870
REMARK  Name = *****
REMARK                            x       y       z     vdW  Elec       q    Type
REMARK                         _______ _______ _______ _____ _____    ______ ____
ROOT
ATOM      1  C   LIG    1       24.385 -17.097   3.747  0.00  0.00    +0.086 C 
ATOM      2  C   LIG    1       24.270 -15.671   3.838  0.00  0.00    +0.089 C 
ATOM      3 CL   LIG    1       22.814 -14.898   3.234  0.00  0.00    -0.079 Cl
ATOM      4  C   LIG    1       25.389 -14.814   4.089  0.00  0.00    +0.073 C 
ATOM      5  C   LIG    1       26.670 -15.380   3.987  0.00  0.00    +0.050 C 
ATOM      6  C   LIG    1       27.883 -14.529   4.045  0.00  0.00    +0.203 C 
ATOM      7  C   LIG    1       27.717 -13.075   4.240  0.00  0.00    +0.122 C 
ATOM      8  C   LIG    1       26.459 -12.642   4.422  0.00  0.00    +0.105 C 
ATOM      9  O   LIG    1       29.006 -15.002   3.913  0.00  0.00    -0.286 OA
ATOM     10  C   LIG    1       26.837 -16.740   3.782  0.00  0.00    +0.054 C 
ATOM     11  N   LIG    1       25.310 -13.418   4.413  0.00  0.00    -0.341 NA
ATOM     12  C   LIG    1       25.721 -17.565   3.702  0.00  0.00    +0.146 C 
ATOM     13  F   LIG    1       26.002 -18.867   3.548  0.00  0.00    -0.203 F 
ENDROOT
BRANCH   1  16
ATOM     14  C   LIG    1       23.824 -20.468   3.442  0.00  0.00    +0.068 C 
ATOM     15  C   LIG    1       23.344 -19.159   2.758  0.00  0.00    +0.123 C 
ATOM     16  N   LIG    1       23.303 -17.985   3.659  0.00  0.00    -0.325 NA
ATOM     17  C   LIG    1       22.155 -18.001   4.579  0.00  0.00    +0.105 C 
ATOM     18  C   LIG    1       22.448 -18.678   5.912  0.00  0.00    +0.019 C 
ATOM     19  C   LIG    1       23.209 -20.000   5.876  0.00  0.00    +0.003 C 
ATOM     20  C   LIG    1       22.971 -20.888   4.652  0.00  0.00    +0.020 C 
BRANCH  14  21
ATOM     21  N   LIG    1       23.823 -21.571   2.461  0.00  0.00    -0.326 NA
ATOM     22  H   LIG    1       24.042 -21.189   1.540  0.00  0.00    +0.118 HD
ATOM     23  H   LIG    1       24.586 -22.213   2.679  0.00  0.00    +0.118 HD
ENDBRANCH  14  21
ENDBRANCH   1  16
BRANCH  11  24
ATOM     24  C   LIG    1       24.122 -12.801   5.051  0.00  0.00    +0.087 C 
ATOM     25  C   LIG    1       24.145 -11.492   5.803  0.00  0.00    +0.027 C 
ATOM     26  C   LIG    1       23.497 -11.552   4.460  0.00  0.00    +0.027 C 
ENDBRANCH  11  24
BRANCH   7  27
ATOM     27  C   LIG    1       28.836 -12.122   4.282  0.00  0.00    +0.342 C 
ATOM     28  O   LIG    1       29.428 -11.741   3.283  0.00  0.00    -0.245 OA
BRANCH  27  29
ATOM     29  O   LIG    1       29.171 -11.698   5.518  0.00  0.00    -0.477 OA
ATOM     30  H   LIG    1       28.814 -12.262   6.252  0.00  0.00    +0.295 HD
ENDBRANCH  27  29
ENDBRANCH   7  27
TORSDOF 5
ENDMDL
