MODEL 1
REMARK VINA RESULT:      -9.2      0.000      0.000
REMARK  Name = *****
REMARK                            x       y       z     vdW  Elec       q    Type
REMARK                         _______ _______ _______ _____ _____    ______ ____
ROOT
ATOM      1  C   LIG    1       24.556 -24.995   5.913  0.00  0.00    +0.189 C 
ENDROOT
BRANCH   1   2
ATOM      2  O   LIG    1       23.612 -25.975   5.456  0.00  0.00    -0.385 OA
ATOM      3  H   LIG    1       23.249 -26.411   6.253  0.00  0.00    +0.210 HD
ENDBRANCH   1   2
BRANCH   1   4
ATOM      4  C   LIG    1       25.705 -25.663   6.701  0.00  0.00    +0.263 C 
BRANCH   4   5
ATOM      5  O   LIG    1       25.847 -27.068   6.442  0.00  0.00    -0.488 OA
BRANCH   5  10
ATOM      6  C   LIG    1       24.005 -31.743   7.102  0.00  0.00    +0.215 C 
ATOM      7  O   LIG    1       24.723 -31.413   8.246  0.00  0.00    -0.448 OA
ATOM      8  C   LIG    1       25.296 -30.162   8.331  0.00  0.00    +0.143 A 
ATOM      9  C   LIG    1       25.207 -29.192   7.326  0.00  0.00    +0.105 A 
ATOM     10  C   LIG    1       25.858 -27.954   7.487  0.00  0.00    +0.135 A 
ATOM     11  C   LIG    1       26.513 -27.705   8.703  0.00  0.00    +0.046 A 
ATOM     12  C   LIG    1       26.574 -28.666   9.710  0.00  0.00    +0.007 A 
ATOM     13  C   LIG    1       24.388 -29.524   6.136  0.00  0.00    +0.197 C 
ATOM     14  O   LIG    1       24.116 -28.750   5.238  0.00  0.00    -0.287 OA
ATOM     15  C   LIG    1       25.982 -29.905   9.520  0.00  0.00    +0.047 A 
ATOM     16  C   LIG    1       23.826 -30.901   6.091  0.00  0.00    +0.105 C 
BRANCH   6  18
ATOM     17  O   LIG    1       22.816 -33.605   6.174  0.00  0.00    -0.242 OA
ATOM     18  C   LIG    1       23.415 -33.103   7.091  0.00  0.00    +0.373 C 
BRANCH  18  19
ATOM     19  O   LIG    1       23.592 -33.760   8.263  0.00  0.00    -0.475 OA
ATOM     20  H   LIG    1       24.559 -33.861   8.314  0.00  0.00    +0.295 HD
ENDBRANCH  18  19
ENDBRANCH   6  18
ENDBRANCH   5  10
ENDBRANCH   4   5
ENDBRANCH   1   4
BRANCH   1  21
ATOM     21  C   LIG    1       23.853 -23.930   6.770  0.00  0.00    +0.263 C 
BRANCH  21  22
ATOM     22  O   LIG    1       24.814 -22.980   7.255  0.00  0.00    -0.488 OA
BRANCH  22  23
ATOM     23  C   LIG    1       25.103 -21.920   6.429  0.00  0.00    +0.135 A 
ATOM     24  C   LIG    1       26.333 -21.260   6.607  0.00  0.00    +0.105 A 
ATOM     25  C   LIG    1       26.772 -20.301   5.686  0.00  0.00    +0.143 A 
ATOM     26  O   LIG    1       27.999 -19.682   5.770  0.00  0.00    -0.448 OA
ATOM     27  C   LIG    1       28.885 -20.135   6.735  0.00  0.00    +0.215 C 
ATOM     28  C   LIG    1       28.570 -21.005   7.703  0.00  0.00    +0.105 C 
ATOM     29  C   LIG    1       25.948 -19.916   4.633  0.00  0.00    +0.047 A 
ATOM     30  C   LIG    1       24.695 -20.510   4.488  0.00  0.00    +0.007 A 
ATOM     31  C   LIG    1       27.171 -21.455   7.806  0.00  0.00    +0.197 C 
ATOM     32  O   LIG    1       26.735 -21.862   8.876  0.00  0.00    -0.287 OA
ATOM     33  C   LIG    1       24.285 -21.522   5.364  0.00  0.00    +0.046 A 
BRANCH  27  34
ATOM     34  C   LIG    1       30.267 -19.565   6.758  0.00  0.00    +0.373 C 
ATOM     35  O   LIG    1       30.584 -18.501   6.299  0.00  0.00    -0.242 OA
BRANCH  34  36
ATOM     36  O   LIG    1       31.143 -20.413   7.358  0.00  0.00    -0.475 OA
ATOM     37  H   LIG    1       31.356 -20.161   8.275  0.00  0.00    +0.295 HD
ENDBRANCH  34  36
ENDBRANCH  27  34
ENDBRANCH  22  23
ENDBRANCH  21  22
ENDBRANCH   1  21
TORSDOF 11
ENDMDL
MODEL 2
REMARK VINA RESULT:      -9.1      1.288      2.425
REMARK  Name = *****
REMARK                            x       y       z     vdW  Elec       q    Type
REMARK                         _______ _______ _______ _____ _____    ______ ____
ROOT
ATOM      1  C   LIG    1       25.564 -24.811   5.651  0.00  0.00    +0.189 C 
ENDROOT
BRANCH   1   2
ATOM      2  O   LIG    1       24.848 -25.078   4.435  0.00  0.00    -0.385 OA
ATOM      3  H   LIG    1       23.959 -25.393   4.694  0.00  0.00    +0.210 HD
ENDBRANCH   1   2
BRANCH   1   4
ATOM      4  C   LIG    1       26.339 -26.063   6.120  0.00  0.00    +0.263 C 
BRANCH   4   5
ATOM      5  O   LIG    1       25.655 -26.825   7.126  0.00  0.00    -0.488 OA
BRANCH   5  10
ATOM      6  C   LIG    1       25.362 -31.213   9.646  0.00  0.00    +0.215 C 
ATOM      7  O   LIG    1       24.702 -31.384   8.433  0.00  0.00    -0.448 OA
ATOM      8  C   LIG    1       24.675 -30.335   7.540  0.00  0.00    +0.143 A 
ATOM      9  C   LIG    1       25.271 -29.091   7.777  0.00  0.00    +0.105 A 
ATOM     10  C   LIG    1       25.159 -28.065   6.819  0.00  0.00    +0.135 A 
ATOM     11  C   LIG    1       24.514 -28.360   5.608  0.00  0.00    +0.046 A 
ATOM     12  C   LIG    1       23.947 -29.610   5.368  0.00  0.00    +0.007 A 
ATOM     13  C   LIG    1       26.028 -28.934   9.043  0.00  0.00    +0.197 C 
ATOM     14  O   LIG    1       26.698 -27.962   9.339  0.00  0.00    -0.287 OA
ATOM     15  C   LIG    1       24.009 -30.596   6.341  0.00  0.00    +0.047 A 
ATOM     16  C   LIG    1       25.989 -30.090   9.977  0.00  0.00    +0.105 C 
BRANCH   6  18
ATOM     17  O   LIG    1       24.898 -33.475  10.287  0.00  0.00    -0.242 OA
ATOM     18  C   LIG    1       25.351 -32.390  10.548  0.00  0.00    +0.373 C 
BRANCH  18  19
ATOM     19  O   LIG    1       25.898 -32.125  11.760  0.00  0.00    -0.475 OA
ATOM     20  H   LIG    1       25.858 -32.987  12.211  0.00  0.00    +0.295 HD
ENDBRANCH  18  19
ENDBRANCH   6  18
ENDBRANCH   5  10
ENDBRANCH   4   5
ENDBRANCH   1   4
BRANCH   1  21
ATOM     21  C   LIG    1       24.602 -24.323   6.745  0.00  0.00    +0.263 C 
BRANCH  21  22
ATOM     22  O   LIG    1       25.085 -23.093   7.309  0.00  0.00    -0.488 OA
BRANCH  22  23
ATOM     23  C   LIG    1       25.184 -22.021   6.454  0.00  0.00    +0.135 A 
ATOM     24  C   LIG    1       26.360 -21.249   6.497  0.00  0.00    +0.105 A 
ATOM     25  C   LIG    1       26.607 -20.265   5.533  0.00  0.00    +0.143 A 
ATOM     26  O   LIG    1       27.773 -19.535   5.482  0.00  0.00    -0.448 OA
ATOM     27  C   LIG    1       28.796 -19.893   6.347  0.00  0.00    +0.215 C 
ATOM     28  C   LIG    1       28.669 -20.777   7.345  0.00  0.00    +0.105 C 
ATOM     29  C   LIG    1       25.642 -19.970   4.574  0.00  0.00    +0.047 A 
ATOM     30  C   LIG    1       24.441 -20.678   4.566  0.00  0.00    +0.007 A 
ATOM     31  C   LIG    1       27.336 -21.352   7.599  0.00  0.00    +0.197 C 
ATOM     32  O   LIG    1       27.057 -21.785   8.710  0.00  0.00    -0.287 OA
ATOM     33  C   LIG    1       24.223 -21.713   5.483  0.00  0.00    +0.046 A 
BRANCH  27  34
ATOM     34  C   LIG    1       30.114 -19.199   6.219  0.00  0.00    +0.373 C 
ATOM     35  O   LIG    1       31.132 -19.545   6.753  0.00  0.00    -0.242 OA
BRANCH  34  36
ATOM     36  O   LIG    1       30.021 -18.102   5.422  0.00  0.00    -0.475 OA
ATOM     37  H   LIG    1       29.997 -17.265   5.920  0.00  0.00    +0.295 HD
ENDBRANCH  34  36
ENDBRANCH  27  34
ENDBRANCH  22  23
ENDBRANCH  21  22
ENDBRANCH   1  21
TORSDOF 11
ENDMDL
MODEL 3
REMARK VINA RESULT:      -8.8      1.461     10.170
REMARK  Name = *****
REMARK                            x       y       z     vdW  Elec       q    Type
REMARK                         _______ _______ _______ _____ _____    ______ ____
ROOT
ATOM      1  C   LIG    1       24.868 -24.963   6.280  0.00  0.00    +0.189 C 
ENDROOT
BRANCH   1   2
ATOM      2  O   LIG    1       25.949 -24.862   7.219  0.00  0.00    -0.385 OA
ATOM      3  H   LIG    1       26.741 -24.594   6.712  0.00  0.00    +0.210 HD
ENDBRANCH   1   2
BRANCH   1   4
ATOM      4  C   LIG    1       23.699 -24.037   6.684  0.00  0.00    +0.263 C 
BRANCH   4   5
ATOM      5  O   LIG    1       24.117 -22.748   7.157  0.00  0.00    -0.488 OA
BRANCH   5  10
ATOM      6  C   LIG    1       28.374 -20.062   6.566  0.00  0.00    +0.215 C 
ATOM      7  O   LIG    1       27.534 -19.751   5.501  0.00  0.00    -0.448 OA
ATOM      8  C   LIG    1       26.284 -20.329   5.453  0.00  0.00    +0.143 A 
ATOM      9  C   LIG    1       25.799 -21.223   6.414  0.00  0.00    +0.105 A 
ATOM     10  C   LIG    1       24.520 -21.792   6.261  0.00  0.00    +0.135 A 
ATOM     11  C   LIG    1       23.736 -21.371   5.177  0.00  0.00    +0.046 A 
ATOM     12  C   LIG    1       24.215 -20.460   4.238  0.00  0.00    +0.007 A 
ATOM     13  C   LIG    1       26.672 -21.502   7.581  0.00  0.00    +0.197 C 
ATOM     14  O   LIG    1       26.348 -22.157   8.553  0.00  0.00    -0.287 OA
ATOM     15  C   LIG    1       25.499 -19.950   4.363  0.00  0.00    +0.047 A 
ATOM     16  C   LIG    1       28.020 -20.875   7.554  0.00  0.00    +0.105 C 
BRANCH   6  18
ATOM     17  O   LIG    1       29.946 -18.331   6.041  0.00  0.00    -0.242 OA
ATOM     18  C   LIG    1       29.698 -19.395   6.548  0.00  0.00    +0.373 C 
BRANCH  18  19
ATOM     19  O   LIG    1       30.662 -20.128   7.157  0.00  0.00    -0.475 OA
ATOM     20  H   LIG    1       30.389 -21.045   6.974  0.00  0.00    +0.295 HD
ENDBRANCH  18  19
ENDBRANCH   6  18
ENDBRANCH   5  10
ENDBRANCH   4   5
ENDBRANCH   1   4
BRANCH   1  21
ATOM     21  C   LIG    1       24.395 -26.420   6.160  0.00  0.00    +0.263 C 
BRANCH  21  22
ATOM     22  O   LIG    1       25.284 -27.285   6.885  0.00  0.00    -0.488 OA
BRANCH  22  23
ATOM     23  C   LIG    1       24.976 -28.624   6.884  0.00  0.00    +0.135 A 
ATOM     24  C   LIG    1       25.200 -29.355   8.065  0.00  0.00    +0.105 A 
ATOM     25  C   LIG    1       24.738 -30.669   8.195  0.00  0.00    +0.143 A 
ATOM     26  O   LIG    1       24.862 -31.401   9.354  0.00  0.00    -0.448 OA
ATOM     27  C   LIG    1       25.347 -30.751  10.478  0.00  0.00    +0.215 C 
ATOM     28  C   LIG    1       25.868 -29.517  10.474  0.00  0.00    +0.105 C 
ATOM     29  C   LIG    1       24.134 -31.306   7.114  0.00  0.00    +0.047 A 
ATOM     30  C   LIG    1       23.972 -30.617   5.913  0.00  0.00    +0.007 A 
ATOM     31  C   LIG    1       26.014 -28.829   9.179  0.00  0.00    +0.197 C 
ATOM     32  O   LIG    1       26.852 -27.945   9.046  0.00  0.00    -0.287 OA
ATOM     33  C   LIG    1       24.367 -29.279   5.805  0.00  0.00    +0.046 A 
BRANCH  27  34
ATOM     34  C   LIG    1       25.368 -31.492  11.777  0.00  0.00    +0.373 C 
ATOM     35  O   LIG    1       26.267 -31.466  12.573  0.00  0.00    -0.242 OA
BRANCH  34  36
ATOM     36  O   LIG    1       24.234 -32.221  11.950  0.00  0.00    -0.475 OA
ATOM     37  H   LIG    1       24.383 -33.056  12.428  0.00  0.00    +0.295 HD
ENDBRANCH  34  36
ENDBRANCH  27  34
ENDBRANCH  22  23
ENDBRANCH  21  22
ENDBRANCH   1  21
TORSDOF 11
ENDMDL
MODEL 4
REMARK VINA RESULT:      -8.2      3.100      9.708
REMARK  Name = *****
REMARK                            x       y       z     vdW  Elec       q    Type
REMARK                         _______ _______ _______ _____ _____    ______ ____
ROOT
ATOM      1  C   LIG    1       23.263 -19.545   4.894  0.00  0.00    +0.189 C 
ENDROOT
BRANCH   1   2
ATOM      2  O   LIG    1       22.156 -18.639   5.016  0.00  0.00    -0.385 OA
ATOM      3  H   LIG    1       22.164 -18.306   5.935  0.00  0.00    +0.210 HD
ENDBRANCH   1   2
BRANCH   1   4
ATOM      4  C   LIG    1       23.897 -19.454   3.488  0.00  0.00    +0.263 C 
BRANCH   4   5
ATOM      5  O   LIG    1       25.326 -19.591   3.486  0.00  0.00    -0.488 OA
BRANCH   5  10
ATOM      6  C   LIG    1       29.546 -18.890   6.203  0.00  0.00    +0.215 C 
ATOM      7  O   LIG    1       29.252 -17.686   5.572  0.00  0.00    -0.448 OA
ATOM      8  C   LIG    1       28.116 -17.604   4.796  0.00  0.00    +0.143 A 
ATOM      9  C   LIG    1       27.230 -18.668   4.594  0.00  0.00    +0.105 A 
ATOM     10  C   LIG    1       26.114 -18.501   3.753  0.00  0.00    +0.135 A 
ATOM     11  C   LIG    1       25.883 -17.230   3.206  0.00  0.00    +0.046 A 
ATOM     12  C   LIG    1       26.756 -16.167   3.433  0.00  0.00    +0.007 A 
ATOM     13  C   LIG    1       27.512 -19.930   5.320  0.00  0.00    +0.197 C 
ATOM     14  O   LIG    1       26.777 -20.900   5.344  0.00  0.00    -0.287 OA
ATOM     15  C   LIG    1       27.886 -16.357   4.214  0.00  0.00    +0.047 A 
ATOM     16  C   LIG    1       28.770 -19.963   6.112  0.00  0.00    +0.105 C 
BRANCH   6  18
ATOM     17  O   LIG    1       31.144 -18.010   7.757  0.00  0.00    -0.242 OA
ATOM     18  C   LIG    1       30.781 -18.894   7.024  0.00  0.00    +0.373 C 
BRANCH  18  19
ATOM     19  O   LIG    1       31.517 -20.020   6.857  0.00  0.00    -0.475 OA
ATOM     20  H   LIG    1       31.208 -20.358   5.997  0.00  0.00    +0.295 HD
ENDBRANCH  18  19
ENDBRANCH   6  18
ENDBRANCH   5  10
ENDBRANCH   4   5
ENDBRANCH   1   4
BRANCH   1  21
ATOM     21  C   LIG    1       22.816 -20.983   5.199  0.00  0.00    +0.263 C 
BRANCH  21  22
ATOM     22  O   LIG    1       22.745 -21.182   6.620  0.00  0.00    -0.488 OA
BRANCH  22  23
ATOM     23  C   LIG    1       23.911 -21.546   7.250  0.00  0.00    +0.135 A 
ATOM     24  C   LIG    1       24.338 -22.881   7.132  0.00  0.00    +0.105 A 
ATOM     25  C   LIG    1       25.602 -23.273   7.585  0.00  0.00    +0.143 A 
ATOM     26  O   LIG    1       26.099 -24.547   7.426  0.00  0.00    -0.448 OA
ATOM     27  C   LIG    1       25.360 -25.436   6.660  0.00  0.00    +0.215 C 
ATOM     28  C   LIG    1       24.119 -25.202   6.216  0.00  0.00    +0.105 C 
ATOM     29  C   LIG    1       26.418 -22.362   8.251  0.00  0.00    +0.047 A 
ATOM     30  C   LIG    1       25.976 -21.054   8.440  0.00  0.00    +0.007 A 
ATOM     31  C   LIG    1       23.456 -23.953   6.631  0.00  0.00    +0.197 C 
ATOM     32  O   LIG    1       22.232 -23.885   6.646  0.00  0.00    -0.287 OA
ATOM     33  C   LIG    1       24.743 -20.641   7.922  0.00  0.00    +0.046 A 
BRANCH  27  34
ATOM     34  C   LIG    1       25.944 -26.781   6.367  0.00  0.00    +0.373 C 
ATOM     35  O   LIG    1       25.451 -27.831   6.680  0.00  0.00    -0.242 OA
BRANCH  34  36
ATOM     36  O   LIG    1       27.125 -26.675   5.705  0.00  0.00    -0.475 OA
ATOM     37  H   LIG    1       27.387 -27.496   5.251  0.00  0.00    +0.295 HD
ENDBRANCH  34  36
ENDBRANCH  27  34
ENDBRANCH  22  23
ENDBRANCH  21  22
ENDBRANCH   1  21
TORSDOF 11
ENDMDL
MODEL 5
REMARK VINA RESULT:      -8.1      1.046     10.436
REMARK  Name = *****
REMARK                            x       y       z     vdW  Elec       q    Type
REMARK                         _______ _______ _______ _____ _____    ______ ____
ROOT
ATOM      1  C   LIG    1       24.897 -24.433   6.358  0.00  0.00    +0.189 C 
ENDROOT
BRANCH   1   2
ATOM      2  O   LIG    1       26.181 -24.267   6.978  0.00  0.00    -0.385 OA
ATOM      3  H   LIG    1       26.239 -24.932   7.692  0.00  0.00    +0.210 HD
ENDBRANCH   1   2
BRANCH   1   4
ATOM      4  C   LIG    1       23.838 -23.536   7.036  0.00  0.00    +0.263 C 
BRANCH   4   5
ATOM      5  O   LIG    1       24.315 -22.223   7.367  0.00  0.00    -0.488 OA
BRANCH   5  10
ATOM      6  C   LIG    1       28.657 -19.780   6.442  0.00  0.00    +0.215 C 
ATOM      7  O   LIG    1       27.812 -19.549   5.362  0.00  0.00    -0.448 OA
ATOM      8  C   LIG    1       26.541 -20.080   5.391  0.00  0.00    +0.143 A 
ATOM      9  C   LIG    1       26.040 -20.850   6.446  0.00  0.00    +0.105 A 
ATOM     10  C   LIG    1       24.738 -21.383   6.371  0.00  0.00    +0.135 A 
ATOM     11  C   LIG    1       23.951 -21.047   5.259  0.00  0.00    +0.046 A 
ATOM     12  C   LIG    1       24.448 -20.257   4.223  0.00  0.00    +0.007 A 
ATOM     13  C   LIG    1       26.921 -21.039   7.624  0.00  0.00    +0.197 C 
ATOM     14  O   LIG    1       26.590 -21.577   8.664  0.00  0.00    -0.287 OA
ATOM     15  C   LIG    1       25.751 -19.787   4.278  0.00  0.00    +0.047 A 
ATOM     16  C   LIG    1       28.291 -20.471   7.514  0.00  0.00    +0.105 C 
BRANCH   6  18
ATOM     17  O   LIG    1       30.990 -19.528   6.929  0.00  0.00    -0.242 OA
ATOM     18  C   LIG    1       30.005 -19.170   6.336  0.00  0.00    +0.373 C 
BRANCH  18  19
ATOM     19  O   LIG    1       30.034 -18.108   5.495  0.00  0.00    -0.475 OA
ATOM     20  H   LIG    1       30.801 -18.299   4.926  0.00  0.00    +0.295 HD
ENDBRANCH  18  19
ENDBRANCH   6  18
ENDBRANCH   5  10
ENDBRANCH   4   5
ENDBRANCH   1   4
BRANCH   1  21
ATOM     21  C   LIG    1       24.470 -25.908   6.396  0.00  0.00    +0.263 C 
BRANCH  21  22
ATOM     22  O   LIG    1       25.625 -26.756   6.302  0.00  0.00    -0.488 OA
BRANCH  22  23
ATOM     23  C   LIG    1       25.762 -27.720   7.273  0.00  0.00    +0.135 A 
ATOM     24  C   LIG    1       25.489 -29.055   6.922  0.00  0.00    +0.105 A 
ATOM     25  C   LIG    1       25.787 -30.103   7.800  0.00  0.00    +0.143 A 
ATOM     26  O   LIG    1       25.612 -31.430   7.478  0.00  0.00    -0.448 OA
ATOM     27  C   LIG    1       25.252 -31.734   6.173  0.00  0.00    +0.215 C 
ATOM     28  C   LIG    1       24.890 -30.827   5.257  0.00  0.00    +0.105 C 
ATOM     29  C   LIG    1       26.268 -29.827   9.077  0.00  0.00    +0.047 A 
ATOM     30  C   LIG    1       26.473 -28.504   9.464  0.00  0.00    +0.007 A 
ATOM     31  C   LIG    1       24.787 -29.418   5.675  0.00  0.00    +0.197 C 
ATOM     32  O   LIG    1       24.063 -28.647   5.058  0.00  0.00    -0.287 OA
ATOM     33  C   LIG    1       26.246 -27.459   8.561  0.00  0.00    +0.046 A 
BRANCH  27  34
ATOM     34  C   LIG    1       25.183 -33.172   5.770  0.00  0.00    +0.373 C 
ATOM     35  O   LIG    1       26.113 -33.825   5.379  0.00  0.00    -0.242 OA
BRANCH  34  36
ATOM     36  O   LIG    1       23.921 -33.660   5.887  0.00  0.00    -0.475 OA
ATOM     37  H   LIG    1       23.586 -34.063   5.066  0.00  0.00    +0.295 HD
ENDBRANCH  34  36
ENDBRANCH  27  34
ENDBRANCH  22  23
ENDBRANCH  21  22
ENDBRANCH   1  21
TORSDOF 11
ENDMDL
MODEL 6
REMARK VINA RESULT:      -8.1      4.274      7.759
REMARK  Name = *****
REMARK                            x       y       z     vdW  Elec       q    Type
REMARK                         _______ _______ _______ _____ _____    ______ ____
ROOT
ATOM      1  C   LIG    1       22.352 -31.293  10.215  0.00  0.00    +0.189 C 
ENDROOT
BRANCH   1   2
ATOM      2  O   LIG    1       21.026 -31.624   9.776  0.00  0.00    -0.385 OA
ATOM      3  H   LIG    1       21.097 -32.449   9.256  0.00  0.00    +0.210 HD
ENDBRANCH   1   2
BRANCH   1   4
ATOM      4  C   LIG    1       23.372 -32.346   9.727  0.00  0.00    +0.263 C 
BRANCH   4   5
ATOM      5  O   LIG    1       24.230 -31.878   8.675  0.00  0.00    -0.488 OA
BRANCH   5  10
ATOM      6  C   LIG    1       25.070 -27.400   6.455  0.00  0.00    +0.215 C 
ATOM      7  O   LIG    1       25.886 -27.467   7.580  0.00  0.00    -0.448 OA
ATOM      8  C   LIG    1       25.871 -28.615   8.341  0.00  0.00    +0.143 A 
ATOM      9  C   LIG    1       25.076 -29.731   8.057  0.00  0.00    +0.105 A 
ATOM     10  C   LIG    1       25.100 -30.847   8.916  0.00  0.00    +0.135 A 
ATOM     11  C   LIG    1       25.997 -30.831   9.995  0.00  0.00    +0.046 A 
ATOM     12  C   LIG    1       26.806 -29.726  10.256  0.00  0.00    +0.007 A 
ATOM     13  C   LIG    1       24.256 -29.681   6.823  0.00  0.00    +0.197 C 
ATOM     14  O   LIG    1       23.609 -30.610   6.377  0.00  0.00    -0.287 OA
ATOM     15  C   LIG    1       26.732 -28.607   9.440  0.00  0.00    +0.047 A 
ATOM     16  C   LIG    1       24.290 -28.402   6.065  0.00  0.00    +0.105 C 
BRANCH   6  18
ATOM     17  O   LIG    1       26.152 -25.514   5.448  0.00  0.00    -0.242 OA
ATOM     18  C   LIG    1       25.148 -26.135   5.686  0.00  0.00    +0.373 C 
BRANCH  18  19
ATOM     19  O   LIG    1       23.933 -25.697   5.273  0.00  0.00    -0.475 OA
ATOM     20  H   LIG    1       23.982 -24.737   5.426  0.00  0.00    +0.295 HD
ENDBRANCH  18  19
ENDBRANCH   6  18
ENDBRANCH   5  10
ENDBRANCH   4   5
ENDBRANCH   1   4
BRANCH   1  21
ATOM     21  C   LIG    1       22.394 -31.161  11.745  0.00  0.00    +0.263 C 
BRANCH  21  22
ATOM     22  O   LIG    1       23.339 -30.147  12.123  0.00  0.00    -0.488 OA
BRANCH  22  23
ATOM     23  C   LIG    1       22.819 -28.966  12.598  0.00  0.00    +0.135 A 
ATOM     24  C   LIG    1       23.719 -27.971  13.021  0.00  0.00    +0.105 A 
ATOM     25  C   LIG    1       23.268 -26.684  13.335  0.00  0.00    +0.143 A 
ATOM     26  O   LIG    1       24.113 -25.652  13.680  0.00  0.00    -0.448 OA
ATOM     27  C   LIG    1       25.477 -25.875  13.575  0.00  0.00    +0.215 C 
ATOM     28  C   LIG    1       26.034 -27.069  13.336  0.00  0.00    +0.105 C 
ATOM     29  C   LIG    1       21.906 -26.401  13.328  0.00  0.00    +0.047 A 
ATOM     30  C   LIG    1       20.997 -27.400  12.982  0.00  0.00    +0.007 A 
ATOM     31  C   LIG    1       25.150 -28.245  13.257  0.00  0.00    +0.197 C 
ATOM     32  O   LIG    1       25.595 -29.363  13.488  0.00  0.00    -0.287 OA
ATOM     33  C   LIG    1       21.451 -28.666  12.595  0.00  0.00    +0.046 A 
BRANCH  27  34
ATOM     34  C   LIG    1       26.407 -24.729  13.819  0.00  0.00    +0.373 C 
ATOM     35  O   LIG    1       27.587 -24.736  13.592  0.00  0.00    -0.242 OA
BRANCH  34  36
ATOM     36  O   LIG    1       25.752 -23.664  14.349  0.00  0.00    -0.475 OA
ATOM     37  H   LIG    1       24.878 -23.510  13.947  0.00  0.00    +0.295 HD
ENDBRANCH  34  36
ENDBRANCH  27  34
ENDBRANCH  22  23
ENDBRANCH  21  22
ENDBRANCH   1  21
TORSDOF 11
ENDMDL
MODEL 7
REMARK VINA RESULT:      -7.5      4.508      8.836
REMARK  Name = *****
REMARK                            x       y       z     vdW  Elec       q    Type
REMARK                         _______ _______ _______ _____ _____    ______ ____
ROOT
ATOM      1  C   LIG    1       22.631 -32.174  11.159  0.00  0.00    +0.189 C 
ENDROOT
BRANCH   1   2
ATOM      2  O   LIG    1       21.761 -33.290  10.922  0.00  0.00    -0.385 OA
ATOM      3  H   LIG    1       20.927 -32.927  10.561  0.00  0.00    +0.210 HD
ENDBRANCH   1   2
BRANCH   1   4
ATOM      4  C   LIG    1       22.178 -31.377  12.403  0.00  0.00    +0.263 C 
BRANCH   4   5
ATOM      5  O   LIG    1       23.126 -30.390  12.836  0.00  0.00    -0.488 OA
BRANCH   5  10
ATOM      6  C   LIG    1       25.575 -26.035  13.688  0.00  0.00    +0.215 C 
ATOM      7  O   LIG    1       24.225 -25.732  13.545  0.00  0.00    -0.448 OA
ATOM      8  C   LIG    1       23.333 -26.763  13.343  0.00  0.00    +0.143 A 
ATOM      9  C   LIG    1       23.701 -28.111  13.265  0.00  0.00    +0.105 A 
ATOM     10  C   LIG    1       22.722 -29.092  13.018  0.00  0.00    +0.135 A 
ATOM     11  C   LIG    1       21.382 -28.684  12.939  0.00  0.00    +0.046 A 
ATOM     12  C   LIG    1       21.020 -27.342  13.045  0.00  0.00    +0.007 A 
ATOM     13  C   LIG    1       25.132 -28.436  13.482  0.00  0.00    +0.197 C 
ATOM     14  O   LIG    1       25.587 -29.561  13.566  0.00  0.00    -0.287 OA
ATOM     15  C   LIG    1       21.997 -26.375  13.228  0.00  0.00    +0.047 A 
ATOM     16  C   LIG    1       26.046 -27.276  13.661  0.00  0.00    +0.105 C 
BRANCH   6  18
ATOM     17  O   LIG    1       26.173 -23.855  14.484  0.00  0.00    -0.242 OA
ATOM     18  C   LIG    1       26.468 -24.872  13.910  0.00  0.00    +0.373 C 
BRANCH  18  19
ATOM     19  O   LIG    1       27.697 -25.045  13.365  0.00  0.00    -0.475 OA
ATOM     20  H   LIG    1       27.860 -25.997  13.489  0.00  0.00    +0.295 HD
ENDBRANCH  18  19
ENDBRANCH   6  18
ENDBRANCH   5  10
ENDBRANCH   4   5
ENDBRANCH   1   4
BRANCH   1  21
ATOM     21  C   LIG    1       22.692 -31.267   9.921  0.00  0.00    +0.263 C 
BRANCH  21  22
ATOM     22  O   LIG    1       23.880 -31.550   9.164  0.00  0.00    -0.488 OA
BRANCH  22  23
ATOM     23  C   LIG    1       24.893 -30.625   9.239  0.00  0.00    +0.135 A 
ATOM     24  C   LIG    1       24.966 -29.641   8.236  0.00  0.00    +0.105 A 
ATOM     25  C   LIG    1       25.850 -28.562   8.352  0.00  0.00    +0.143 A 
ATOM     26  O   LIG    1       25.907 -27.533   7.440  0.00  0.00    -0.448 OA
ATOM     27  C   LIG    1       24.948 -27.505   6.439  0.00  0.00    +0.215 C 
ATOM     28  C   LIG    1       24.084 -28.497   6.190  0.00  0.00    +0.105 C 
ATOM     29  C   LIG    1       26.743 -28.503   9.418  0.00  0.00    +0.047 A 
ATOM     30  C   LIG    1       26.732 -29.512  10.381  0.00  0.00    +0.007 A 
ATOM     31  C   LIG    1       24.206 -29.738   6.975  0.00  0.00    +0.197 C 
ATOM     32  O   LIG    1       23.782 -30.794   6.521  0.00  0.00    -0.287 OA
ATOM     33  C   LIG    1       25.798 -30.551  10.307  0.00  0.00    +0.046 A 
BRANCH  27  34
ATOM     34  C   LIG    1       24.914 -26.328   5.517  0.00  0.00    +0.373 C 
ATOM     35  O   LIG    1       25.874 -25.835   4.988  0.00  0.00    -0.242 OA
BRANCH  34  36
ATOM     36  O   LIG    1       23.647 -25.863   5.354  0.00  0.00    -0.475 OA
ATOM     37  H   LIG    1       23.147 -25.809   6.187  0.00  0.00    +0.295 HD
ENDBRANCH  34  36
ENDBRANCH  27  34
ENDBRANCH  22  23
ENDBRANCH  21  22
ENDBRANCH   1  21
TORSDOF 11
ENDMDL
MODEL 8
REMARK VINA RESULT:      -7.5      1.561      1.947
REMARK  Name = *****
REMARK                            x       y       z     vdW  Elec       q    Type
REMARK                         _______ _______ _______ _____ _____    ______ ____
ROOT
ATOM      1  C   LIG    1       25.878 -26.134   6.477  0.00  0.00    +0.189 C 
ENDROOT
BRANCH   1   2
ATOM      2  O   LIG    1       27.044 -26.515   5.731  0.00  0.00    -0.385 OA
ATOM      3  H   LIG    1       27.315 -27.396   6.058  0.00  0.00    +0.210 HD
ENDBRANCH   1   2
BRANCH   1   4
ATOM      4  C   LIG    1       24.915 -27.331   6.642  0.00  0.00    +0.263 C 
BRANCH   4   5
ATOM      5  O   LIG    1       25.566 -28.553   7.020  0.00  0.00    -0.488 OA
BRANCH   5  10
ATOM      6  C   LIG    1       23.695 -32.189  10.013  0.00  0.00    +0.215 C 
ATOM      7  O   LIG    1       24.600 -31.452  10.770  0.00  0.00    -0.448 OA
ATOM      8  C   LIG    1       25.222 -30.369  10.187  0.00  0.00    +0.143 A 
ATOM      9  C   LIG    1       25.005 -29.960   8.867  0.00  0.00    +0.105 A 
ATOM     10  C   LIG    1       25.716 -28.862   8.347  0.00  0.00    +0.135 A 
ATOM     11  C   LIG    1       26.568 -28.157   9.211  0.00  0.00    +0.046 A 
ATOM     12  C   LIG    1       26.759 -28.554  10.533  0.00  0.00    +0.007 A 
ATOM     13  C   LIG    1       23.993 -30.709   8.084  0.00  0.00    +0.197 C 
ATOM     14  O   LIG    1       23.606 -30.404   6.972  0.00  0.00    -0.287 OA
ATOM     15  C   LIG    1       26.100 -29.673  11.020  0.00  0.00    +0.047 A 
ATOM     16  C   LIG    1       23.384 -31.886   8.759  0.00  0.00    +0.105 C 
BRANCH   6  18
ATOM     17  O   LIG    1       21.997 -33.825  10.445  0.00  0.00    -0.242 OA
ATOM     18  C   LIG    1       23.064 -33.334  10.713  0.00  0.00    +0.373 C 
BRANCH  18  19
ATOM     19  O   LIG    1       23.811 -33.791  11.748  0.00  0.00    -0.475 OA
ATOM     20  H   LIG    1       23.812 -33.039  12.367  0.00  0.00    +0.295 HD
ENDBRANCH  18  19
ENDBRANCH   6  18
ENDBRANCH   5  10
ENDBRANCH   4   5
ENDBRANCH   1   4
BRANCH   1  21
ATOM     21  C   LIG    1       25.170 -24.951   5.802  0.00  0.00    +0.263 C 
BRANCH  21  22
ATOM     22  O   LIG    1       25.173 -23.813   6.678  0.00  0.00    -0.488 OA
BRANCH  22  23
ATOM     23  C   LIG    1       25.265 -22.577   6.082  0.00  0.00    +0.135 A 
ATOM     24  C   LIG    1       26.277 -21.705   6.524  0.00  0.00    +0.105 A 
ATOM     25  C   LIG    1       26.547 -20.514   5.839  0.00  0.00    +0.143 A 
ATOM     26  O   LIG    1       27.574 -19.664   6.181  0.00  0.00    -0.448 OA
ATOM     27  C   LIG    1       28.457 -20.083   7.165  0.00  0.00    +0.215 C 
ATOM     28  C   LIG    1       28.281 -21.169   7.927  0.00  0.00    +0.105 C 
ATOM     29  C   LIG    1       25.748 -20.131   4.765  0.00  0.00    +0.047 A 
ATOM     30  C   LIG    1       24.695 -20.951   4.364  0.00  0.00    +0.007 A 
ATOM     31  C   LIG    1       27.030 -21.932   7.773  0.00  0.00    +0.197 C 
ATOM     32  O   LIG    1       26.616 -22.623   8.695  0.00  0.00    -0.287 OA
ATOM     33  C   LIG    1       24.470 -22.177   5.001  0.00  0.00    +0.046 A 
BRANCH  27  34
ATOM     34  C   LIG    1       29.651 -19.232   7.459  0.00  0.00    +0.373 C 
ATOM     35  O   LIG    1       29.755 -18.487   8.396  0.00  0.00    -0.242 OA
BRANCH  34  36
ATOM     36  O   LIG    1       30.619 -19.395   6.520  0.00  0.00    -0.475 OA
ATOM     37  H   LIG    1       31.318 -18.718   6.566  0.00  0.00    +0.295 HD
ENDBRANCH  34  36
ENDBRANCH  27  34
ENDBRANCH  22  23
ENDBRANCH  21  22
ENDBRANCH   1  21
TORSDOF 11
ENDMDL
MODEL 9
REMARK VINA RESULT:      -7.5      4.581      7.816
REMARK  Name = *****
REMARK                            x       y       z     vdW  Elec       q    Type
REMARK                         _______ _______ _______ _____ _____    ______ ____
ROOT
ATOM      1  C   LIG    1       25.481 -31.640  11.823  0.00  0.00    +0.189 C 
ENDROOT
BRANCH   1   2
ATOM      2  O   LIG    1       26.637 -30.790  11.879  0.00  0.00    -0.385 OA
ATOM      3  H   LIG    1       26.935 -30.778  12.810  0.00  0.00    +0.210 HD
ENDBRANCH   1   2
BRANCH   1   4
ATOM      4  C   LIG    1       25.416 -32.394  10.476  0.00  0.00    +0.263 C 
BRANCH   4   5
ATOM      5  O   LIG    1       25.931 -31.644   9.366  0.00  0.00    -0.488 OA
BRANCH   5  10
ATOM      6  C   LIG    1       25.036 -27.704   6.307  0.00  0.00    +0.215 C 
ATOM      7  O   LIG    1       24.378 -28.805   5.770  0.00  0.00    -0.448 OA
ATOM      8  C   LIG    1       24.435 -30.005   6.446  0.00  0.00    +0.143 A 
ATOM      9  C   LIG    1       25.124 -30.192   7.649  0.00  0.00    +0.105 A 
ATOM     10  C   LIG    1       25.158 -31.465   8.249  0.00  0.00    +0.135 A 
ATOM     11  C   LIG    1       24.418 -32.497   7.650  0.00  0.00    +0.046 A 
ATOM     12  C   LIG    1       23.712 -32.296   6.465  0.00  0.00    +0.007 A 
ATOM     13  C   LIG    1       25.770 -29.000   8.251  0.00  0.00    +0.197 C 
ATOM     14  O   LIG    1       26.300 -28.972   9.346  0.00  0.00    -0.287 OA
ATOM     15  C   LIG    1       23.734 -31.054   5.849  0.00  0.00    +0.047 A 
ATOM     16  C   LIG    1       25.701 -27.746   7.455  0.00  0.00    +0.105 C 
BRANCH   6  18
ATOM     17  O   LIG    1       25.833 -25.851   5.012  0.00  0.00    -0.242 OA
ATOM     18  C   LIG    1       24.921 -26.450   5.523  0.00  0.00    +0.373 C 
BRANCH  18  19
ATOM     19  O   LIG    1       23.646 -25.996   5.446  0.00  0.00    -0.475 OA
ATOM     20  H   LIG    1       23.145 -26.664   5.947  0.00  0.00    +0.295 HD
ENDBRANCH  18  19
ENDBRANCH   6  18
ENDBRANCH   5  10
ENDBRANCH   4   5
ENDBRANCH   1   4
BRANCH   1  21
ATOM     21  C   LIG    1       24.201 -30.822  12.054  0.00  0.00    +0.263 C 
BRANCH  21  22
ATOM     22  O   LIG    1       24.451 -29.434  11.785  0.00  0.00    -0.488 OA
BRANCH  22  23
ATOM     23  C   LIG    1       23.667 -28.525  12.454  0.00  0.00    +0.135 A 
ATOM     24  C   LIG    1       24.300 -27.423  13.057  0.00  0.00    +0.105 A 
ATOM     25  C   LIG    1       23.550 -26.368  13.589  0.00  0.00    +0.143 A 
ATOM     26  O   LIG    1       24.118 -25.232  14.120  0.00  0.00    -0.448 OA
ATOM     27  C   LIG    1       25.490 -25.078  13.994  0.00  0.00    +0.215 C 
ATOM     28  C   LIG    1       26.321 -26.031  13.554  0.00  0.00    +0.105 C 
ATOM     29  C   LIG    1       22.160 -26.444  13.617  0.00  0.00    +0.047 A 
ATOM     30  C   LIG    1       21.522 -27.565  13.089  0.00  0.00    +0.007 A 
ATOM     31  C   LIG    1       25.761 -27.361  13.258  0.00  0.00    +0.197 C 
ATOM     32  O   LIG    1       26.481 -28.351  13.293  0.00  0.00    -0.287 OA
ATOM     33  C   LIG    1       22.267 -28.587  12.489  0.00  0.00    +0.046 A 
BRANCH  27  34
ATOM     34  C   LIG    1       26.108 -23.794  14.448  0.00  0.00    +0.373 C 
ATOM     35  O   LIG    1       25.503 -22.788  14.702  0.00  0.00    -0.242 OA
BRANCH  34  36
ATOM     36  O   LIG    1       27.460 -23.897  14.529  0.00  0.00    -0.475 OA
ATOM     37  H   LIG    1       27.925 -23.464  13.790  0.00  0.00    +0.295 HD
ENDBRANCH  34  36
ENDBRANCH  27  34
ENDBRANCH  22  23
ENDBRANCH  21  22
ENDBRANCH   1  21
TORSDOF 11
ENDMDL
