MODEL 1
REMARK VINA RESULT:      -9.0      0.000      0.000
REMARK  Name = *****
REMARK                            x       y       z     vdW  Elec       q    Type
REMARK                         _______ _______ _______ _____ _____    ______ ____
ROOT
ATOM      1  C   LIG    1       29.600 -20.818   7.934  0.00  0.00    +0.125 A 
ATOM      2  C   LIG    1       29.892 -19.965   6.869  0.00  0.00    +0.071 A 
ATOM      3 CL   LIG    1       31.396 -19.138   6.691  0.00  0.00    -0.081 Cl
ATOM      4  C   LIG    1       28.926 -19.744   5.872  0.00  0.00    +0.073 A 
ATOM      5  C   LIG    1       27.677 -20.375   5.918  0.00  0.00    +0.149 A 
ATOM      6  N   LIG    1       26.708 -20.103   4.959  0.00  0.00    -0.200 N 
ATOM      7  H   LIG    1       26.997 -19.622   4.109  0.00  0.00    +0.298 HD
ATOM      8  C   LIG    1       25.440 -20.633   4.964  0.00  0.00    +0.328 C 
ATOM      9  N   LIG    1       24.932 -21.427   5.849  0.00  0.00    +0.091 NA
ATOM     10  S   LIG    1       25.827 -21.977   7.080  0.00  0.00    +0.182 S 
ATOM     11  O   LIG    1       26.082 -23.390   6.871  0.00  0.00    -0.125 OA
ATOM     12  O   LIG    1       25.246 -21.512   8.325  0.00  0.00    -0.125 OA
ATOM     13  C   LIG    1       27.412 -21.207   6.993  0.00  0.00    +0.181 A 
ATOM     14  C   LIG    1       28.352 -21.448   7.999  0.00  0.00    +0.065 A 
ENDROOT
BRANCH   1  15
ATOM     15  S   LIG    1       30.783 -21.080   9.214  0.00  0.00    +0.057 S 
ATOM     16  O   LIG    1       31.156 -19.806   9.771  0.00  0.00    -0.153 OA
ATOM     17  O   LIG    1       30.355 -22.213  10.010  0.00  0.00    -0.153 OA
BRANCH  15  18
ATOM     18  N   LIG    1       32.152 -21.623   8.400  0.00  0.00    -0.203 NA
ATOM     19  H   LIG    1       31.881 -22.256   7.647  0.00  0.00    +0.144 HD
ATOM     20  H   LIG    1       32.710 -20.826   8.091  0.00  0.00    +0.144 HD
ENDBRANCH  15  18
ENDBRANCH   1  15
BRANCH   8  21
ATOM     21  C   LIG    1       24.493 -20.195   3.830  0.00  0.00    +0.200 C 
BRANCH  21  22
ATOM     22  S   LIG    1       24.127 -18.399   3.932  0.00  0.00    -0.144 S 
BRANCH  22  23
ATOM     23  C   LIG    1       25.637 -17.687   3.175  0.00  0.00    +0.104 C 
BRANCH  23  24
ATOM     24  C   LIG    1       25.841 -16.231   3.510  0.00  0.00    -0.037 A 
ATOM     25  C   LIG    1       27.124 -15.662   3.529  0.00  0.00    +0.004 A 
ATOM     26  C   LIG    1       27.310 -14.346   3.960  0.00  0.00    +0.000 A 
ATOM     27  C   LIG    1       26.218 -13.576   4.355  0.00  0.00    +0.000 A 
ATOM     28  C   LIG    1       24.934 -14.112   4.288  0.00  0.00    +0.000 A 
ATOM     29  C   LIG    1       24.745 -15.428   3.863  0.00  0.00    +0.004 A 
ENDBRANCH  23  24
ENDBRANCH  22  23
ENDBRANCH  21  22
ENDBRANCH   8  21
TORSDOF 6
ENDMDL
MODEL 2
REMARK VINA RESULT:      -8.9      3.688      7.017
REMARK  Name = *****
REMARK                            x       y       z     vdW  Elec       q    Type
REMARK                         _______ _______ _______ _____ _____    ______ ____
ROOT
ATOM      1  C   LIG    1       24.676 -20.309   5.091  0.00  0.00    +0.125 A 
ATOM      2  C   LIG    1       25.690 -19.604   4.441  0.00  0.00    +0.071 A 
ATOM      3 CL   LIG    1       25.459 -18.742   2.964  0.00  0.00    -0.081 Cl
ATOM      4  C   LIG    1       26.982 -19.579   4.993  0.00  0.00    +0.073 A 
ATOM      5  C   LIG    1       27.271 -20.238   6.193  0.00  0.00    +0.149 A 
ATOM      6  N   LIG    1       28.566 -20.256   6.699  0.00  0.00    -0.200 N 
ATOM      7  H   LIG    1       29.242 -19.602   6.310  0.00  0.00    +0.298 HD
ATOM      8  C   LIG    1       28.946 -20.927   7.838  0.00  0.00    +0.328 C 
ATOM      9  N   LIG    1       28.197 -21.660   8.595  0.00  0.00    +0.091 NA
ATOM     10  S   LIG    1       26.613 -21.804   8.304  0.00  0.00    +0.182 S 
ATOM     11  O   LIG    1       25.886 -21.093   9.338  0.00  0.00    -0.125 OA
ATOM     12  O   LIG    1       26.314 -23.195   8.020  0.00  0.00    -0.125 OA
ATOM     13  C   LIG    1       26.248 -20.939   6.810  0.00  0.00    +0.181 A 
ATOM     14  C   LIG    1       24.952 -20.981   6.287  0.00  0.00    +0.065 A 
ENDROOT
BRANCH   1  15
ATOM     15  S   LIG    1       23.057 -20.384   4.397  0.00  0.00    +0.057 S 
ATOM     16  O   LIG    1       22.394 -19.127   4.629  0.00  0.00    -0.153 OA
ATOM     17  O   LIG    1       23.143 -21.021   3.099  0.00  0.00    -0.153 OA
BRANCH  15  18
ATOM     18  N   LIG    1       22.247 -21.494   5.366  0.00  0.00    -0.203 NA
ATOM     19  H   LIG    1       22.174 -22.390   4.883  0.00  0.00    +0.144 HD
ATOM     20  H   LIG    1       22.699 -21.552   6.280  0.00  0.00    +0.144 HD
ENDBRANCH  15  18
ENDBRANCH   1  15
BRANCH   8  21
ATOM     21  C   LIG    1       30.435 -20.854   8.230  0.00  0.00    +0.200 C 
BRANCH  21  22
ATOM     22  S   LIG    1       31.176 -19.256   7.716  0.00  0.00    -0.144 S 
BRANCH  22  23
ATOM     23  C   LIG    1       30.251 -18.080   8.774  0.00  0.00    +0.104 C 
BRANCH  23  24
ATOM     24  C   LIG    1       31.123 -17.372   9.780  0.00  0.00    -0.037 A 
ATOM     25  C   LIG    1       30.794 -17.359  11.145  0.00  0.00    +0.004 A 
ATOM     26  C   LIG    1       31.542 -16.597  12.047  0.00  0.00    +0.000 A 
ATOM     27  C   LIG    1       32.639 -15.861  11.603  0.00  0.00    +0.000 A 
ATOM     28  C   LIG    1       33.008 -15.911  10.261  0.00  0.00    +0.000 A 
ATOM     29  C   LIG    1       32.260 -16.666   9.357  0.00  0.00    +0.004 A 
ENDBRANCH  23  24
ENDBRANCH  22  23
ENDBRANCH  21  22
ENDBRANCH   8  21
TORSDOF 6
ENDMDL
MODEL 3
REMARK VINA RESULT:      -8.7      3.407      6.362
REMARK  Name = *****
REMARK                            x       y       z     vdW  Elec       q    Type
REMARK                         _______ _______ _______ _____ _____    ______ ____
ROOT
ATOM      1  C   LIG    1       29.374 -19.438   7.356  0.00  0.00    +0.125 A 
ATOM      2  C   LIG    1       29.021 -19.199   6.026  0.00  0.00    +0.071 A 
ATOM      3 CL   LIG    1       30.062 -18.428   4.886  0.00  0.00    -0.081 Cl
ATOM      4  C   LIG    1       27.755 -19.593   5.564  0.00  0.00    +0.073 A 
ATOM      5  C   LIG    1       26.840 -20.235   6.407  0.00  0.00    +0.149 A 
ATOM      6  N   LIG    1       25.569 -20.566   5.954  0.00  0.00    -0.200 N 
ATOM      7  H   LIG    1       25.395 -20.542   4.951  0.00  0.00    +0.298 HD
ATOM      8  C   LIG    1       24.592 -21.143   6.732  0.00  0.00    +0.328 C 
ATOM      9  N   LIG    1       24.674 -21.441   7.987  0.00  0.00    +0.091 NA
ATOM     10  S   LIG    1       26.053 -21.223   8.803  0.00  0.00    +0.182 S 
ATOM     11  O   LIG    1       26.625 -22.523   9.101  0.00  0.00    -0.125 OA
ATOM     12  O   LIG    1       25.822 -20.262   9.865  0.00  0.00    -0.125 OA
ATOM     13  C   LIG    1       27.214 -20.449   7.723  0.00  0.00    +0.181 A 
ATOM     14  C   LIG    1       28.467 -20.070   8.214  0.00  0.00    +0.065 A 
ENDROOT
BRANCH   1  15
ATOM     15  S   LIG    1       30.944 -18.920   7.967  0.00  0.00    +0.057 S 
ATOM     16  O   LIG    1       31.977 -19.590   7.221  0.00  0.00    -0.153 OA
ATOM     17  O   LIG    1       30.905 -17.487   8.179  0.00  0.00    -0.153 OA
BRANCH  15  18
ATOM     18  N   LIG    1       31.019 -19.580   9.513  0.00  0.00    -0.203 NA
ATOM     19  H   LIG    1       30.126 -20.013   9.750  0.00  0.00    +0.144 HD
ATOM     20  H   LIG    1       31.818 -20.212   9.582  0.00  0.00    +0.144 HD
ENDBRANCH  15  18
ENDBRANCH   1  15
BRANCH   8  21
ATOM     21  C   LIG    1       23.232 -21.415   6.062  0.00  0.00    +0.200 C 
BRANCH  21  22
ATOM     22  S   LIG    1       22.849 -23.210   6.045  0.00  0.00    -0.144 S 
BRANCH  22  23
ATOM     23  C   LIG    1       24.412 -23.898   5.379  0.00  0.00    +0.104 C 
BRANCH  23  24
ATOM     24  C   LIG    1       24.737 -25.268   5.919  0.00  0.00    -0.037 A 
ATOM     25  C   LIG    1       25.781 -25.458   6.838  0.00  0.00    +0.004 A 
ATOM     26  C   LIG    1       26.150 -26.747   7.235  0.00  0.00    +0.000 A 
ATOM     27  C   LIG    1       25.467 -27.856   6.740  0.00  0.00    +0.000 A 
ATOM     28  C   LIG    1       24.393 -27.676   5.872  0.00  0.00    +0.000 A 
ATOM     29  C   LIG    1       24.026 -26.391   5.469  0.00  0.00    +0.004 A 
ENDBRANCH  23  24
ENDBRANCH  22  23
ENDBRANCH  21  22
ENDBRANCH   8  21
TORSDOF 6
ENDMDL
MODEL 4
REMARK VINA RESULT:      -8.5      1.147      1.761
REMARK  Name = *****
REMARK                            x       y       z     vdW  Elec       q    Type
REMARK                         _______ _______ _______ _____ _____    ______ ____
ROOT
ATOM      1  C   LIG    1       29.828 -20.992   8.108  0.00  0.00    +0.125 A 
ATOM      2  C   LIG    1       29.985 -20.098   7.048  0.00  0.00    +0.071 A 
ATOM      3 CL   LIG    1       31.443 -19.228   6.740  0.00  0.00    -0.081 Cl
ATOM      4  C   LIG    1       28.914 -19.870   6.168  0.00  0.00    +0.073 A 
ATOM      5  C   LIG    1       27.691 -20.533   6.325  0.00  0.00    +0.149 A 
ATOM      6  N   LIG    1       26.619 -20.256   5.484  0.00  0.00    -0.200 N 
ATOM      7  H   LIG    1       26.804 -19.740   4.626  0.00  0.00    +0.298 HD
ATOM      8  C   LIG    1       25.370 -20.818   5.606  0.00  0.00    +0.328 C 
ATOM      9  N   LIG    1       24.978 -21.653   6.512  0.00  0.00    +0.091 NA
ATOM     10  S   LIG    1       26.012 -22.219   7.620  0.00  0.00    +0.182 S 
ATOM     11  O   LIG    1       26.274 -23.617   7.336  0.00  0.00    -0.125 OA
ATOM     12  O   LIG    1       25.557 -21.809   8.935  0.00  0.00    -0.125 OA
ATOM     13  C   LIG    1       27.561 -21.407   7.392  0.00  0.00    +0.181 A 
ATOM     14  C   LIG    1       28.609 -21.656   8.283  0.00  0.00    +0.065 A 
ENDROOT
BRANCH   1  15
ATOM     15  S   LIG    1       31.147 -21.266   9.245  0.00  0.00    +0.057 S 
ATOM     16  O   LIG    1       31.901 -20.047   9.384  0.00  0.00    -0.153 OA
ATOM     17  O   LIG    1       30.637 -22.029  10.365  0.00  0.00    -0.153 OA
BRANCH  15  18
ATOM     18  N   LIG    1       32.171 -22.327   8.435  0.00  0.00    -0.203 NA
ATOM     19  H   LIG    1       31.628 -22.929   7.814  0.00  0.00    +0.144 HD
ATOM     20  H   LIG    1       32.910 -21.804   7.963  0.00  0.00    +0.144 HD
ENDBRANCH  15  18
ENDBRANCH   1  15
BRANCH   8  21
ATOM     21  C   LIG    1       24.298 -20.367   4.595  0.00  0.00    +0.200 C 
BRANCH  21  22
ATOM     22  S   LIG    1       22.826 -19.686   5.453  0.00  0.00    -0.144 S 
BRANCH  22  23
ATOM     23  C   LIG    1       22.273 -18.416   4.253  0.00  0.00    +0.104 C 
BRANCH  23  24
ATOM     24  C   LIG    1       23.193 -17.223   4.182  0.00  0.00    -0.037 A 
ATOM     25  C   LIG    1       22.764 -15.948   4.581  0.00  0.00    +0.004 A 
ATOM     26  C   LIG    1       23.585 -14.832   4.394  0.00  0.00    +0.000 A 
ATOM     27  C   LIG    1       24.851 -14.980   3.831  0.00  0.00    +0.000 A 
ATOM     28  C   LIG    1       25.310 -16.248   3.483  0.00  0.00    +0.000 A 
ATOM     29  C   LIG    1       24.491 -17.363   3.662  0.00  0.00    +0.004 A 
ENDBRANCH  23  24
ENDBRANCH  22  23
ENDBRANCH  21  22
ENDBRANCH   8  21
TORSDOF 6
ENDMDL
MODEL 5
REMARK VINA RESULT:      -8.4      7.861      9.754
REMARK  Name = *****
REMARK                            x       y       z     vdW  Elec       q    Type
REMARK                         _______ _______ _______ _____ _____    ______ ____
ROOT
ATOM      1  C   LIG    1       25.172 -31.157   9.785  0.00  0.00    +0.125 A 
ATOM      2  C   LIG    1       25.860 -30.124  10.425  0.00  0.00    +0.071 A 
ATOM      3 CL   LIG    1       26.311 -30.166  12.090  0.00  0.00    -0.081 Cl
ATOM      4  C   LIG    1       26.213 -28.974   9.701  0.00  0.00    +0.073 A 
ATOM      5  C   LIG    1       25.902 -28.845   8.343  0.00  0.00    +0.149 A 
ATOM      6  N   LIG    1       26.204 -27.678   7.651  0.00  0.00    -0.200 N 
ATOM      7  H   LIG    1       26.849 -27.019   8.083  0.00  0.00    +0.298 HD
ATOM      8  C   LIG    1       25.881 -27.449   6.335  0.00  0.00    +0.328 C 
ATOM      9  N   LIG    1       25.234 -28.240   5.544  0.00  0.00    +0.091 NA
ATOM     10  S   LIG    1       24.780 -29.713   6.034  0.00  0.00    +0.182 S 
ATOM     11  O   LIG    1       25.586 -30.700   5.342  0.00  0.00    -0.125 OA
ATOM     12  O   LIG    1       23.332 -29.792   5.998  0.00  0.00    -0.125 OA
ATOM     13  C   LIG    1       25.210 -29.882   7.737  0.00  0.00    +0.181 A 
ATOM     14  C   LIG    1       24.845 -31.040   8.429  0.00  0.00    +0.065 A 
ENDROOT
BRANCH   1  15
ATOM     15  S   LIG    1       24.687 -32.594  10.683  0.00  0.00    +0.057 S 
ATOM     16  O   LIG    1       25.867 -33.333  11.051  0.00  0.00    -0.153 OA
ATOM     17  O   LIG    1       23.646 -32.221  11.620  0.00  0.00    -0.153 OA
BRANCH  15  18
ATOM     18  N   LIG    1       23.910 -33.550   9.538  0.00  0.00    -0.203 NA
ATOM     19  H   LIG    1       24.309 -33.380   8.614  0.00  0.00    +0.144 HD
ATOM     20  H   LIG    1       23.935 -34.528   9.826  0.00  0.00    +0.144 HD
ENDBRANCH  15  18
ENDBRANCH   1  15
BRANCH   8  21
ATOM     21  C   LIG    1       26.275 -26.081   5.745  0.00  0.00    +0.200 C 
BRANCH  21  22
ATOM     22  S   LIG    1       24.824 -25.239   5.000  0.00  0.00    -0.144 S 
BRANCH  22  23
ATOM     23  C   LIG    1       23.896 -24.739   6.500  0.00  0.00    +0.104 C 
BRANCH  23  24
ATOM     24  C   LIG    1       24.222 -23.342   6.964  0.00  0.00    -0.037 A 
ATOM     25  C   LIG    1       23.275 -22.310   6.885  0.00  0.00    +0.004 A 
ATOM     26  C   LIG    1       23.629 -20.996   7.202  0.00  0.00    +0.000 A 
ATOM     27  C   LIG    1       24.924 -20.701   7.623  0.00  0.00    +0.000 A 
ATOM     28  C   LIG    1       25.858 -21.726   7.760  0.00  0.00    +0.000 A 
ATOM     29  C   LIG    1       25.509 -23.038   7.438  0.00  0.00    +0.004 A 
ENDBRANCH  23  24
ENDBRANCH  22  23
ENDBRANCH  21  22
ENDBRANCH   8  21
TORSDOF 6
ENDMDL
MODEL 6
REMARK VINA RESULT:      -8.3      8.012      9.778
REMARK  Name = *****
REMARK                            x       y       z     vdW  Elec       q    Type
REMARK                         _______ _______ _______ _____ _____    ______ ____
ROOT
ATOM      1  C   LIG    1       26.029 -30.015  11.319  0.00  0.00    +0.125 A 
ATOM      2  C   LIG    1       26.559 -28.757  11.029  0.00  0.00    +0.071 A 
ATOM      3 CL   LIG    1       27.318 -27.746  12.204  0.00  0.00    -0.081 Cl
ATOM      4  C   LIG    1       26.481 -28.257   9.719  0.00  0.00    +0.073 A 
ATOM      5  C   LIG    1       25.893 -29.002   8.690  0.00  0.00    +0.149 A 
ATOM      6  N   LIG    1       25.768 -28.474   7.411  0.00  0.00    -0.200 N 
ATOM      7  H   LIG    1       26.307 -27.640   7.182  0.00  0.00    +0.298 HD
ATOM      8  C   LIG    1       25.153 -29.114   6.361  0.00  0.00    +0.328 C 
ATOM      9  N   LIG    1       24.576 -30.270   6.387  0.00  0.00    +0.091 NA
ATOM     10  S   LIG    1       24.590 -31.174   7.729  0.00  0.00    +0.182 S 
ATOM     11  O   LIG    1       25.461 -32.313   7.509  0.00  0.00    -0.125 OA
ATOM     12  O   LIG    1       23.224 -31.370   8.175  0.00  0.00    -0.125 OA
ATOM     13  C   LIG    1       25.366 -30.243   9.010  0.00  0.00    +0.181 A 
ATOM     14  C   LIG    1       25.430 -30.769  10.304  0.00  0.00    +0.065 A 
ENDROOT
BRANCH   1  15
ATOM     15  S   LIG    1       26.084 -30.647  12.964  0.00  0.00    +0.057 S 
ATOM     16  O   LIG    1       27.456 -30.703  13.395  0.00  0.00    -0.153 OA
ATOM     17  O   LIG    1       25.024 -30.023  13.731  0.00  0.00    -0.153 OA
BRANCH  15  18
ATOM     18  N   LIG    1       25.607 -32.252  12.803  0.00  0.00    -0.203 NA
ATOM     19  H   LIG    1       25.232 -32.411  11.867  0.00  0.00    +0.144 HD
ATOM     20  H   LIG    1       26.381 -32.870  13.050  0.00  0.00    +0.144 HD
ENDBRANCH  15  18
ENDBRANCH   1  15
BRANCH   8  21
ATOM     21  C   LIG    1       25.088 -28.358   5.020  0.00  0.00    +0.200 C 
BRANCH  21  22
ATOM     22  S   LIG    1       25.620 -26.613   5.219  0.00  0.00    -0.144 S 
BRANCH  22  23
ATOM     23  C   LIG    1       24.065 -25.832   5.795  0.00  0.00    +0.104 C 
BRANCH  23  24
ATOM     24  C   LIG    1       24.286 -24.520   6.505  0.00  0.00    -0.037 A 
ATOM     25  C   LIG    1       23.233 -23.613   6.702  0.00  0.00    +0.004 A 
ATOM     26  C   LIG    1       23.476 -22.351   7.251  0.00  0.00    +0.000 A 
ATOM     27  C   LIG    1       24.767 -21.988   7.629  0.00  0.00    +0.000 A 
ATOM     28  C   LIG    1       25.811 -22.900   7.490  0.00  0.00    +0.000 A 
ATOM     29  C   LIG    1       25.572 -24.159   6.938  0.00  0.00    +0.004 A 
ENDBRANCH  23  24
ENDBRANCH  22  23
ENDBRANCH  21  22
ENDBRANCH   8  21
TORSDOF 6
ENDMDL
MODEL 7
REMARK VINA RESULT:      -8.1      7.146      8.678
REMARK  Name = *****
REMARK                            x       y       z     vdW  Elec       q    Type
REMARK                         _______ _______ _______ _____ _____    ______ ____
ROOT
ATOM      1  C   LIG    1       25.988 -30.684   8.983  0.00  0.00    +0.125 A 
ATOM      2  C   LIG    1       26.551 -29.597   9.654  0.00  0.00    +0.071 A 
ATOM      3 CL   LIG    1       27.307 -29.717  11.201  0.00  0.00    -0.081 Cl
ATOM      4  C   LIG    1       26.512 -28.322   9.065  0.00  0.00    +0.073 A 
ATOM      5  C   LIG    1       25.929 -28.120   7.809  0.00  0.00    +0.149 A 
ATOM      6  N   LIG    1       25.843 -26.845   7.263  0.00  0.00    -0.200 N 
ATOM      7  H   LIG    1       26.405 -26.105   7.681  0.00  0.00    +0.298 HD
ATOM      8  C   LIG    1       25.236 -26.552   6.064  0.00  0.00    +0.328 C 
ATOM      9  N   LIG    1       24.633 -27.379   5.276  0.00  0.00    +0.091 NA
ATOM     10  S   LIG    1       24.600 -28.963   5.604  0.00  0.00    +0.182 S 
ATOM     11  O   LIG    1       25.450 -29.650   4.652  0.00  0.00    -0.125 OA
ATOM     12  O   LIG    1       23.220 -29.374   5.787  0.00  0.00    -0.125 OA
ATOM     13  C   LIG    1       25.369 -29.215   7.171  0.00  0.00    +0.181 A 
ATOM     14  C   LIG    1       25.394 -30.496   7.730  0.00  0.00    +0.065 A 
ENDROOT
BRANCH   1  15
ATOM     15  S   LIG    1       25.995 -32.286   9.719  0.00  0.00    +0.057 S 
ATOM     16  O   LIG    1       27.313 -32.850   9.593  0.00  0.00    -0.153 OA
ATOM     17  O   LIG    1       25.263 -32.220  10.968  0.00  0.00    -0.153 OA
BRANCH  15  18
ATOM     18  N   LIG    1       25.022 -33.207   8.702  0.00  0.00    -0.203 NA
ATOM     19  H   LIG    1       25.558 -33.509   7.887  0.00  0.00    +0.144 HD
ATOM     20  H   LIG    1       24.600 -33.974   9.227  0.00  0.00    +0.144 HD
ENDBRANCH  15  18
ENDBRANCH   1  15
BRANCH   8  21
ATOM     21  C   LIG    1       25.215 -25.072   5.633  0.00  0.00    +0.200 C 
BRANCH  21  22
ATOM     22  S   LIG    1       23.924 -24.137   6.542  0.00  0.00    -0.144 S 
BRANCH  22  23
ATOM     23  C   LIG    1       24.741 -22.508   6.740  0.00  0.00    +0.104 C 
BRANCH  23  24
ATOM     24  C   LIG    1       24.207 -21.456   5.801  0.00  0.00    -0.037 A 
ATOM     25  C   LIG    1       24.888 -21.122   4.620  0.00  0.00    +0.004 A 
ATOM     26  C   LIG    1       24.448 -20.062   3.822  0.00  0.00    +0.000 A 
ATOM     27  C   LIG    1       23.312 -19.340   4.181  0.00  0.00    +0.000 A 
ATOM     28  C   LIG    1       22.595 -19.698   5.321  0.00  0.00    +0.000 A 
ATOM     29  C   LIG    1       23.035 -20.752   6.122  0.00  0.00    +0.004 A 
ENDBRANCH  23  24
ENDBRANCH  22  23
ENDBRANCH  21  22
ENDBRANCH   8  21
TORSDOF 6
ENDMDL
MODEL 8
REMARK VINA RESULT:      -8.1      4.679      7.979
REMARK  Name = *****
REMARK                            x       y       z     vdW  Elec       q    Type
REMARK                         _______ _______ _______ _____ _____    ______ ____
ROOT
ATOM      1  C   LIG    1       28.664 -20.032   6.813  0.00  0.00    +0.125 A 
ATOM      2  C   LIG    1       28.943 -21.133   7.624  0.00  0.00    +0.071 A 
ATOM      3 CL   LIG    1       30.408 -21.316   8.516  0.00  0.00    -0.081 Cl
ATOM      4  C   LIG    1       28.000 -22.169   7.735  0.00  0.00    +0.073 A 
ATOM      5  C   LIG    1       26.776 -22.113   7.059  0.00  0.00    +0.149 A 
ATOM      6  N   LIG    1       25.876 -23.170   7.130  0.00  0.00    -0.200 N 
ATOM      7  H   LIG    1       26.019 -23.874   7.852  0.00  0.00    +0.298 HD
ATOM      8  C   LIG    1       24.681 -23.220   6.452  0.00  0.00    +0.328 C 
ATOM      9  N   LIG    1       24.214 -22.336   5.633  0.00  0.00    +0.091 NA
ATOM     10  S   LIG    1       25.006 -20.951   5.368  0.00  0.00    +0.182 S 
ATOM     11  O   LIG    1       24.260 -19.867   5.979  0.00  0.00    -0.125 OA
ATOM     12  O   LIG    1       25.382 -20.886   3.969  0.00  0.00    -0.125 OA
ATOM     13  C   LIG    1       26.531 -21.012   6.254  0.00  0.00    +0.181 A 
ATOM     14  C   LIG    1       27.448 -19.965   6.124  0.00  0.00    +0.065 A 
ENDROOT
BRANCH   1  15
ATOM     15  S   LIG    1       29.847 -18.738   6.631  0.00  0.00    +0.057 S 
ATOM     16  O   LIG    1       29.746 -17.852   7.761  0.00  0.00    -0.153 OA
ATOM     17  O   LIG    1       31.093 -19.317   6.171  0.00  0.00    -0.153 OA
BRANCH  15  18
ATOM     18  N   LIG    1       29.281 -17.847   5.321  0.00  0.00    -0.203 NA
ATOM     19  H   LIG    1       29.040 -18.474   4.552  0.00  0.00    +0.144 HD
ATOM     20  H   LIG    1       28.514 -17.242   5.618  0.00  0.00    +0.144 HD
ENDBRANCH  15  18
ENDBRANCH   1  15
BRANCH   8  21
ATOM     21  C   LIG    1       23.825 -24.489   6.633  0.00  0.00    +0.200 C 
BRANCH  21  22
ATOM     22  S   LIG    1       24.375 -25.825   5.501  0.00  0.00    -0.144 S 
BRANCH  22  23
ATOM     23  C   LIG    1       25.839 -26.468   6.398  0.00  0.00    +0.104 C 
BRANCH  23  24
ATOM     24  C   LIG    1       25.540 -27.696   7.221  0.00  0.00    -0.037 A 
ATOM     25  C   LIG    1       26.281 -27.995   8.375  0.00  0.00    +0.004 A 
ATOM     26  C   LIG    1       26.075 -29.198   9.057  0.00  0.00    +0.000 A 
ATOM     27  C   LIG    1       25.115 -30.103   8.610  0.00  0.00    +0.000 A 
ATOM     28  C   LIG    1       24.335 -29.792   7.499  0.00  0.00    +0.000 A 
ATOM     29  C   LIG    1       24.541 -28.594   6.812  0.00  0.00    +0.004 A 
ENDBRANCH  23  24
ENDBRANCH  22  23
ENDBRANCH  21  22
ENDBRANCH   8  21
TORSDOF 6
ENDMDL
MODEL 9
REMARK VINA RESULT:      -7.5      6.948      8.785
REMARK  Name = *****
REMARK                            x       y       z     vdW  Elec       q    Type
REMARK                         _______ _______ _______ _____ _____    ______ ____
ROOT
ATOM      1  C   LIG    1       25.009 -30.606   6.098  0.00  0.00    +0.125 A 
ATOM      2  C   LIG    1       24.579 -30.254   7.378  0.00  0.00    +0.071 A 
ATOM      3 CL   LIG    1       23.895 -31.374   8.498  0.00  0.00    -0.081 Cl
ATOM      4  C   LIG    1       24.694 -28.920   7.806  0.00  0.00    +0.073 A 
ATOM      5  C   LIG    1       25.243 -27.936   6.977  0.00  0.00    +0.149 A 
ATOM      6  N   LIG    1       25.297 -26.610   7.388  0.00  0.00    -0.200 N 
ATOM      7  H   LIG    1       25.142 -26.406   8.374  0.00  0.00    +0.298 HD
ATOM      8  C   LIG    1       25.766 -25.574   6.614  0.00  0.00    +0.328 C 
ATOM      9  N   LIG    1       26.198 -25.646   5.398  0.00  0.00    +0.091 NA
ATOM     10  S   LIG    1       26.311 -27.072   4.642  0.00  0.00    +0.182 S 
ATOM     11  O   LIG    1       27.715 -27.407   4.496  0.00  0.00    -0.125 OA
ATOM     12  O   LIG    1       25.435 -27.059   3.485  0.00  0.00    -0.125 OA
ATOM     13  C   LIG    1       25.651 -28.313   5.708  0.00  0.00    +0.181 A 
ATOM     14  C   LIG    1       25.552 -29.631   5.254  0.00  0.00    +0.065 A 
ENDROOT
BRANCH   1  15
ATOM     15  S   LIG    1       24.842 -32.266   5.528  0.00  0.00    +0.057 S 
ATOM     16  O   LIG    1       25.854 -33.076   6.154  0.00  0.00    -0.153 OA
ATOM     17  O   LIG    1       23.433 -32.607   5.512  0.00  0.00    -0.153 OA
BRANCH  15  18
ATOM     18  N   LIG    1       25.281 -32.187   3.906  0.00  0.00    -0.203 NA
ATOM     19  H   LIG    1       24.771 -32.893   3.373  0.00  0.00    +0.144 HD
ATOM     20  H   LIG    1       25.157 -31.236   3.558  0.00  0.00    +0.144 HD
ENDBRANCH  15  18
ENDBRANCH   1  15
BRANCH   8  21
ATOM     21  C   LIG    1       25.723 -24.163   7.232  0.00  0.00    +0.200 C 
BRANCH  21  22
ATOM     22  S   LIG    1       24.153 -23.307   6.817  0.00  0.00    -0.144 S 
BRANCH  22  23
ATOM     23  C   LIG    1       24.653 -21.551   6.979  0.00  0.00    +0.104 C 
BRANCH  23  24
ATOM     24  C   LIG    1       24.177 -20.690   5.837  0.00  0.00    -0.037 A 
ATOM     25  C   LIG    1       25.017 -20.388   4.754  0.00  0.00    +0.004 A 
ATOM     26  C   LIG    1       24.606 -19.489   3.766  0.00  0.00    +0.000 A 
ATOM     27  C   LIG    1       23.345 -18.901   3.834  0.00  0.00    +0.000 A 
ATOM     28  C   LIG    1       22.480 -19.236   4.873  0.00  0.00    +0.000 A 
ATOM     29  C   LIG    1       22.890 -20.128   5.865  0.00  0.00    +0.004 A 
ENDBRANCH  23  24
ENDBRANCH  22  23
ENDBRANCH  21  22
ENDBRANCH   8  21
TORSDOF 6
ENDMDL
