MODEL 1
REMARK VINA RESULT:      -7.7      0.000      0.000
REMARK  Name = *****
REMARK                            x       y       z     vdW  Elec       q    Type
REMARK                         _______ _______ _______ _____ _____    ______ ____
ROOT
ATOM      1  C   LIG    1       29.982 -21.192   8.385  0.00  0.00    +0.261 C 
ENDROOT
BRANCH   1   2
ATOM      2  O   LIG    1       29.012 -20.149   8.311  0.00  0.00    -0.488 OA
BRANCH   2   6
ATOM      3  C   LIG    1       24.417 -21.928   7.587  0.00  0.00    +0.044 C 
ATOM      4  C   LIG    1       25.643 -21.207   7.098  0.00  0.00    -0.047 A 
ATOM      5  C   LIG    1       26.749 -21.041   7.963  0.00  0.00    +0.050 A 
ATOM      6  C   LIG    1       27.898 -20.360   7.528  0.00  0.00    +0.139 A 
ATOM      7  C   LIG    1       27.914 -19.825   6.236  0.00  0.00    +0.083 A 
ATOM      8 CL   LIG    1       29.289 -18.970   5.630  0.00  0.00    -0.080 Cl
ATOM      9  C   LIG    1       26.813 -19.973   5.378  0.00  0.00    +0.024 A 
ATOM     10  C   LIG    1       25.683 -20.665   5.819  0.00  0.00    +0.005 A 
ENDBRANCH   2   6
ENDBRANCH   1   2
BRANCH   1  11
ATOM     11  C   LIG    1       31.413 -20.604   8.370  0.00  0.00    +0.166 C 
BRANCH  11  12
ATOM     12  O   LIG    1       32.241 -21.162   9.400  0.00  0.00    -0.387 OA
ATOM     13  H   LIG    1       33.159 -21.159   9.073  0.00  0.00    +0.210 HD
ENDBRANCH  11  12
BRANCH  11  14
ATOM     14  C   LIG    1       31.329 -19.084   8.609  0.00  0.00    +0.116 C 
BRANCH  14  15
ATOM     15  N   LIG    1       31.996 -18.634   9.844  0.00  0.00    -0.309 NA
ATOM     16  H   LIG    1       31.780 -19.310  10.582  0.00  0.00    +0.122 HD
BRANCH  15  17
ATOM     17  C   LIG    1       31.635 -17.262  10.265  0.00  0.00    +0.011 C 
ATOM     18  C   LIG    1       32.632 -16.268   9.634  0.00  0.00    +0.027 C 
ATOM     19  C   LIG    1       31.691 -17.089  11.795  0.00  0.00    +0.027 C 
ATOM     20  C   LIG    1       30.229 -16.906   9.755  0.00  0.00    +0.027 C 
ENDBRANCH  15  17
ENDBRANCH  14  15
ENDBRANCH  11  14
ENDBRANCH   1  11
TORSDOF 7
ENDMDL
MODEL 2
REMARK VINA RESULT:      -7.5      2.957      4.409
REMARK  Name = *****
REMARK                            x       y       z     vdW  Elec       q    Type
REMARK                         _______ _______ _______ _____ _____    ______ ____
ROOT
ATOM      1  C   LIG    1       27.399 -21.609   7.127  0.00  0.00    +0.261 C 
ENDROOT
BRANCH   1   2
ATOM      2  O   LIG    1       26.104 -21.840   7.676  0.00  0.00    -0.488 OA
BRANCH   2   6
ATOM      3  C   LIG    1       25.826 -26.615   6.289  0.00  0.00    +0.044 C 
ATOM      4  C   LIG    1       25.189 -25.275   6.534  0.00  0.00    -0.047 A 
ATOM      5  C   LIG    1       25.982 -24.195   6.983  0.00  0.00    +0.050 A 
ATOM      6  C   LIG    1       25.403 -22.938   7.230  0.00  0.00    +0.139 A 
ATOM      7  C   LIG    1       24.024 -22.788   7.052  0.00  0.00    +0.083 A 
ATOM      8 CL   LIG    1       23.236 -21.276   7.339  0.00  0.00    -0.080 Cl
ATOM      9  C   LIG    1       23.228 -23.861   6.622  0.00  0.00    +0.024 A 
ATOM     10  C   LIG    1       23.820 -25.100   6.366  0.00  0.00    +0.005 A 
ENDBRANCH   2   6
ENDBRANCH   1   2
BRANCH   1  11
ATOM     11  C   LIG    1       27.460 -20.221   6.446  0.00  0.00    +0.166 C 
BRANCH  11  12
ATOM     12  O   LIG    1       27.328 -20.308   5.020  0.00  0.00    -0.387 OA
ATOM     13  H   LIG    1       27.459 -19.413   4.658  0.00  0.00    +0.210 HD
ENDBRANCH  11  12
BRANCH  11  14
ATOM     14  C   LIG    1       28.825 -19.574   6.751  0.00  0.00    +0.116 C 
BRANCH  14  15
ATOM     15  N   LIG    1       29.178 -19.565   8.182  0.00  0.00    -0.309 NA
ATOM     16  H   LIG    1       28.778 -18.720   8.600  0.00  0.00    +0.122 HD
BRANCH  15  17
ATOM     17  C   LIG    1       30.630 -19.650   8.452  0.00  0.00    +0.011 C 
ATOM     18  C   LIG    1       31.400 -19.266   7.171  0.00  0.00    +0.027 C 
ATOM     19  C   LIG    1       31.064 -21.069   8.863  0.00  0.00    +0.027 C 
ATOM     20  C   LIG    1       31.020 -18.650   9.553  0.00  0.00    +0.027 C 
ENDBRANCH  15  17
ENDBRANCH  14  15
ENDBRANCH  11  14
ENDBRANCH   1  11
TORSDOF 7
ENDMDL
MODEL 3
REMARK VINA RESULT:      -7.1      3.418      7.196
REMARK  Name = *****
REMARK                            x       y       z     vdW  Elec       q    Type
REMARK                         _______ _______ _______ _____ _____    ______ ____
ROOT
ATOM      1  C   LIG    1       26.110 -20.741   7.077  0.00  0.00    +0.261 C 
ENDROOT
BRANCH   1   2
ATOM      2  O   LIG    1       27.180 -20.389   6.202  0.00  0.00    -0.488 OA
BRANCH   2   6
ATOM      3  C   LIG    1       30.809 -21.922   9.250  0.00  0.00    +0.044 C 
ATOM      4  C   LIG    1       30.271 -20.973   8.214  0.00  0.00    -0.047 A 
ATOM      5  C   LIG    1       28.959 -21.149   7.718  0.00  0.00    +0.050 A 
ATOM      6  C   LIG    1       28.443 -20.280   6.742  0.00  0.00    +0.139 A 
ATOM      7  C   LIG    1       29.262 -19.260   6.250  0.00  0.00    +0.083 A 
ATOM      8 CL   LIG    1       28.702 -18.154   5.045  0.00  0.00    -0.080 Cl
ATOM      9  C   LIG    1       30.572 -19.090   6.726  0.00  0.00    +0.024 A 
ATOM     10  C   LIG    1       31.066 -19.952   7.708  0.00  0.00    +0.005 A 
ENDBRANCH   2   6
ENDBRANCH   1   2
BRANCH   1  11
ATOM     11  C   LIG    1       24.754 -20.653   6.338  0.00  0.00    +0.166 C 
BRANCH  11  12
ATOM     12  O   LIG    1       23.652 -20.484   7.241  0.00  0.00    -0.387 OA
ATOM     13  H   LIG    1       22.887 -20.184   6.718  0.00  0.00    +0.210 HD
ENDBRANCH  11  12
BRANCH  11  14
ATOM     14  C   LIG    1       24.524 -21.963   5.559  0.00  0.00    +0.116 C 
BRANCH  14  15
ATOM     15  N   LIG    1       25.544 -22.997   5.811  0.00  0.00    -0.309 NA
ATOM     16  H   LIG    1       26.218 -22.969   5.041  0.00  0.00    +0.122 HD
BRANCH  15  17
ATOM     17  C   LIG    1       24.998 -24.361   5.984  0.00  0.00    +0.011 C 
ATOM     18  C   LIG    1       25.912 -25.146   6.948  0.00  0.00    +0.027 C 
ATOM     19  C   LIG    1       24.928 -25.133   4.654  0.00  0.00    +0.027 C 
ATOM     20  C   LIG    1       23.598 -24.291   6.617  0.00  0.00    +0.027 C 
ENDBRANCH  15  17
ENDBRANCH  14  15
ENDBRANCH  11  14
ENDBRANCH   1  11
TORSDOF 7
ENDMDL
MODEL 4
REMARK VINA RESULT:      -7.0      2.890      4.336
REMARK  Name = *****
REMARK                            x       y       z     vdW  Elec       q    Type
REMARK                         _______ _______ _______ _____ _____    ______ ____
ROOT
ATOM      1  C   LIG    1       26.886 -22.135   6.979  0.00  0.00    +0.261 C 
ENDROOT
BRANCH   1   2
ATOM      2  O   LIG    1       25.464 -22.207   7.063  0.00  0.00    -0.488 OA
BRANCH   2   6
ATOM      3  C   LIG    1       25.058 -18.718   3.533  0.00  0.00    +0.044 C 
ATOM      4  C   LIG    1       24.450 -19.756   4.435  0.00  0.00    -0.047 A 
ATOM      5  C   LIG    1       25.275 -20.475   5.330  0.00  0.00    +0.050 A 
ATOM      6  C   LIG    1       24.728 -21.459   6.172  0.00  0.00    +0.139 A 
ATOM      7  C   LIG    1       23.359 -21.732   6.084  0.00  0.00    +0.083 A 
ATOM      8 CL   LIG    1       22.612 -22.930   7.082  0.00  0.00    -0.080 Cl
ATOM      9  C   LIG    1       22.538 -21.033   5.186  0.00  0.00    +0.024 A 
ATOM     10  C   LIG    1       23.093 -20.047   4.366  0.00  0.00    +0.005 A 
ENDBRANCH   2   6
ENDBRANCH   1   2
BRANCH   1  11
ATOM     11  C   LIG    1       27.459 -21.331   8.171  0.00  0.00    +0.166 C 
BRANCH  11  12
ATOM     12  O   LIG    1       26.428 -20.816   9.025  0.00  0.00    -0.387 OA
ATOM     13  H   LIG    1       26.711 -19.934   9.329  0.00  0.00    +0.210 HD
ENDBRANCH  11  12
BRANCH  11  14
ATOM     14  C   LIG    1       28.257 -20.131   7.624  0.00  0.00    +0.116 C 
BRANCH  14  15
ATOM     15  N   LIG    1       29.110 -19.472   8.629  0.00  0.00    -0.309 NA
ATOM     16  H   LIG    1       28.813 -18.494   8.702  0.00  0.00    +0.122 HD
BRANCH  15  17
ATOM     17  C   LIG    1       30.560 -19.563   8.351  0.00  0.00    +0.011 C 
ATOM     18  C   LIG    1       31.057 -20.970   8.743  0.00  0.00    +0.027 C 
ATOM     19  C   LIG    1       31.373 -18.528   9.151  0.00  0.00    +0.027 C 
ATOM     20  C   LIG    1       30.820 -19.374   6.847  0.00  0.00    +0.027 C 
ENDBRANCH  15  17
ENDBRANCH  14  15
ENDBRANCH  11  14
ENDBRANCH   1  11
TORSDOF 7
ENDMDL
MODEL 5
REMARK VINA RESULT:      -6.9      4.615      8.230
REMARK  Name = *****
REMARK                            x       y       z     vdW  Elec       q    Type
REMARK                         _______ _______ _______ _____ _____    ______ ____
ROOT
ATOM      1  C   LIG    1       25.897 -23.328   6.812  0.00  0.00    +0.261 C 
ENDROOT
BRANCH   1   2
ATOM      2  O   LIG    1       25.865 -21.917   7.016  0.00  0.00    -0.488 OA
BRANCH   2   6
ATOM      3  C   LIG    1       30.532 -20.930   8.447  0.00  0.00    +0.044 C 
ATOM      4  C   LIG    1       29.348 -20.683   7.554  0.00  0.00    -0.047 A 
ATOM      5  C   LIG    1       28.163 -21.432   7.739  0.00  0.00    +0.050 A 
ATOM      6  C   LIG    1       27.050 -21.224   6.907  0.00  0.00    +0.139 A 
ATOM      7  C   LIG    1       27.149 -20.286   5.875  0.00  0.00    +0.083 A 
ATOM      8 CL   LIG    1       25.826 -19.977   4.805  0.00  0.00    -0.080 Cl
ATOM      9  C   LIG    1       28.328 -19.551   5.675  0.00  0.00    +0.024 A 
ATOM     10  C   LIG    1       29.422 -19.757   6.520  0.00  0.00    +0.005 A 
ENDBRANCH   2   6
ENDBRANCH   1   2
BRANCH   1  11
ATOM     11  C   LIG    1       24.792 -23.757   5.818  0.00  0.00    +0.166 C 
BRANCH  11  12
ATOM     12  O   LIG    1       23.856 -22.702   5.557  0.00  0.00    -0.387 OA
ATOM     13  H   LIG    1       23.857 -22.110   6.331  0.00  0.00    +0.210 HD
ENDBRANCH  11  12
BRANCH  11  14
ATOM     14  C   LIG    1       24.008 -24.939   6.422  0.00  0.00    +0.116 C 
BRANCH  14  15
ATOM     15  N   LIG    1       23.823 -26.070   5.496  0.00  0.00    -0.309 NA
ATOM     16  H   LIG    1       22.881 -26.445   5.641  0.00  0.00    +0.122 HD
BRANCH  15  17
ATOM     17  C   LIG    1       24.840 -27.137   5.627  0.00  0.00    +0.011 C 
ATOM     18  C   LIG    1       25.925 -26.926   4.551  0.00  0.00    +0.027 C 
ATOM     19  C   LIG    1       24.239 -28.542   5.432  0.00  0.00    +0.027 C 
ATOM     20  C   LIG    1       25.519 -27.051   7.004  0.00  0.00    +0.027 C 
ENDBRANCH  15  17
ENDBRANCH  14  15
ENDBRANCH  11  14
ENDBRANCH   1  11
TORSDOF 7
ENDMDL
MODEL 6
REMARK VINA RESULT:      -6.9      6.405      8.448
REMARK  Name = *****
REMARK                            x       y       z     vdW  Elec       q    Type
REMARK                         _______ _______ _______ _____ _____    ______ ____
ROOT
ATOM      1  C   LIG    1       23.607 -22.658   6.806  0.00  0.00    +0.261 C 
ENDROOT
BRANCH   1   2
ATOM      2  O   LIG    1       24.251 -21.386   6.871  0.00  0.00    -0.488 OA
BRANCH   2   6
ATOM      3  C   LIG    1       21.399 -18.550   3.934  0.00  0.00    +0.044 C 
ATOM      4  C   LIG    1       22.738 -19.108   4.329  0.00  0.00    -0.047 A 
ATOM      5  C   LIG    1       22.831 -19.999   5.422  0.00  0.00    +0.050 A 
ATOM      6  C   LIG    1       24.075 -20.521   5.814  0.00  0.00    +0.139 A 
ATOM      7  C   LIG    1       25.221 -20.118   5.121  0.00  0.00    +0.083 A 
ATOM      8 CL   LIG    1       26.788 -20.711   5.546  0.00  0.00    -0.080 Cl
ATOM      9  C   LIG    1       25.138 -19.220   4.045  0.00  0.00    +0.024 A 
ATOM     10  C   LIG    1       23.892 -18.721   3.657  0.00  0.00    +0.005 A 
ENDBRANCH   2   6
ENDBRANCH   1   2
BRANCH   1  11
ATOM     11  C   LIG    1       24.585 -23.733   6.277  0.00  0.00    +0.166 C 
BRANCH  11  12
ATOM     12  O   LIG    1       24.833 -23.598   4.870  0.00  0.00    -0.387 OA
ATOM     13  H   LIG    1       24.636 -24.456   4.453  0.00  0.00    +0.210 HD
ENDBRANCH  11  12
BRANCH  11  14
ATOM     14  C   LIG    1       23.969 -25.126   6.511  0.00  0.00    +0.116 C 
BRANCH  14  15
ATOM     15  N   LIG    1       24.102 -26.041   5.364  0.00  0.00    -0.309 NA
ATOM     16  H   LIG    1       23.169 -26.390   5.128  0.00  0.00    +0.122 HD
BRANCH  15  17
ATOM     17  C   LIG    1       25.042 -27.162   5.585  0.00  0.00    +0.011 C 
ATOM     18  C   LIG    1       24.291 -28.493   5.373  0.00  0.00    +0.027 C 
ATOM     19  C   LIG    1       25.623 -27.163   7.011  0.00  0.00    +0.027 C 
ATOM     20  C   LIG    1       26.187 -27.100   4.560  0.00  0.00    +0.027 C 
ENDBRANCH  15  17
ENDBRANCH  14  15
ENDBRANCH  11  14
ENDBRANCH   1  11
TORSDOF 7
ENDMDL
MODEL 7
REMARK VINA RESULT:      -6.9      4.822      8.253
REMARK  Name = *****
REMARK                            x       y       z     vdW  Elec       q    Type
REMARK                         _______ _______ _______ _____ _____    ______ ____
ROOT
ATOM      1  C   LIG    1       23.436 -22.223   7.589  0.00  0.00    +0.261 C 
ENDROOT
BRANCH   1   2
ATOM      2  O   LIG    1       23.632 -20.931   7.019  0.00  0.00    -0.488 OA
BRANCH   2   6
ATOM      3  C   LIG    1       28.519 -20.313   7.754  0.00  0.00    +0.044 C 
ATOM      4  C   LIG    1       27.306 -20.281   6.865  0.00  0.00    -0.047 A 
ATOM      5  C   LIG    1       26.040 -20.619   7.397  0.00  0.00    +0.050 A 
ATOM      6  C   LIG    1       24.897 -20.607   6.580  0.00  0.00    +0.139 A 
ATOM      7  C   LIG    1       25.041 -20.285   5.227  0.00  0.00    +0.083 A 
ATOM      8 CL   LIG    1       23.684 -20.253   4.157  0.00  0.00    -0.080 Cl
ATOM      9  C   LIG    1       26.298 -19.965   4.689  0.00  0.00    +0.024 A 
ATOM     10  C   LIG    1       27.423 -19.966   5.517  0.00  0.00    +0.005 A 
ENDBRANCH   2   6
ENDBRANCH   1   2
BRANCH   1  11
ATOM     11  C   LIG    1       23.162 -23.269   6.482  0.00  0.00    +0.166 C 
BRANCH  11  12
ATOM     12  O   LIG    1       21.817 -23.767   6.526  0.00  0.00    -0.387 OA
ATOM     13  H   LIG    1       21.258 -23.147   6.022  0.00  0.00    +0.210 HD
ENDBRANCH  11  12
BRANCH  11  14
ATOM     14  C   LIG    1       24.111 -24.466   6.681  0.00  0.00    +0.116 C 
BRANCH  14  15
ATOM     15  N   LIG    1       24.071 -25.451   5.586  0.00  0.00    -0.309 NA
ATOM     16  H   LIG    1       23.111 -25.802   5.513  0.00  0.00    +0.122 HD
BRANCH  15  17
ATOM     17  C   LIG    1       25.030 -26.567   5.734  0.00  0.00    +0.011 C 
ATOM     18  C   LIG    1       26.023 -26.225   6.865  0.00  0.00    +0.027 C 
ATOM     19  C   LIG    1       25.838 -26.817   4.447  0.00  0.00    +0.027 C 
ATOM     20  C   LIG    1       24.286 -27.852   6.136  0.00  0.00    +0.027 C 
ENDBRANCH  15  17
ENDBRANCH  14  15
ENDBRANCH  11  14
ENDBRANCH   1  11
TORSDOF 7
ENDMDL
MODEL 8
REMARK VINA RESULT:      -6.8      2.753      4.077
REMARK  Name = *****
REMARK                            x       y       z     vdW  Elec       q    Type
REMARK                         _______ _______ _______ _____ _____    ______ ____
ROOT
ATOM      1  C   LIG    1       26.965 -20.406   6.651  0.00  0.00    +0.261 C 
ENDROOT
BRANCH   1   2
ATOM      2  O   LIG    1       26.303 -21.050   5.564  0.00  0.00    -0.488 OA
BRANCH   2   6
ATOM      3  C   LIG    1       22.214 -18.536   4.237  0.00  0.00    +0.044 C 
ATOM      4  C   LIG    1       22.882 -19.736   4.849  0.00  0.00    -0.047 A 
ATOM      5  C   LIG    1       24.293 -19.794   4.914  0.00  0.00    +0.050 A 
ATOM      6  C   LIG    1       24.936 -20.913   5.471  0.00  0.00    +0.139 A 
ATOM      7  C   LIG    1       24.154 -21.977   5.930  0.00  0.00    +0.083 A 
ATOM      8 CL   LIG    1       24.870 -23.390   6.624  0.00  0.00    -0.080 Cl
ATOM      9  C   LIG    1       22.753 -21.933   5.853  0.00  0.00    +0.024 A 
ATOM     10  C   LIG    1       22.127 -20.808   5.311  0.00  0.00    +0.005 A 
ENDBRANCH   2   6
ENDBRANCH   1   2
BRANCH   1  11
ATOM     11  C   LIG    1       27.772 -21.433   7.479  0.00  0.00    +0.166 C 
BRANCH  11  12
ATOM     12  O   LIG    1       27.282 -21.554   8.822  0.00  0.00    -0.387 OA
ATOM     13  H   LIG    1       27.479 -22.459   9.126  0.00  0.00    +0.210 HD
ENDBRANCH  11  12
BRANCH  11  14
ATOM     14  C   LIG    1       29.240 -20.968   7.557  0.00  0.00    +0.116 C 
BRANCH  14  15
ATOM     15  N   LIG    1       29.499 -19.975   8.614  0.00  0.00    -0.309 NA
ATOM     16  H   LIG    1       28.596 -19.676   8.993  0.00  0.00    +0.122 HD
BRANCH  15  17
ATOM     17  C   LIG    1       30.296 -18.810   8.172  0.00  0.00    +0.011 C 
ATOM     18  C   LIG    1       29.882 -18.437   6.733  0.00  0.00    +0.027 C 
ATOM     19  C   LIG    1       31.808 -19.103   8.175  0.00  0.00    +0.027 C 
ATOM     20  C   LIG    1       30.003 -17.599   9.074  0.00  0.00    +0.027 C 
ENDBRANCH  15  17
ENDBRANCH  14  15
ENDBRANCH  11  14
ENDBRANCH   1  11
TORSDOF 7
ENDMDL
MODEL 9
REMARK VINA RESULT:      -6.8      6.220      9.398
REMARK  Name = *****
REMARK                            x       y       z     vdW  Elec       q    Type
REMARK                         _______ _______ _______ _____ _____    ______ ____
ROOT
ATOM      1  C   LIG    1       25.676 -25.328   5.645  0.00  0.00    +0.261 C 
ENDROOT
BRANCH   1   2
ATOM      2  O   LIG    1       24.843 -24.803   6.677  0.00  0.00    -0.488 OA
BRANCH   2   6
ATOM      3  C   LIG    1       27.570 -20.788   7.794  0.00  0.00    +0.044 C 
ATOM      4  C   LIG    1       26.244 -21.453   7.545  0.00  0.00    -0.047 A 
ATOM      5  C   LIG    1       26.199 -22.832   7.238  0.00  0.00    +0.050 A 
ATOM      6  C   LIG    1       24.971 -23.468   6.990  0.00  0.00    +0.139 A 
ATOM      7  C   LIG    1       23.800 -22.704   7.023  0.00  0.00    +0.083 A 
ATOM      8 CL   LIG    1       22.251 -23.412   6.723  0.00  0.00    -0.080 Cl
ATOM      9  C   LIG    1       23.840 -21.330   7.310  0.00  0.00    +0.024 A 
ATOM     10  C   LIG    1       25.066 -20.715   7.570  0.00  0.00    +0.005 A 
ENDBRANCH   2   6
ENDBRANCH   1   2
BRANCH   1  11
ATOM     11  C   LIG    1       26.376 -26.623   6.121  0.00  0.00    +0.166 C 
BRANCH  11  12
ATOM     12  O   LIG    1       27.155 -27.233   5.081  0.00  0.00    -0.387 OA
ATOM     13  H   LIG    1       28.091 -27.179   5.345  0.00  0.00    +0.210 HD
ENDBRANCH  11  12
BRANCH  11  14
ATOM     14  C   LIG    1       25.303 -27.638   6.559  0.00  0.00    +0.116 C 
BRANCH  14  15
ATOM     15  N   LIG    1       25.818 -28.724   7.412  0.00  0.00    -0.309 NA
ATOM     16  H   LIG    1       26.765 -28.950   7.096  0.00  0.00    +0.122 HD
BRANCH  15  17
ATOM     17  C   LIG    1       24.968 -29.935   7.436  0.00  0.00    +0.011 C 
ATOM     18  C   LIG    1       24.127 -29.981   6.142  0.00  0.00    +0.027 C 
ATOM     19  C   LIG    1       24.002 -29.945   8.635  0.00  0.00    +0.027 C 
ATOM     20  C   LIG    1       25.848 -31.196   7.469  0.00  0.00    +0.027 C 
ENDBRANCH  15  17
ENDBRANCH  14  15
ENDBRANCH  11  14
ENDBRANCH   1  11
TORSDOF 7
ENDMDL
