MODEL 1
REMARK VINA RESULT:      -5.6      0.000      0.000
REMARK  Name = *****
REMARK                            x       y       z     vdW  Elec       q    Type
REMARK                         _______ _______ _______ _____ _____    ______ ____
ROOT
ATOM      1  C   LIG    1       22.036 -31.319   9.868  0.00  0.00    +0.008 C 
ATOM      2  C   LIG    1       23.318 -31.553  10.661  0.00  0.00    -0.003 C 
ATOM      3  C   LIG    1       24.201 -30.288  10.714  0.00  0.00    +0.067 C 
ATOM      4  C   LIG    1       24.840 -30.316  12.130  0.00  0.00    -0.017 C 
ATOM      5  C   LIG    1       23.665 -30.828  13.005  0.00  0.00    +0.001 C 
ATOM      6  C   LIG    1       22.611 -29.747  13.401  0.00  0.00    +0.020 C 
ATOM      7  C   LIG    1       23.213 -28.405  13.938  0.00  0.00    +0.087 C 
ATOM      8  C   LIG    1       24.274 -27.915  12.901  0.00  0.00    +0.137 C 
ATOM      9 CL   LIG    1       24.124 -28.768  15.499  0.00  0.00    -0.114 Cl
ATOM     10  C   LIG    1       22.050 -27.332  14.266  0.00  0.00    +0.032 C 
ATOM     11  C   LIG    1       20.873 -27.973  15.065  0.00  0.00    -0.021 C 
ATOM     12  C   LIG    1       19.832 -27.173  15.403  0.00  0.00    +0.054 C 
ATOM     13  C   LIG    1       19.211 -26.554  14.168  0.00  0.00    +0.179 C 
ATOM     14  C   LIG    1       20.091 -26.384  12.972  0.00  0.00    +0.047 C 
ATOM     15  O   LIG    1       18.067 -26.119  14.186  0.00  0.00    -0.288 OA
ATOM     16  C   LIG    1       20.463 -29.377  14.662  0.00  0.00    +0.194 C 
ATOM     17  F   LIG    1       19.741 -29.338  13.503  0.00  0.00    -0.241 F 
ATOM     18  C   LIG    1       22.598 -26.113  15.076  0.00  0.00    +0.022 C 
ATOM     19  C   LIG    1       21.396 -26.715  13.016  0.00  0.00    -0.010 C 
ATOM     20  C   LIG    1       21.615 -30.331  14.424  0.00  0.00    +0.047 C 
ATOM     21  C   LIG    1       26.025 -31.311  12.212  0.00  0.00    +0.012 C 
ATOM     22  C   LIG    1       25.361 -28.949  12.588  0.00  0.00    +0.040 C 
ATOM     23  C   LIG    1       23.040 -31.935  12.125  0.00  0.00    +0.008 C 
ENDROOT
BRANCH   3  24
ATOM     24  C   LIG    1       25.195 -30.245   9.554  0.00  0.00    +0.162 C 
ATOM     25  O   LIG    1       25.396 -31.207   8.807  0.00  0.00    -0.295 OA
BRANCH  24  26
ATOM     26  C   LIG    1       25.964 -28.945   9.347  0.00  0.00    +0.230 C 
BRANCH  26  27
ATOM     27  O   LIG    1       27.367 -29.146   9.433  0.00  0.00    -0.388 OA
ATOM     28  H   LIG    1       27.517 -29.707  10.221  0.00  0.00    +0.210 HD
ENDBRANCH  26  27
ENDBRANCH  24  26
ENDBRANCH   3  24
BRANCH   8  29
ATOM     29  O   LIG    1       24.947 -26.725  13.303  0.00  0.00    -0.390 OA
ATOM     30  H   LIG    1       25.407 -26.913  14.144  0.00  0.00    +0.210 HD
ENDBRANCH   8  29
TORSDOF 4
ENDMDL
MODEL 2
REMARK VINA RESULT:      -5.5      2.802      5.171
REMARK  Name = *****
REMARK                            x       y       z     vdW  Elec       q    Type
REMARK                         _______ _______ _______ _____ _____    ______ ____
ROOT
ATOM      1  C   LIG    1       20.966 -27.982  12.652  0.00  0.00    +0.008 C 
ATOM      2  C   LIG    1       21.275 -29.452  12.922  0.00  0.00    -0.003 C 
ATOM      3  C   LIG    1       22.277 -30.026  11.898  0.00  0.00    +0.067 C 
ATOM      4  C   LIG    1       23.148 -31.019  12.716  0.00  0.00    -0.017 C 
ATOM      5  C   LIG    1       23.320 -30.265  14.062  0.00  0.00    +0.001 C 
ATOM      6  C   LIG    1       24.418 -29.154  14.066  0.00  0.00    +0.020 C 
ATOM      7  C   LIG    1       25.789 -29.582  13.444  0.00  0.00    +0.087 C 
ATOM      8  C   LIG    1       25.498 -30.190  12.033  0.00  0.00    +0.137 C 
ATOM      9 CL   LIG    1       26.490 -30.940  14.473  0.00  0.00    -0.114 Cl
ATOM     10  C   LIG    1       26.839 -28.353  13.441  0.00  0.00    +0.032 C 
ATOM     11  C   LIG    1       26.862 -27.604  14.808  0.00  0.00    -0.021 C 
ATOM     12  C   LIG    1       27.707 -26.550  14.935  0.00  0.00    +0.054 C 
ATOM     13  C   LIG    1       27.407 -25.498  13.887  0.00  0.00    +0.179 C 
ATOM     14  C   LIG    1       26.770 -25.960  12.616  0.00  0.00    +0.047 C 
ATOM     15  O   LIG    1       27.766 -24.337  14.035  0.00  0.00    -0.288 OA
ATOM     16  C   LIG    1       25.526 -27.407  15.499  0.00  0.00    +0.194 C 
ATOM     17  F   LIG    1       24.828 -26.403  14.888  0.00  0.00    -0.241 F 
ATOM     18  C   LIG    1       28.288 -28.830  13.107  0.00  0.00    +0.022 C 
ATOM     19  C   LIG    1       26.529 -27.267  12.395  0.00  0.00    -0.010 C 
ATOM     20  C   LIG    1       24.626 -28.624  15.500  0.00  0.00    +0.047 C 
ATOM     21  C   LIG    1       22.419 -32.364  12.961  0.00  0.00    +0.012 C 
ATOM     22  C   LIG    1       24.490 -31.343  12.050  0.00  0.00    +0.040 C 
ATOM     23  C   LIG    1       21.913 -29.672  14.305  0.00  0.00    +0.008 C 
ENDROOT
BRANCH   3  24
ATOM     24  C   LIG    1       21.564 -30.633  10.690  0.00  0.00    +0.162 C 
ATOM     25  O   LIG    1       22.125 -30.828   9.608  0.00  0.00    -0.295 OA
BRANCH  24  26
ATOM     26  C   LIG    1       20.091 -30.990  10.860  0.00  0.00    +0.230 C 
BRANCH  26  27
ATOM     27  O   LIG    1       19.270 -30.281   9.943  0.00  0.00    -0.388 OA
ATOM     28  H   LIG    1       19.853 -29.636   9.492  0.00  0.00    +0.210 HD
ENDBRANCH  26  27
ENDBRANCH  24  26
ENDBRANCH   3  24
BRANCH   8  29
ATOM     29  O   LIG    1       26.667 -30.679  11.379  0.00  0.00    -0.390 OA
ATOM     30  H   LIG    1       27.072 -31.352  11.959  0.00  0.00    +0.210 HD
ENDBRANCH   8  29
TORSDOF 4
ENDMDL
MODEL 3
REMARK VINA RESULT:      -5.2      2.308      3.439
REMARK  Name = *****
REMARK                            x       y       z     vdW  Elec       q    Type
REMARK                         _______ _______ _______ _____ _____    ______ ____
ROOT
ATOM      1  C   LIG    1       22.425 -32.460   9.166  0.00  0.00    +0.008 C 
ATOM      2  C   LIG    1       23.935 -32.614   9.006  0.00  0.00    -0.003 C 
ATOM      3  C   LIG    1       24.614 -31.277   8.640  0.00  0.00    +0.067 C 
ATOM      4  C   LIG    1       25.979 -31.315   9.380  0.00  0.00    -0.017 C 
ATOM      5  C   LIG    1       25.596 -31.976  10.731  0.00  0.00    +0.001 C 
ATOM      6  C   LIG    1       24.949 -31.017  11.780  0.00  0.00    +0.020 C 
ATOM      7  C   LIG    1       25.694 -29.655  11.974  0.00  0.00    +0.087 C 
ATOM      8  C   LIG    1       25.890 -29.018  10.560  0.00  0.00    +0.137 C 
ATOM      9 CL   LIG    1       27.378 -30.008  12.635  0.00  0.00    -0.114 Cl
ATOM     10  C   LIG    1       24.920 -28.710  13.033  0.00  0.00    +0.032 C 
ATOM     11  C   LIG    1       24.495 -29.495  14.312  0.00  0.00    -0.021 C 
ATOM     12  C   LIG    1       23.837 -28.812  15.281  0.00  0.00    +0.054 C 
ATOM     13  C   LIG    1       22.569 -28.194  14.729  0.00  0.00    +0.179 C 
ATOM     14  C   LIG    1       22.539 -27.884  13.267  0.00  0.00    +0.047 C 
ATOM     15  O   LIG    1       21.651 -27.867  15.470  0.00  0.00    -0.288 OA
ATOM     16  C   LIG    1       23.987 -30.910  14.104  0.00  0.00    +0.194 C 
ATOM     17  F   LIG    1       22.710 -30.880  13.618  0.00  0.00    -0.241 F 
ATOM     18  C   LIG    1       25.792 -27.488  13.465  0.00  0.00    +0.022 C 
ATOM     19  C   LIG    1       23.618 -28.095  12.489  0.00  0.00    -0.010 C 
ATOM     20  C   LIG    1       24.801 -31.741  13.134  0.00  0.00    +0.047 C 
ATOM     21  C   LIG    1       27.014 -32.200   8.641  0.00  0.00    +0.012 C 
ATOM     22  C   LIG    1       26.611 -29.931   9.562  0.00  0.00    +0.040 C 
ATOM     23  C   LIG    1       24.615 -33.091  10.301  0.00  0.00    +0.008 C 
ENDROOT
BRANCH   3  24
ATOM     24  C   LIG    1       24.702 -31.085   7.126  0.00  0.00    +0.162 C 
ATOM     25  O   LIG    1       25.020 -31.992   6.352  0.00  0.00    -0.295 OA
BRANCH  24  26
ATOM     26  C   LIG    1       24.387 -29.695   6.582  0.00  0.00    +0.230 C 
BRANCH  26  27
ATOM     27  O   LIG    1       23.259 -29.713   5.720  0.00  0.00    -0.388 OA
ATOM     28  H   LIG    1       23.189 -28.813   5.340  0.00  0.00    +0.210 HD
ENDBRANCH  26  27
ENDBRANCH  24  26
ENDBRANCH   3  24
BRANCH   8  29
ATOM     29  O   LIG    1       26.616 -27.792  10.590  0.00  0.00    -0.390 OA
ATOM     30  H   LIG    1       26.153 -27.158  10.010  0.00  0.00    +0.210 HD
ENDBRANCH   8  29
TORSDOF 4
ENDMDL
MODEL 4
REMARK VINA RESULT:      -5.2      2.838      6.825
REMARK  Name = *****
REMARK                            x       y       z     vdW  Elec       q    Type
REMARK                         _______ _______ _______ _____ _____    ______ ____
ROOT
ATOM      1  C   LIG    1       26.649 -26.641  12.130  0.00  0.00    +0.008 C 
ATOM      2  C   LIG    1       26.020 -27.530  13.198  0.00  0.00    -0.003 C 
ATOM      3  C   LIG    1       24.502 -27.702  12.983  0.00  0.00    +0.067 C 
ATOM      4  C   LIG    1       24.207 -29.165  13.416  0.00  0.00    -0.017 C 
ATOM      5  C   LIG    1       25.449 -29.920  12.870  0.00  0.00    +0.001 C 
ATOM      6  C   LIG    1       25.402 -30.262  11.348  0.00  0.00    +0.020 C 
ATOM      7  C   LIG    1       24.058 -30.896  10.856  0.00  0.00    +0.087 C 
ATOM      8  C   LIG    1       22.895 -29.969  11.340  0.00  0.00    +0.137 C 
ATOM      9 CL   LIG    1       23.837 -32.514  11.710  0.00  0.00    -0.114 Cl
ATOM     10  C   LIG    1       24.084 -31.162   9.262  0.00  0.00    +0.032 C 
ATOM     11  C   LIG    1       25.415 -31.835   8.806  0.00  0.00    -0.021 C 
ATOM     12  C   LIG    1       25.560 -32.113   7.486  0.00  0.00    +0.054 C 
ATOM     13  C   LIG    1       25.425 -30.852   6.658  0.00  0.00    +0.179 C 
ATOM     14  C   LIG    1       24.605 -29.741   7.232  0.00  0.00    +0.047 C 
ATOM     15  O   LIG    1       25.881 -30.788   5.524  0.00  0.00    -0.288 OA
ATOM     16  C   LIG    1       26.687 -31.350   9.476  0.00  0.00    +0.194 C 
ATOM     17  F   LIG    1       27.050 -30.136   8.964  0.00  0.00    -0.241 F 
ATOM     18  C   LIG    1       22.889 -32.057   8.804  0.00  0.00    +0.022 C 
ATOM     19  C   LIG    1       23.970 -29.883   8.412  0.00  0.00    -0.010 C 
ATOM     20  C   LIG    1       26.588 -31.177  10.977  0.00  0.00    +0.047 C 
ATOM     21  C   LIG    1       24.142 -29.311  14.957  0.00  0.00    +0.012 C 
ATOM     22  C   LIG    1       22.892 -29.713  12.851  0.00  0.00    +0.040 C 
ATOM     23  C   LIG    1       26.609 -28.952  13.198  0.00  0.00    +0.008 C 
ENDROOT
BRANCH   3  24
ATOM     24  C   LIG    1       23.702 -26.632  13.726  0.00  0.00    +0.162 C 
ATOM     25  O   LIG    1       24.168 -25.975  14.660  0.00  0.00    -0.295 OA
BRANCH  24  26
ATOM     26  C   LIG    1       22.264 -26.402  13.274  0.00  0.00    +0.230 C 
BRANCH  26  27
ATOM     27  O   LIG    1       21.336 -26.701  14.307  0.00  0.00    -0.388 OA
ATOM     28  H   LIG    1       20.885 -27.529  14.041  0.00  0.00    +0.210 HD
ENDBRANCH  26  27
ENDBRANCH  24  26
ENDBRANCH   3  24
BRANCH   8  29
ATOM     29  O   LIG    1       21.602 -30.468  11.008  0.00  0.00    -0.390 OA
ATOM     30  H   LIG    1       21.035 -29.703  10.790  0.00  0.00    +0.210 HD
ENDBRANCH   8  29
TORSDOF 4
ENDMDL
MODEL 5
REMARK VINA RESULT:      -5.1      2.332      6.766
REMARK  Name = *****
REMARK                            x       y       z     vdW  Elec       q    Type
REMARK                         _______ _______ _______ _____ _____    ______ ____
ROOT
ATOM      1  C   LIG    1       23.848 -26.756  13.625  0.00  0.00    +0.008 C 
ATOM      2  C   LIG    1       22.760 -27.614  14.264  0.00  0.00    -0.003 C 
ATOM      3  C   LIG    1       21.584 -27.866  13.297  0.00  0.00    +0.067 C 
ATOM      4  C   LIG    1       21.120 -29.314  13.612  0.00  0.00    -0.017 C 
ATOM      5  C   LIG    1       22.470 -30.041  13.852  0.00  0.00    +0.001 C 
ATOM      6  C   LIG    1       23.235 -30.468  12.560  0.00  0.00    +0.020 C 
ATOM      7  C   LIG    1       22.356 -31.186  11.482  0.00  0.00    +0.087 C 
ATOM      8  C   LIG    1       21.104 -30.288  11.218  0.00  0.00    +0.137 C 
ATOM      9 CL   LIG    1       21.735 -32.764  12.204  0.00  0.00    -0.114 Cl
ATOM     10  C   LIG    1       23.220 -31.537  10.162  0.00  0.00    +0.032 C 
ATOM     11  C   LIG    1       24.598 -32.173  10.519  0.00  0.00    -0.021 C 
ATOM     12  C   LIG    1       25.419 -32.515   9.495  0.00  0.00    +0.054 C 
ATOM     13  C   LIG    1       25.728 -31.309   8.633  0.00  0.00    +0.179 C 
ATOM     14  C   LIG    1       24.718 -30.206   8.613  0.00  0.00    +0.047 C 
ATOM     15  O   LIG    1       26.712 -31.286   7.905  0.00  0.00    -0.288 OA
ATOM     16  C   LIG    1       25.323 -31.596  11.721  0.00  0.00    +0.194 C 
ATOM     17  F   LIG    1       25.889 -30.397  11.392  0.00  0.00    -0.241 F 
ATOM     18  C   LIG    1       22.454 -32.509   9.209  0.00  0.00    +0.022 C 
ATOM     19  C   LIG    1       23.558 -30.313   9.291  0.00  0.00    -0.010 C 
ATOM     20  C   LIG    1       24.448 -31.347  12.931  0.00  0.00    +0.047 C 
ATOM     21  C   LIG    1       20.255 -29.380  14.896  0.00  0.00    +0.012 C 
ATOM     22  C   LIG    1       20.304 -29.951  12.481  0.00  0.00    +0.040 C 
ATOM     23  C   LIG    1       23.275 -29.006  14.672  0.00  0.00    +0.008 C 
ENDROOT
BRANCH   3  24
ATOM     24  C   LIG    1       20.502 -26.794  13.433  0.00  0.00    +0.162 C 
ATOM     25  O   LIG    1       19.880 -26.343  12.469  0.00  0.00    -0.295 OA
BRANCH  24  26
ATOM     26  C   LIG    1       20.214 -26.274  14.838  0.00  0.00    +0.230 C 
BRANCH  26  27
ATOM     27  O   LIG    1       18.819 -26.183  15.087  0.00  0.00    -0.388 OA
ATOM     28  H   LIG    1       18.690 -26.423  16.027  0.00  0.00    +0.210 HD
ENDBRANCH  26  27
ENDBRANCH  24  26
ENDBRANCH   3  24
BRANCH   8  29
ATOM     29  O   LIG    1       20.185 -30.863  10.293  0.00  0.00    -0.390 OA
ATOM     30  H   LIG    1       20.409 -31.809  10.200  0.00  0.00    +0.210 HD
ENDBRANCH   8  29
TORSDOF 4
ENDMDL
MODEL 6
REMARK VINA RESULT:      -4.8      2.495      3.756
REMARK  Name = *****
REMARK                            x       y       z     vdW  Elec       q    Type
REMARK                         _______ _______ _______ _____ _____    ______ ____
ROOT
ATOM      1  C   LIG    1       22.638 -33.175   7.603  0.00  0.00    +0.008 C 
ATOM      2  C   LIG    1       24.147 -33.167   7.834  0.00  0.00    -0.003 C 
ATOM      3  C   LIG    1       24.712 -31.732   7.889  0.00  0.00    +0.067 C 
ATOM      4  C   LIG    1       25.841 -31.796   8.954  0.00  0.00    -0.017 C 
ATOM      5  C   LIG    1       25.223 -32.735  10.024  0.00  0.00    +0.001 C 
ATOM      6  C   LIG    1       24.213 -32.054  11.001  0.00  0.00    +0.020 C 
ATOM      7  C   LIG    1       24.699 -30.696  11.610  0.00  0.00    +0.087 C 
ATOM      8  C   LIG    1       25.157 -29.785  10.425  0.00  0.00    +0.137 C 
ATOM      9 CL   LIG    1       26.195 -31.026  12.634  0.00  0.00    -0.114 Cl
ATOM     10  C   LIG    1       23.566 -30.043  12.560  0.00  0.00    +0.032 C 
ATOM     11  C   LIG    1       22.942 -31.093  13.530  0.00  0.00    -0.021 C 
ATOM     12  C   LIG    1       21.978 -30.668  14.383  0.00  0.00    +0.054 C 
ATOM     13  C   LIG    1       20.818 -30.064  13.618  0.00  0.00    +0.179 C 
ATOM     14  C   LIG    1       21.114 -29.482  12.273  0.00  0.00    +0.047 C 
ATOM     15  O   LIG    1       19.708 -29.966  14.126  0.00  0.00    -0.288 OA
ATOM     16  C   LIG    1       22.695 -32.479  12.964  0.00  0.00    +0.194 C 
ATOM     17  F   LIG    1       21.587 -32.464  12.163  0.00  0.00    -0.241 F 
ATOM     18  C   LIG    1       24.132 -28.857  13.405  0.00  0.00    +0.022 C 
ATOM     19  C   LIG    1       22.372 -29.448  11.793  0.00  0.00    -0.010 C 
ATOM     20  C   LIG    1       23.828 -33.036  12.128  0.00  0.00    +0.047 C 
ATOM     21  C   LIG    1       27.137 -32.430   8.388  0.00  0.00    +0.012 C 
ATOM     22  C   LIG    1       26.218 -30.424   9.524  0.00  0.00    +0.040 C 
ATOM     23  C   LIG    1       24.538 -33.825   9.169  0.00  0.00    +0.008 C 
ENDROOT
BRANCH   3  24
ATOM     24  C   LIG    1       25.150 -31.245   6.508  0.00  0.00    +0.162 C 
ATOM     25  O   LIG    1       25.867 -31.913   5.757  0.00  0.00    -0.295 OA
BRANCH  24  26
ATOM     26  C   LIG    1       24.672 -29.863   6.074  0.00  0.00    +0.230 C 
BRANCH  26  27
ATOM     27  O   LIG    1       23.315 -29.885   5.657  0.00  0.00    -0.388 OA
ATOM     28  H   LIG    1       22.808 -29.403   6.342  0.00  0.00    +0.210 HD
ENDBRANCH  26  27
ENDBRANCH  24  26
ENDBRANCH   3  24
BRANCH   8  29
ATOM     29  O   LIG    1       25.683 -28.531  10.851  0.00  0.00    -0.390 OA
ATOM     30  H   LIG    1       25.221 -27.830  10.350  0.00  0.00    +0.210 HD
ENDBRANCH   8  29
TORSDOF 4
ENDMDL
MODEL 7
REMARK VINA RESULT:      -4.8      2.999      6.747
REMARK  Name = *****
REMARK                            x       y       z     vdW  Elec       q    Type
REMARK                         _______ _______ _______ _____ _____    ______ ____
ROOT
ATOM      1  C   LIG    1       20.346 -28.811  12.816  0.00  0.00    +0.008 C 
ATOM      2  C   LIG    1       20.203 -30.311  13.060  0.00  0.00    -0.003 C 
ATOM      3  C   LIG    1       19.973 -31.088  11.746  0.00  0.00    +0.067 C 
ATOM      4  C   LIG    1       20.734 -32.427  11.944  0.00  0.00    -0.017 C 
ATOM      5  C   LIG    1       22.012 -31.966  12.694  0.00  0.00    +0.001 C 
ATOM      6  C   LIG    1       23.130 -31.357  11.790  0.00  0.00    +0.020 C 
ATOM      7  C   LIG    1       23.462 -32.187  10.505  0.00  0.00    +0.087 C 
ATOM      8  C   LIG    1       22.115 -32.462   9.761  0.00  0.00    +0.137 C 
ATOM      9 CL   LIG    1       24.122 -33.825  11.032  0.00  0.00    -0.114 Cl
ATOM     10  C   LIG    1       24.586 -31.450   9.607  0.00  0.00    +0.032 C 
ATOM     11  C   LIG    1       25.779 -30.940  10.471  0.00  0.00    -0.021 C 
ATOM     12  C   LIG    1       26.793 -30.303   9.833  0.00  0.00    +0.054 C 
ATOM     13  C   LIG    1       26.274 -29.095   9.081  0.00  0.00    +0.179 C 
ATOM     14  C   LIG    1       24.845 -29.124   8.642  0.00  0.00    +0.047 C 
ATOM     15  O   LIG    1       27.023 -28.181   8.759  0.00  0.00    -0.288 OA
ATOM     16  C   LIG    1       25.434 -30.343  11.824  0.00  0.00    +0.194 C 
ATOM     17  F   LIG    1       24.928 -29.085  11.662  0.00  0.00    -0.241 F 
ATOM     18  C   LIG    1       25.144 -32.391   8.491  0.00  0.00    +0.022 C 
ATOM     19  C   LIG    1       24.074 -30.207   8.858  0.00  0.00    -0.010 C 
ATOM     20  C   LIG    1       24.410 -31.125  12.620  0.00  0.00    +0.047 C 
ATOM     21  C   LIG    1       19.939 -33.420  12.830  0.00  0.00    +0.012 C 
ATOM     22  C   LIG    1       21.054 -33.146  10.629  0.00  0.00    +0.040 C 
ATOM     23  C   LIG    1       21.463 -30.923  13.696  0.00  0.00    +0.008 C 
ENDROOT
BRANCH   3  24
ATOM     24  C   LIG    1       18.485 -31.228  11.428  0.00  0.00    +0.162 C 
ATOM     25  O   LIG    1       17.603 -31.133  12.285  0.00  0.00    -0.295 OA
BRANCH  24  26
ATOM     26  C   LIG    1       18.109 -31.510   9.976  0.00  0.00    +0.230 C 
BRANCH  26  27
ATOM     27  O   LIG    1       17.621 -30.346   9.326  0.00  0.00    -0.388 OA
ATOM     28  H   LIG    1       16.763 -30.593   8.925  0.00  0.00    +0.210 HD
ENDBRANCH  26  27
ENDBRANCH  24  26
ENDBRANCH   3  24
BRANCH   8  29
ATOM     29  O   LIG    1       22.271 -33.268   8.595  0.00  0.00    -0.390 OA
ATOM     30  H   LIG    1       21.935 -32.757   7.834  0.00  0.00    +0.210 HD
ENDBRANCH   8  29
TORSDOF 4
ENDMDL
MODEL 8
REMARK VINA RESULT:      -4.6      3.433      4.788
REMARK  Name = *****
REMARK                            x       y       z     vdW  Elec       q    Type
REMARK                         _______ _______ _______ _____ _____    ______ ____
ROOT
ATOM      1  C   LIG    1       23.878 -30.998   6.164  0.00  0.00    +0.008 C 
ATOM      2  C   LIG    1       25.030 -30.960   7.165  0.00  0.00    -0.003 C 
ATOM      3  C   LIG    1       24.860 -29.824   8.196  0.00  0.00    +0.067 C 
ATOM      4  C   LIG    1       25.419 -30.410   9.521  0.00  0.00    -0.017 C 
ATOM      5  C   LIG    1       24.915 -31.877   9.465  0.00  0.00    +0.001 C 
ATOM      6  C   LIG    1       23.428 -32.085   9.893  0.00  0.00    +0.020 C 
ATOM      7  C   LIG    1       23.018 -31.365  11.221  0.00  0.00    +0.087 C 
ATOM      8  C   LIG    1       23.445 -29.866  11.097  0.00  0.00    +0.137 C 
ATOM      9 CL   LIG    1       24.009 -32.087  12.597  0.00  0.00    -0.114 Cl
ATOM     10  C   LIG    1       21.452 -31.591  11.550  0.00  0.00    +0.032 C 
ATOM     11  C   LIG    1       21.028 -33.081  11.369  0.00  0.00    -0.021 C 
ATOM     12  C   LIG    1       19.733 -33.402  11.617  0.00  0.00    +0.054 C 
ATOM     13  C   LIG    1       18.805 -32.593  10.735  0.00  0.00    +0.179 C 
ATOM     14  C   LIG    1       19.300 -31.267  10.256  0.00  0.00    +0.047 C 
ATOM     15  O   LIG    1       17.660 -32.967  10.512  0.00  0.00    -0.288 OA
ATOM     16  C   LIG    1       21.629 -33.821  10.189  0.00  0.00    +0.194 C 
ATOM     17  F   LIG    1       21.010 -33.437   9.033  0.00  0.00    -0.241 F 
ATOM     18  C   LIG    1       21.094 -31.143  13.003  0.00  0.00    +0.022 C 
ATOM     19  C   LIG    1       20.499 -30.791  10.643  0.00  0.00    -0.010 C 
ATOM     20  C   LIG    1       23.112 -33.592   9.985  0.00  0.00    +0.047 C 
ATOM     21  C   LIG    1       26.968 -30.391   9.555  0.00  0.00    +0.012 C 
ATOM     22  C   LIG    1       24.928 -29.668  10.769  0.00  0.00    +0.040 C 
ATOM     23  C   LIG    1       25.137 -32.259   7.984  0.00  0.00    +0.008 C 
ENDROOT
BRANCH   3  24
ATOM     24  C   LIG    1       25.526 -28.531   7.725  0.00  0.00    +0.162 C 
ATOM     25  O   LIG    1       26.316 -27.891   8.424  0.00  0.00    -0.295 OA
BRANCH  24  26
ATOM     26  C   LIG    1       25.166 -28.033   6.329  0.00  0.00    +0.230 C 
BRANCH  26  27
ATOM     27  O   LIG    1       26.315 -27.907   5.505  0.00  0.00    -0.388 OA
ATOM     28  H   LIG    1       26.200 -27.079   4.996  0.00  0.00    +0.210 HD
ENDBRANCH  26  27
ENDBRANCH  24  26
ENDBRANCH   3  24
BRANCH   8  29
ATOM     29  O   LIG    1       23.181 -29.106  12.274  0.00  0.00    -0.390 OA
ATOM     30  H   LIG    1       23.888 -29.302  12.918  0.00  0.00    +0.210 HD
ENDBRANCH   8  29
TORSDOF 4
ENDMDL
MODEL 9
REMARK VINA RESULT:      -4.6      3.106      4.491
REMARK  Name = *****
REMARK                            x       y       z     vdW  Elec       q    Type
REMARK                         _______ _______ _______ _____ _____    ______ ____
ROOT
ATOM      1  C   LIG    1       25.428 -29.096   8.294  0.00  0.00    +0.008 C 
ATOM      2  C   LIG    1       24.629 -30.375   8.527  0.00  0.00    -0.003 C 
ATOM      3  C   LIG    1       25.448 -31.434   9.296  0.00  0.00    +0.067 C 
ATOM      4  C   LIG    1       24.412 -32.143  10.210  0.00  0.00    -0.017 C 
ATOM      5  C   LIG    1       23.516 -30.959  10.664  0.00  0.00    +0.001 C 
ATOM      6  C   LIG    1       24.095 -30.098  11.830  0.00  0.00    +0.020 C 
ATOM      7  C   LIG    1       24.654 -30.918  13.040  0.00  0.00    +0.087 C 
ATOM      8  C   LIG    1       25.652 -31.978  12.471  0.00  0.00    +0.137 C 
ATOM      9 CL   LIG    1       23.259 -31.856  13.795  0.00  0.00    -0.114 Cl
ATOM     10  C   LIG    1       25.281 -29.944  14.168  0.00  0.00    +0.032 C 
ATOM     11  C   LIG    1       24.346 -28.736  14.479  0.00  0.00    -0.021 C 
ATOM     12  C   LIG    1       24.759 -27.843  15.412  0.00  0.00    +0.054 C 
ATOM     13  C   LIG    1       26.097 -27.247  15.025  0.00  0.00    +0.179 C 
ATOM     14  C   LIG    1       26.985 -28.072  14.151  0.00  0.00    +0.047 C 
ATOM     15  O   LIG    1       26.474 -26.181  15.494  0.00  0.00    -0.288 OA
ATOM     16  C   LIG    1       23.635 -28.104  13.296  0.00  0.00    +0.194 C 
ATOM     17  F   LIG    1       24.509 -27.329  12.587  0.00  0.00    -0.241 F 
ATOM     18  C   LIG    1       25.568 -30.709  15.499  0.00  0.00    +0.022 C 
ATOM     19  C   LIG    1       26.629 -29.316  13.773  0.00  0.00    -0.010 C 
ATOM     20  C   LIG    1       23.033 -29.088  12.316  0.00  0.00    +0.047 C 
ATOM     21  C   LIG    1       23.558 -33.174   9.429  0.00  0.00    +0.012 C 
ATOM     22  C   LIG    1       25.049 -32.883  11.392  0.00  0.00    +0.040 C 
ATOM     23  C   LIG    1       23.363 -30.130   9.368  0.00  0.00    +0.008 C 
ENDROOT
BRANCH   3  24
ATOM     24  C   LIG    1       26.212 -32.355   8.345  0.00  0.00    +0.162 C 
ATOM     25  O   LIG    1       27.142 -33.076   8.713  0.00  0.00    -0.295 OA
BRANCH  24  26
ATOM     26  C   LIG    1       25.786 -32.348   6.880  0.00  0.00    +0.230 C 
BRANCH  26  27
ATOM     27  O   LIG    1       26.672 -31.580   6.080  0.00  0.00    -0.388 OA
ATOM     28  H   LIG    1       26.304 -30.673   6.054  0.00  0.00    +0.210 HD
ENDBRANCH  26  27
ENDBRANCH  24  26
ENDBRANCH   3  24
BRANCH   8  29
ATOM     29  O   LIG    1       26.192 -32.838  13.471  0.00  0.00    -0.390 OA
ATOM     30  H   LIG    1       27.043 -32.458  13.762  0.00  0.00    +0.210 HD
ENDBRANCH   8  29
TORSDOF 4
ENDMDL
