MODEL 1
REMARK VINA RESULT:     -10.4      0.000      0.000
REMARK  Name = *****
REMARK                            x       y       z     vdW  Elec       q    Type
REMARK                         _______ _______ _______ _____ _____    ______ ____
ROOT
ATOM      1  O   LIG    1       24.143 -23.427   4.863  0.00  0.00    -0.273 OA
ATOM      2  C   LIG    1       24.852 -22.867   5.690  0.00  0.00    +0.249 C 
ATOM      3  N   LIG    1       25.303 -21.536   5.712  0.00  0.00    -0.180 N 
ATOM      4  N   LIG    1       26.072 -21.308   6.884  0.00  0.00    -0.180 N 
ATOM      5  C   LIG    1       25.928 -22.387   7.757  0.00  0.00    +0.249 C 
ATOM      6  O   LIG    1       26.278 -22.492   8.926  0.00  0.00    -0.273 OA
ATOM      7  C   LIG    1       25.308 -23.515   6.972  0.00  0.00    +0.166 C 
ENDROOT
BRANCH   3   8
ATOM      8  C   LIG    1       24.451 -20.532   5.165  0.00  0.00    +0.057 A 
ATOM      9  C   LIG    1       24.805 -19.830   4.003  0.00  0.00    +0.025 A 
ATOM     10  C   LIG    1       23.958 -18.847   3.487  0.00  0.00    +0.002 A 
ATOM     11  C   LIG    1       22.739 -18.580   4.107  0.00  0.00    +0.000 A 
ATOM     12  C   LIG    1       22.369 -19.286   5.249  0.00  0.00    +0.002 A 
ATOM     13  C   LIG    1       23.227 -20.249   5.782  0.00  0.00    +0.025 A 
ENDBRANCH   3   8
BRANCH   4  14
ATOM     14  C   LIG    1       27.238 -20.466   6.867  0.00  0.00    +0.057 A 
ATOM     15  C   LIG    1       27.748 -19.955   5.662  0.00  0.00    +0.025 A 
ATOM     16  C   LIG    1       28.925 -19.196   5.627  0.00  0.00    +0.002 A 
ATOM     17  C   LIG    1       29.626 -18.941   6.799  0.00  0.00    +0.000 A 
ATOM     18  C   LIG    1       29.139 -19.428   8.005  0.00  0.00    +0.002 A 
ATOM     19  C   LIG    1       27.953 -20.173   8.038  0.00  0.00    +0.025 A 
ENDBRANCH   4  14
BRANCH   7  20
ATOM     20  C   LIG    1       26.311 -24.636   6.680  0.00  0.00    +0.036 C 
BRANCH  20  21
ATOM     21  C   LIG    1       25.678 -26.020   6.816  0.00  0.00    +0.110 C 
BRANCH  21  22
ATOM     22  S   LIG    1       25.656 -26.917   5.226  0.00  0.00    +0.054 S 
ATOM     23  O   LIG    1       27.082 -27.066   4.779  0.00  0.00    -0.252 OA
BRANCH  22  24
ATOM     24  C   LIG    1       25.181 -28.531   5.911  0.00  0.00    +0.039 A 
ATOM     25  C   LIG    1       25.364 -29.706   5.175  0.00  0.00    +0.017 A 
ATOM     26  C   LIG    1       25.040 -30.944   5.733  0.00  0.00    +0.001 A 
ATOM     27  C   LIG    1       24.530 -31.016   7.029  0.00  0.00    +0.000 A 
ATOM     28  C   LIG    1       24.327 -29.848   7.761  0.00  0.00    +0.001 A 
ATOM     29  C   LIG    1       24.641 -28.607   7.202  0.00  0.00    +0.017 A 
ENDBRANCH  22  24
ENDBRANCH  21  22
ENDBRANCH  20  21
ENDBRANCH   7  20
TORSDOF 6
ENDMDL
MODEL 2
REMARK VINA RESULT:      -8.8      0.794      4.094
REMARK  Name = *****
REMARK                            x       y       z     vdW  Elec       q    Type
REMARK                         _______ _______ _______ _____ _____    ______ ____
ROOT
ATOM      1  O   LIG    1       26.476 -23.312   7.878  0.00  0.00    -0.273 OA
ATOM      2  C   LIG    1       25.903 -22.861   6.895  0.00  0.00    +0.249 C 
ATOM      3  N   LIG    1       25.849 -21.534   6.434  0.00  0.00    -0.180 N 
ATOM      4  N   LIG    1       25.101 -21.472   5.228  0.00  0.00    -0.180 N 
ATOM      5  C   LIG    1       24.875 -22.765   4.751  0.00  0.00    +0.249 C 
ATOM      6  O   LIG    1       24.433 -23.125   3.667  0.00  0.00    -0.273 OA
ATOM      7  C   LIG    1       25.198 -23.717   5.874  0.00  0.00    +0.166 C 
ENDROOT
BRANCH   3   8
ATOM      8  C   LIG    1       26.985 -20.702   6.657  0.00  0.00    +0.057 A 
ATOM      9  C   LIG    1       27.434 -20.413   7.954  0.00  0.00    +0.025 A 
ATOM     10  C   LIG    1       28.546 -19.591   8.150  0.00  0.00    +0.002 A 
ATOM     11  C   LIG    1       29.238 -19.079   7.053  0.00  0.00    +0.000 A 
ATOM     12  C   LIG    1       28.813 -19.378   5.761  0.00  0.00    +0.002 A 
ATOM     13  C   LIG    1       27.685 -20.175   5.564  0.00  0.00    +0.025 A 
ENDBRANCH   3   8
BRANCH   4  14
ATOM     14  C   LIG    1       24.228 -20.368   4.940  0.00  0.00    +0.057 A 
ATOM     15  C   LIG    1       23.043 -20.168   5.669  0.00  0.00    +0.025 A 
ATOM     16  C   LIG    1       22.149 -19.139   5.348  0.00  0.00    +0.002 A 
ATOM     17  C   LIG    1       22.414 -18.292   4.279  0.00  0.00    +0.000 A 
ATOM     18  C   LIG    1       23.582 -18.463   3.547  0.00  0.00    +0.002 A 
ATOM     19  C   LIG    1       24.482 -19.483   3.881  0.00  0.00    +0.025 A 
ENDBRANCH   4  14
BRANCH   7  20
ATOM     20  C   LIG    1       23.939 -24.347   6.479  0.00  0.00    +0.036 C 
BRANCH  20  21
ATOM     21  C   LIG    1       24.030 -25.871   6.531  0.00  0.00    +0.110 C 
BRANCH  21  22
ATOM     22  S   LIG    1       25.246 -26.520   5.333  0.00  0.00    +0.054 S 
ATOM     23  O   LIG    1       26.608 -26.113   5.817  0.00  0.00    -0.252 OA
BRANCH  22  24
ATOM     24  C   LIG    1       25.062 -28.269   5.787  0.00  0.00    +0.039 A 
ATOM     25  C   LIG    1       25.505 -29.284   4.932  0.00  0.00    +0.017 A 
ATOM     26  C   LIG    1       25.403 -30.623   5.314  0.00  0.00    +0.001 A 
ATOM     27  C   LIG    1       24.856 -30.956   6.553  0.00  0.00    +0.000 A 
ATOM     28  C   LIG    1       24.394 -29.952   7.402  0.00  0.00    +0.001 A 
ATOM     29  C   LIG    1       24.488 -28.612   7.017  0.00  0.00    +0.017 A 
ENDBRANCH  22  24
ENDBRANCH  21  22
ENDBRANCH  20  21
ENDBRANCH   7  20
TORSDOF 6
ENDMDL
MODEL 3
REMARK VINA RESULT:      -8.8      3.027      8.372
REMARK  Name = *****
REMARK                            x       y       z     vdW  Elec       q    Type
REMARK                         _______ _______ _______ _____ _____    ______ ____
ROOT
ATOM      1  O   LIG    1       28.373 -22.884   7.143  0.00  0.00    -0.273 OA
ATOM      2  C   LIG    1       27.373 -22.179   7.195  0.00  0.00    +0.249 C 
ATOM      3  N   LIG    1       26.160 -22.311   6.497  0.00  0.00    -0.180 N 
ATOM      4  N   LIG    1       25.259 -21.289   6.897  0.00  0.00    -0.180 N 
ATOM      5  C   LIG    1       25.761 -20.637   8.025  0.00  0.00    +0.249 C 
ATOM      6  O   LIG    1       25.209 -19.834   8.767  0.00  0.00    -0.273 OA
ATOM      7  C   LIG    1       27.210 -21.032   8.159  0.00  0.00    +0.166 C 
ENDROOT
BRANCH   3   8
ATOM      8  C   LIG    1       25.711 -23.627   6.182  0.00  0.00    +0.057 A 
ATOM      9  C   LIG    1       25.095 -23.912   4.954  0.00  0.00    +0.025 A 
ATOM     10  C   LIG    1       24.658 -25.208   4.667  0.00  0.00    +0.002 A 
ATOM     11  C   LIG    1       24.860 -26.233   5.589  0.00  0.00    +0.000 A 
ATOM     12  C   LIG    1       25.489 -25.964   6.802  0.00  0.00    +0.002 A 
ATOM     13  C   LIG    1       25.901 -24.665   7.102  0.00  0.00    +0.025 A 
ENDBRANCH   3   8
BRANCH   4  14
ATOM     14  C   LIG    1       24.374 -20.656   5.958  0.00  0.00    +0.057 A 
ATOM     15  C   LIG    1       24.853 -20.134   4.745  0.00  0.00    +0.025 A 
ATOM     16  C   LIG    1       24.012 -19.451   3.857  0.00  0.00    +0.002 A 
ATOM     17  C   LIG    1       22.671 -19.263   4.170  0.00  0.00    +0.000 A 
ATOM     18  C   LIG    1       22.170 -19.776   5.360  0.00  0.00    +0.002 A 
ATOM     19  C   LIG    1       23.011 -20.473   6.237  0.00  0.00    +0.025 A 
ENDBRANCH   4  14
BRANCH   7  20
ATOM     20  C   LIG    1       28.158 -19.884   7.793  0.00  0.00    +0.036 C 
BRANCH  20  21
ATOM     21  C   LIG    1       29.600 -20.182   8.199  0.00  0.00    +0.110 C 
BRANCH  21  22
ATOM     22  S   LIG    1       30.785 -19.072   7.362  0.00  0.00    +0.054 S 
ATOM     23  O   LIG    1       30.003 -18.243   6.385  0.00  0.00    -0.252 OA
BRANCH  22  24
ATOM     24  C   LIG    1       31.095 -17.994   8.790  0.00  0.00    +0.039 A 
ATOM     25  C   LIG    1       30.162 -17.891   9.828  0.00  0.00    +0.017 A 
ATOM     26  C   LIG    1       30.434 -17.097  10.943  0.00  0.00    +0.001 A 
ATOM     27  C   LIG    1       31.639 -16.399  11.028  0.00  0.00    +0.000 A 
ATOM     28  C   LIG    1       32.565 -16.481   9.990  0.00  0.00    +0.001 A 
ATOM     29  C   LIG    1       32.290 -17.268   8.868  0.00  0.00    +0.017 A 
ENDBRANCH  22  24
ENDBRANCH  21  22
ENDBRANCH  20  21
ENDBRANCH   7  20
TORSDOF 6
ENDMDL
MODEL 4
REMARK VINA RESULT:      -8.1      3.364     10.119
REMARK  Name = *****
REMARK                            x       y       z     vdW  Elec       q    Type
REMARK                         _______ _______ _______ _____ _____    ______ ____
ROOT
ATOM      1  O   LIG    1       26.311 -28.175   9.007  0.00  0.00    -0.273 OA
ATOM      2  C   LIG    1       25.713 -28.691   8.070  0.00  0.00    +0.249 C 
ATOM      3  N   LIG    1       25.387 -30.043   7.866  0.00  0.00    -0.180 N 
ATOM      4  N   LIG    1       24.653 -30.185   6.659  0.00  0.00    -0.180 N 
ATOM      5  C   LIG    1       24.270 -28.925   6.193  0.00  0.00    +0.249 C 
ATOM      6  O   LIG    1       23.487 -28.635   5.297  0.00  0.00    -0.273 OA
ATOM      7  C   LIG    1       25.082 -27.906   6.950  0.00  0.00    +0.166 C 
ENDROOT
BRANCH   3   8
ATOM      8  C   LIG    1       25.111 -30.844   9.012  0.00  0.00    +0.057 A 
ATOM      9  C   LIG    1       25.944 -31.915   9.371  0.00  0.00    +0.025 A 
ATOM     10  C   LIG    1       25.651 -32.691  10.496  0.00  0.00    +0.002 A 
ATOM     11  C   LIG    1       24.546 -32.384  11.287  0.00  0.00    +0.000 A 
ATOM     12  C   LIG    1       23.726 -31.311  10.952  0.00  0.00    +0.002 A 
ATOM     13  C   LIG    1       23.999 -30.552   9.813  0.00  0.00    +0.025 A 
ENDBRANCH   3   8
BRANCH   4  14
ATOM     14  C   LIG    1       24.840 -31.316   5.793  0.00  0.00    +0.057 A 
ATOM     15  C   LIG    1       25.908 -31.365   4.881  0.00  0.00    +0.025 A 
ATOM     16  C   LIG    1       26.057 -32.428   3.981  0.00  0.00    +0.002 A 
ATOM     17  C   LIG    1       25.131 -33.464   3.966  0.00  0.00    +0.000 A 
ATOM     18  C   LIG    1       24.070 -33.444   4.862  0.00  0.00    +0.002 A 
ATOM     19  C   LIG    1       23.934 -32.387   5.771  0.00  0.00    +0.025 A 
ENDBRANCH   4  14
BRANCH   7  20
ATOM     20  C   LIG    1       26.161 -27.259   6.073  0.00  0.00    +0.036 C 
BRANCH  20  21
ATOM     21  C   LIG    1       26.262 -25.753   6.308  0.00  0.00    +0.110 C 
BRANCH  21  22
ATOM     22  S   LIG    1       24.875 -24.850   5.534  0.00  0.00    +0.054 S 
ATOM     23  O   LIG    1       23.616 -25.301   6.215  0.00  0.00    -0.252 OA
BRANCH  22  24
ATOM     24  C   LIG    1       25.269 -23.227   6.247  0.00  0.00    +0.039 A 
ATOM     25  C   LIG    1       24.925 -22.046   5.580  0.00  0.00    +0.017 A 
ATOM     26  C   LIG    1       25.190 -20.805   6.162  0.00  0.00    +0.001 A 
ATOM     27  C   LIG    1       25.801 -20.735   7.413  0.00  0.00    +0.000 A 
ATOM     28  C   LIG    1       26.165 -21.906   8.076  0.00  0.00    +0.001 A 
ATOM     29  C   LIG    1       25.909 -23.149   7.491  0.00  0.00    +0.017 A 
ENDBRANCH  22  24
ENDBRANCH  21  22
ENDBRANCH  20  21
ENDBRANCH   7  20
TORSDOF 6
ENDMDL
MODEL 5
REMARK VINA RESULT:      -8.1      3.479      9.572
REMARK  Name = *****
REMARK                            x       y       z     vdW  Elec       q    Type
REMARK                         _______ _______ _______ _____ _____    ______ ____
ROOT
ATOM      1  O   LIG    1       24.060 -28.662   4.338  0.00  0.00    -0.273 OA
ATOM      2  C   LIG    1       24.516 -28.594   5.472  0.00  0.00    +0.249 C 
ATOM      3  N   LIG    1       24.607 -29.598   6.451  0.00  0.00    -0.180 N 
ATOM      4  N   LIG    1       25.246 -29.085   7.611  0.00  0.00    -0.180 N 
ATOM      5  C   LIG    1       25.802 -27.837   7.326  0.00  0.00    +0.249 C 
ATOM      6  O   LIG    1       26.574 -27.161   7.994  0.00  0.00    -0.273 OA
ATOM      7  C   LIG    1       25.207 -27.372   6.021  0.00  0.00    +0.166 C 
ENDROOT
BRANCH   3   8
ATOM      8  C   LIG    1       24.809 -30.941   6.014  0.00  0.00    +0.057 A 
ATOM      9  C   LIG    1       23.774 -31.886   6.061  0.00  0.00    +0.025 A 
ATOM     10  C   LIG    1       23.995 -33.197   5.633  0.00  0.00    +0.002 A 
ATOM     11  C   LIG    1       25.240 -33.566   5.125  0.00  0.00    +0.000 A 
ATOM     12  C   LIG    1       26.267 -32.629   5.054  0.00  0.00    +0.002 A 
ATOM     13  C   LIG    1       26.057 -31.326   5.508  0.00  0.00    +0.025 A 
ENDBRANCH   3   8
BRANCH   4  14
ATOM     14  C   LIG    1       24.832 -29.474   8.931  0.00  0.00    +0.057 A 
ATOM     15  C   LIG    1       25.712 -29.392  10.023  0.00  0.00    +0.025 A 
ATOM     16  C   LIG    1       25.342 -29.837  11.299  0.00  0.00    +0.002 A 
ATOM     17  C   LIG    1       24.084 -30.388  11.509  0.00  0.00    +0.000 A 
ATOM     18  C   LIG    1       23.192 -30.475  10.447  0.00  0.00    +0.002 A 
ATOM     19  C   LIG    1       23.559 -30.013   9.177  0.00  0.00    +0.025 A 
ENDBRANCH   4  14
BRANCH   7  20
ATOM     20  C   LIG    1       24.203 -26.230   6.217  0.00  0.00    +0.036 C 
BRANCH  20  21
ATOM     21  C   LIG    1       24.723 -24.909   5.654  0.00  0.00    +0.110 C 
BRANCH  21  22
ATOM     22  S   LIG    1       24.964 -23.659   6.964  0.00  0.00    +0.054 S 
ATOM     23  O   LIG    1       26.437 -23.377   7.044  0.00  0.00    -0.252 OA
BRANCH  22  24
ATOM     24  C   LIG    1       24.242 -22.266   6.050  0.00  0.00    +0.039 A 
ATOM     25  C   LIG    1       23.370 -21.370   6.677  0.00  0.00    +0.017 A 
ATOM     26  C   LIG    1       22.860 -20.275   5.976  0.00  0.00    +0.001 A 
ATOM     27  C   LIG    1       23.218 -20.070   4.644  0.00  0.00    +0.000 A 
ATOM     28  C   LIG    1       24.070 -20.969   4.006  0.00  0.00    +0.001 A 
ATOM     29  C   LIG    1       24.574 -22.071   4.703  0.00  0.00    +0.017 A 
ENDBRANCH  22  24
ENDBRANCH  21  22
ENDBRANCH  20  21
ENDBRANCH   7  20
TORSDOF 6
ENDMDL
MODEL 6
REMARK VINA RESULT:      -8.1      3.428      9.686
REMARK  Name = *****
REMARK                            x       y       z     vdW  Elec       q    Type
REMARK                         _______ _______ _______ _____ _____    ______ ____
ROOT
ATOM      1  O   LIG    1       24.447 -28.801   4.577  0.00  0.00    -0.273 OA
ATOM      2  C   LIG    1       24.754 -28.828   5.762  0.00  0.00    +0.249 C 
ATOM      3  N   LIG    1       24.632 -29.882   6.684  0.00  0.00    -0.180 N 
ATOM      4  N   LIG    1       25.152 -29.484   7.943  0.00  0.00    -0.180 N 
ATOM      5  C   LIG    1       25.843 -28.279   7.805  0.00  0.00    +0.249 C 
ATOM      6  O   LIG    1       26.573 -27.707   8.605  0.00  0.00    -0.273 OA
ATOM      7  C   LIG    1       25.465 -27.701   6.465  0.00  0.00    +0.166 C 
ENDROOT
BRANCH   3   8
ATOM      8  C   LIG    1       24.778 -31.215   6.198  0.00  0.00    +0.057 A 
ATOM      9  C   LIG    1       23.668 -32.057   6.035  0.00  0.00    +0.025 A 
ATOM     10  C   LIG    1       23.834 -33.361   5.563  0.00  0.00    +0.002 A 
ATOM     11  C   LIG    1       25.103 -33.823   5.220  0.00  0.00    +0.000 A 
ATOM     12  C   LIG    1       26.209 -32.988   5.358  0.00  0.00    +0.002 A 
ATOM     13  C   LIG    1       26.049 -31.695   5.857  0.00  0.00    +0.025 A 
ENDBRANCH   3   8
BRANCH   4  14
ATOM     14  C   LIG    1       24.537 -29.896   9.176  0.00  0.00    +0.057 A 
ATOM     15  C   LIG    1       23.185 -30.273   9.224  0.00  0.00    +0.025 A 
ATOM     16  C   LIG    1       22.558 -30.605  10.432  0.00  0.00    +0.002 A 
ATOM     17  C   LIG    1       23.269 -30.555  11.624  0.00  0.00    +0.000 A 
ATOM     18  C   LIG    1       24.610 -30.194  11.604  0.00  0.00    +0.002 A 
ATOM     19  C   LIG    1       25.238 -29.879  10.392  0.00  0.00    +0.025 A 
ENDBRANCH   4  14
BRANCH   7  20
ATOM     20  C   LIG    1       24.542 -26.484   6.599  0.00  0.00    +0.036 C 
BRANCH  20  21
ATOM     21  C   LIG    1       25.210 -25.202   6.104  0.00  0.00    +0.110 C 
BRANCH  21  22
ATOM     22  S   LIG    1       24.019 -23.825   5.965  0.00  0.00    +0.054 S 
ATOM     23  O   LIG    1       22.827 -24.182   6.806  0.00  0.00    -0.252 OA
BRANCH  22  24
ATOM     24  C   LIG    1       24.976 -22.631   6.943  0.00  0.00    +0.039 A 
ATOM     25  C   LIG    1       26.353 -22.795   7.129  0.00  0.00    +0.017 A 
ATOM     26  C   LIG    1       27.085 -21.844   7.842  0.00  0.00    +0.001 A 
ATOM     27  C   LIG    1       26.447 -20.724   8.374  0.00  0.00    +0.000 A 
ATOM     28  C   LIG    1       25.072 -20.564   8.210  0.00  0.00    +0.001 A 
ATOM     29  C   LIG    1       24.336 -21.519   7.505  0.00  0.00    +0.017 A 
ENDBRANCH  22  24
ENDBRANCH  21  22
ENDBRANCH  20  21
ENDBRANCH   7  20
TORSDOF 6
ENDMDL
MODEL 7
REMARK VINA RESULT:      -7.8      4.495      9.793
REMARK  Name = *****
REMARK                            x       y       z     vdW  Elec       q    Type
REMARK                         _______ _______ _______ _____ _____    ______ ____
ROOT
ATOM      1  O   LIG    1       23.632 -29.819   7.447  0.00  0.00    -0.273 OA
ATOM      2  C   LIG    1       24.366 -29.851   8.427  0.00  0.00    +0.249 C 
ATOM      3  N   LIG    1       24.069 -30.246   9.742  0.00  0.00    -0.180 N 
ATOM      4  N   LIG    1       25.236 -30.161  10.547  0.00  0.00    -0.180 N 
ATOM      5  C   LIG    1       26.352 -29.958   9.733  0.00  0.00    +0.249 C 
ATOM      6  O   LIG    1       27.541 -30.009  10.021  0.00  0.00    -0.273 OA
ATOM      7  C   LIG    1       25.843 -29.557   8.372  0.00  0.00    +0.166 C 
ENDROOT
BRANCH   3   8
ATOM      8  C   LIG    1       23.103 -31.278   9.928  0.00  0.00    +0.057 A 
ATOM      9  C   LIG    1       23.420 -32.624   9.694  0.00  0.00    +0.025 A 
ATOM     10  C   LIG    1       22.456 -33.619   9.877  0.00  0.00    +0.002 A 
ATOM     11  C   LIG    1       21.181 -33.282  10.326  0.00  0.00    +0.000 A 
ATOM     12  C   LIG    1       20.863 -31.950  10.581  0.00  0.00    +0.002 A 
ATOM     13  C   LIG    1       21.815 -30.952  10.371  0.00  0.00    +0.025 A 
ENDBRANCH   3   8
BRANCH   4  14
ATOM     14  C   LIG    1       25.176 -29.724  11.915  0.00  0.00    +0.057 A 
ATOM     15  C   LIG    1       25.356 -28.373  12.257  0.00  0.00    +0.025 A 
ATOM     16  C   LIG    1       25.373 -27.950  13.591  0.00  0.00    +0.002 A 
ATOM     17  C   LIG    1       25.222 -28.873  14.619  0.00  0.00    +0.000 A 
ATOM     18  C   LIG    1       25.034 -30.214  14.309  0.00  0.00    +0.002 A 
ATOM     19  C   LIG    1       25.001 -30.631  12.972  0.00  0.00    +0.025 A 
ENDBRANCH   4  14
BRANCH   7  20
ATOM     20  C   LIG    1       26.085 -28.073   8.077  0.00  0.00    +0.036 C 
BRANCH  20  21
ATOM     21  C   LIG    1       25.390 -27.623   6.793  0.00  0.00    +0.110 C 
BRANCH  21  22
ATOM     22  S   LIG    1       26.346 -26.338   5.916  0.00  0.00    +0.054 S 
ATOM     23  O   LIG    1       26.083 -26.512   4.448  0.00  0.00    -0.252 OA
BRANCH  22  24
ATOM     24  C   LIG    1       25.323 -24.932   6.441  0.00  0.00    +0.039 A 
ATOM     25  C   LIG    1       25.909 -23.765   6.943  0.00  0.00    +0.017 A 
ATOM     26  C   LIG    1       25.113 -22.674   7.297  0.00  0.00    +0.001 A 
ATOM     27  C   LIG    1       23.728 -22.742   7.152  0.00  0.00    +0.000 A 
ATOM     28  C   LIG    1       23.135 -23.908   6.671  0.00  0.00    +0.001 A 
ATOM     29  C   LIG    1       23.929 -25.005   6.325  0.00  0.00    +0.017 A 
ENDBRANCH  22  24
ENDBRANCH  21  22
ENDBRANCH  20  21
ENDBRANCH   7  20
TORSDOF 6
ENDMDL
MODEL 8
REMARK VINA RESULT:      -7.6      4.369      7.253
REMARK  Name = *****
REMARK                            x       y       z     vdW  Elec       q    Type
REMARK                         _______ _______ _______ _____ _____    ______ ____
ROOT
ATOM      1  O   LIG    1       26.045 -28.007   4.141  0.00  0.00    -0.273 OA
ATOM      2  C   LIG    1       25.597 -28.505   5.166  0.00  0.00    +0.249 C 
ATOM      3  N   LIG    1       25.465 -27.933   6.443  0.00  0.00    -0.180 N 
ATOM      4  N   LIG    1       24.855 -28.862   7.327  0.00  0.00    -0.180 N 
ATOM      5  C   LIG    1       24.354 -29.943   6.598  0.00  0.00    +0.249 C 
ATOM      6  O   LIG    1       23.615 -30.849   6.963  0.00  0.00    -0.273 OA
ATOM      7  C   LIG    1       24.964 -29.872   5.222  0.00  0.00    +0.166 C 
ENDROOT
BRANCH   3   8
ATOM      8  C   LIG    1       25.201 -26.534   6.525  0.00  0.00    +0.057 A 
ATOM      9  C   LIG    1       26.204 -25.624   6.890  0.00  0.00    +0.025 A 
ATOM     10  C   LIG    1       25.922 -24.258   6.969  0.00  0.00    +0.002 A 
ATOM     11  C   LIG    1       24.649 -23.788   6.653  0.00  0.00    +0.000 A 
ATOM     12  C   LIG    1       23.653 -24.681   6.269  0.00  0.00    +0.002 A 
ATOM     13  C   LIG    1       23.924 -26.049   6.217  0.00  0.00    +0.025 A 
ENDBRANCH   3   8
BRANCH   4  14
ATOM     14  C   LIG    1       25.256 -28.966   8.703  0.00  0.00    +0.057 A 
ATOM     15  C   LIG    1       26.546 -28.592   9.115  0.00  0.00    +0.025 A 
ATOM     16  C   LIG    1       26.971 -28.759  10.439  0.00  0.00    +0.002 A 
ATOM     17  C   LIG    1       26.116 -29.317  11.382  0.00  0.00    +0.000 A 
ATOM     18  C   LIG    1       24.832 -29.688  11.003  0.00  0.00    +0.002 A 
ATOM     19  C   LIG    1       24.405 -29.504   9.681  0.00  0.00    +0.025 A 
ENDBRANCH   4  14
BRANCH   7  20
ATOM     20  C   LIG    1       26.018 -30.962   4.999  0.00  0.00    +0.036 C 
BRANCH  20  21
ATOM     21  C   LIG    1       25.394 -32.276   4.533  0.00  0.00    +0.110 C 
BRANCH  21  22
ATOM     22  S   LIG    1       26.345 -33.723   5.111  0.00  0.00    +0.054 S 
ATOM     23  O   LIG    1       27.790 -33.461   4.795  0.00  0.00    -0.252 OA
BRANCH  22  24
ATOM     24  C   LIG    1       26.158 -33.391   6.887  0.00  0.00    +0.039 A 
ATOM     25  C   LIG    1       27.140 -32.688   7.593  0.00  0.00    +0.017 A 
ATOM     26  C   LIG    1       26.962 -32.397   8.947  0.00  0.00    +0.001 A 
ATOM     27  C   LIG    1       25.802 -32.807   9.603  0.00  0.00    +0.000 A 
ATOM     28  C   LIG    1       24.828 -33.524   8.912  0.00  0.00    +0.001 A 
ATOM     29  C   LIG    1       25.009 -33.825   7.559  0.00  0.00    +0.017 A 
ENDBRANCH  22  24
ENDBRANCH  21  22
ENDBRANCH  20  21
ENDBRANCH   7  20
TORSDOF 6
ENDMDL
MODEL 9
REMARK VINA RESULT:      -7.5      5.906      9.339
REMARK  Name = *****
REMARK                            x       y       z     vdW  Elec       q    Type
REMARK                         _______ _______ _______ _____ _____    ______ ____
ROOT
ATOM      1  O   LIG    1       20.939 -30.739  10.202  0.00  0.00    -0.273 OA
ATOM      2  C   LIG    1       22.055 -30.633  10.695  0.00  0.00    +0.249 C 
ATOM      3  N   LIG    1       22.544 -29.651  11.575  0.00  0.00    -0.180 N 
ATOM      4  N   LIG    1       23.888 -29.944  11.924  0.00  0.00    -0.180 N 
ATOM      5  C   LIG    1       24.215 -31.231  11.494  0.00  0.00    +0.249 C 
ATOM      6  O   LIG    1       25.200 -31.910  11.755  0.00  0.00    -0.273 OA
ATOM      7  C   LIG    1       23.143 -31.662  10.526  0.00  0.00    +0.166 C 
ENDROOT
BRANCH   3   8
ATOM      8  C   LIG    1       21.632 -29.078  12.510  0.00  0.00    +0.057 A 
ATOM      9  C   LIG    1       20.971 -29.867  13.462  0.00  0.00    +0.025 A 
ATOM     10  C   LIG    1       20.078 -29.285  14.365  0.00  0.00    +0.002 A 
ATOM     11  C   LIG    1       19.864 -27.908  14.346  0.00  0.00    +0.000 A 
ATOM     12  C   LIG    1       20.532 -27.113  13.418  0.00  0.00    +0.002 A 
ATOM     13  C   LIG    1       21.402 -27.696  12.496  0.00  0.00    +0.025 A 
ENDBRANCH   3   8
BRANCH   4  14
ATOM     14  C   LIG    1       24.866 -28.903  12.091  0.00  0.00    +0.057 A 
ATOM     15  C   LIG    1       25.897 -28.717  11.154  0.00  0.00    +0.025 A 
ATOM     16  C   LIG    1       26.896 -27.754  11.345  0.00  0.00    +0.002 A 
ATOM     17  C   LIG    1       26.894 -26.962  12.486  0.00  0.00    +0.000 A 
ATOM     18  C   LIG    1       25.882 -27.121  13.425  0.00  0.00    +0.002 A 
ATOM     19  C   LIG    1       24.875 -28.073  13.222  0.00  0.00    +0.025 A 
ENDBRANCH   4  14
BRANCH   7  20
ATOM     20  C   LIG    1       23.644 -31.680   9.078  0.00  0.00    +0.036 C 
BRANCH  20  21
ATOM     21  C   LIG    1       23.966 -30.277   8.566  0.00  0.00    +0.110 C 
BRANCH  21  22
ATOM     22  S   LIG    1       24.527 -30.299   6.828  0.00  0.00    +0.054 S 
ATOM     23  O   LIG    1       23.317 -30.552   5.974  0.00  0.00    -0.252 OA
BRANCH  22  24
ATOM     24  C   LIG    1       24.860 -28.519   6.701  0.00  0.00    +0.039 A 
ATOM     25  C   LIG    1       25.830 -27.911   7.505  0.00  0.00    +0.017 A 
ATOM     26  C   LIG    1       26.111 -26.550   7.363  0.00  0.00    +0.001 A 
ATOM     27  C   LIG    1       25.424 -25.790   6.417  0.00  0.00    +0.000 A 
ATOM     28  C   LIG    1       24.443 -26.384   5.626  0.00  0.00    +0.001 A 
ATOM     29  C   LIG    1       24.154 -27.743   5.773  0.00  0.00    +0.017 A 
ENDBRANCH  22  24
ENDBRANCH  21  22
ENDBRANCH  20  21
ENDBRANCH   7  20
TORSDOF 6
ENDMDL
