MODEL 1
REMARK VINA RESULT:      -6.7      0.000      0.000
REMARK  Name = *****
REMARK                            x       y       z     vdW  Elec       q    Type
REMARK                         _______ _______ _______ _____ _____    ______ ____
ROOT
ATOM      1  O   LIG    1       22.586 -19.888   8.238  0.00  0.00    -0.245 OA
ATOM      2  C   LIG    1       23.402 -20.448   7.537  0.00  0.00    +0.341 C 
ATOM      3  C   LIG    1       23.571 -20.273   6.101  0.00  0.00    +0.067 A 
ATOM      4  C   LIG    1       24.629 -21.051   5.677  0.00  0.00    +0.019 A 
ATOM      5  C   LIG    1       25.006 -21.063   4.341  0.00  0.00    +0.009 A 
ATOM      6  C   LIG    1       24.281 -20.275   3.445  0.00  0.00    +0.001 A 
ATOM      7  C   LIG    1       23.199 -19.494   3.889  0.00  0.00    +0.001 A 
ATOM      8  C   LIG    1       25.183 -21.802   6.848  0.00  0.00    +0.196 C 
ATOM      9  C   LIG    1       25.002 -23.296   6.690  0.00  0.00    +0.047 A 
ATOM     10  C   LIG    1       26.118 -24.135   6.674  0.00  0.00    +0.140 A 
ATOM     11  C   LIG    1       25.973 -25.508   6.445  0.00  0.00    +0.092 A 
ATOM     12  C   LIG    1       24.704 -26.041   6.229  0.00  0.00    +0.120 A 
ATOM     13  C   LIG    1       23.581 -25.229   6.254  0.00  0.00    +0.046 A 
ATOM     14  O   LIG    1       27.407 -23.690   6.861  0.00  0.00    -0.455 OA
ATOM     15  C   LIG    1       27.622 -22.360   7.134  0.00  0.00    +0.140 A 
ATOM     16  C   LIG    1       28.948 -21.990   7.380  0.00  0.00    +0.092 A 
ATOM     17  C   LIG    1       29.261 -20.660   7.647  0.00  0.00    +0.120 A 
ATOM     18  C   LIG    1       28.270 -19.689   7.682  0.00  0.00    +0.046 A 
ATOM     19  C   LIG    1       26.948 -20.060   7.446  0.00  0.00    +0.015 A 
ATOM     20  C   LIG    1       23.726 -23.864   6.491  0.00  0.00    +0.015 A 
ATOM     21  C   LIG    1       26.608 -21.400   7.161  0.00  0.00    +0.047 A 
ATOM     22  C   LIG    1       22.835 -19.485   5.236  0.00  0.00    +0.015 A 
ATOM     23  O   LIG    1       24.340 -21.352   7.943  0.00  0.00    -0.440 OA
ENDROOT
BRANCH  12  24
ATOM     24  O   LIG    1       24.513 -27.368   5.982  0.00  0.00    -0.507 OA
ATOM     25  H   LIG    1       24.984 -27.884   6.656  0.00  0.00    +0.292 HD
ENDBRANCH  12  24
BRANCH  17  26
ATOM     26  O   LIG    1       30.567 -20.340   7.869  0.00  0.00    -0.507 OA
ATOM     27  H   LIG    1       31.114 -20.776   7.193  0.00  0.00    +0.292 HD
ENDBRANCH  17  26
TORSDOF 2
ENDMDL
MODEL 2
REMARK VINA RESULT:      -6.5      5.618      9.370
REMARK  Name = *****
REMARK                            x       y       z     vdW  Elec       q    Type
REMARK                         _______ _______ _______ _____ _____    ______ ____
ROOT
ATOM      1  O   LIG    1       22.220 -31.924   8.767  0.00  0.00    -0.245 OA
ATOM      2  C   LIG    1       23.319 -31.440   8.601  0.00  0.00    +0.341 C 
ATOM      3  C   LIG    1       24.480 -32.111   8.030  0.00  0.00    +0.067 A 
ATOM      4  C   LIG    1       25.529 -31.216   7.970  0.00  0.00    +0.019 A 
ATOM      5  C   LIG    1       26.759 -31.604   7.457  0.00  0.00    +0.009 A 
ATOM      6  C   LIG    1       26.902 -32.921   7.015  0.00  0.00    +0.001 A 
ATOM      7  C   LIG    1       25.828 -33.825   7.091  0.00  0.00    +0.001 A 
ATOM      8  C   LIG    1       25.086 -29.906   8.541  0.00  0.00    +0.196 C 
ATOM      9  C   LIG    1       25.851 -29.558   9.800  0.00  0.00    +0.047 A 
ATOM     10  C   LIG    1       26.610 -28.386   9.852  0.00  0.00    +0.140 A 
ATOM     11  C   LIG    1       27.389 -28.094  10.978  0.00  0.00    +0.092 A 
ATOM     12  C   LIG    1       27.408 -28.979  12.053  0.00  0.00    +0.120 A 
ATOM     13  C   LIG    1       26.652 -30.141  12.028  0.00  0.00    +0.046 A 
ATOM     14  O   LIG    1       26.661 -27.467   8.830  0.00  0.00    -0.455 OA
ATOM     15  C   LIG    1       25.888 -27.667   7.711  0.00  0.00    +0.140 A 
ATOM     16  C   LIG    1       25.938 -26.660   6.742  0.00  0.00    +0.092 A 
ATOM     17  C   LIG    1       25.201 -26.788   5.568  0.00  0.00    +0.120 A 
ATOM     18  C   LIG    1       24.405 -27.903   5.345  0.00  0.00    +0.046 A 
ATOM     19  C   LIG    1       24.349 -28.902   6.315  0.00  0.00    +0.015 A 
ATOM     20  C   LIG    1       25.870 -30.427  10.911  0.00  0.00    +0.015 A 
ATOM     21  C   LIG    1       25.097 -28.800   7.508  0.00  0.00    +0.047 A 
ATOM     22  C   LIG    1       24.594 -33.420   7.601  0.00  0.00    +0.015 A 
ATOM     23  O   LIG    1       23.703 -30.166   8.904  0.00  0.00    -0.440 OA
ENDROOT
BRANCH  12  24
ATOM     24  O   LIG    1       28.166 -28.748  13.162  0.00  0.00    -0.507 OA
ATOM     25  H   LIG    1       27.743 -29.173  13.926  0.00  0.00    +0.292 HD
ENDBRANCH  12  24
BRANCH  17  26
ATOM     26  O   LIG    1       25.287 -25.789   4.644  0.00  0.00    -0.507 OA
ATOM     27  H   LIG    1       25.776 -25.045   5.035  0.00  0.00    +0.292 HD
ENDBRANCH  17  26
TORSDOF 2
ENDMDL
MODEL 3
REMARK VINA RESULT:      -6.5      7.897     10.665
REMARK  Name = *****
REMARK                            x       y       z     vdW  Elec       q    Type
REMARK                         _______ _______ _______ _____ _____    ______ ____
ROOT
ATOM      1  O   LIG    1       25.991 -33.600   8.828  0.00  0.00    -0.245 OA
ATOM      2  C   LIG    1       25.515 -32.501   9.021  0.00  0.00    +0.341 C 
ATOM      3  C   LIG    1       25.266 -31.480   8.013  0.00  0.00    +0.067 A 
ATOM      4  C   LIG    1       24.679 -30.387   8.618  0.00  0.00    +0.019 A 
ATOM      5  C   LIG    1       24.332 -29.269   7.873  0.00  0.00    +0.009 A 
ATOM      6  C   LIG    1       24.602 -29.281   6.503  0.00  0.00    +0.001 A 
ATOM      7  C   LIG    1       25.210 -30.396   5.900  0.00  0.00    +0.001 A 
ATOM      8  C   LIG    1       24.547 -30.654  10.085  0.00  0.00    +0.196 C 
ATOM      9  C   LIG    1       25.393 -29.703  10.904  0.00  0.00    +0.047 A 
ATOM     10  C   LIG    1       24.787 -28.863  11.840  0.00  0.00    +0.140 A 
ATOM     11  C   LIG    1       25.545 -27.919  12.545  0.00  0.00    +0.092 A 
ATOM     12  C   LIG    1       26.913 -27.818  12.308  0.00  0.00    +0.120 A 
ATOM     13  C   LIG    1       27.538 -28.652  11.392  0.00  0.00    +0.046 A 
ATOM     14  O   LIG    1       23.441 -28.885  12.123  0.00  0.00    -0.455 OA
ATOM     15  C   LIG    1       22.642 -29.815  11.502  0.00  0.00    +0.140 A 
ATOM     16  C   LIG    1       21.297 -29.825  11.886  0.00  0.00    +0.092 A 
ATOM     17  C   LIG    1       20.411 -30.721  11.295  0.00  0.00    +0.120 A 
ATOM     18  C   LIG    1       20.846 -31.617  10.328  0.00  0.00    +0.046 A 
ATOM     19  C   LIG    1       22.187 -31.612   9.951  0.00  0.00    +0.015 A 
ATOM     20  C   LIG    1       26.784 -29.596  10.699  0.00  0.00    +0.015 A 
ATOM     21  C   LIG    1       23.102 -30.705  10.529  0.00  0.00    +0.047 A 
ATOM     22  C   LIG    1       25.546 -31.518   6.659  0.00  0.00    +0.015 A 
ATOM     23  O   LIG    1       25.103 -31.991  10.218  0.00  0.00    -0.440 OA
ENDROOT
BRANCH  12  24
ATOM     24  O   LIG    1       27.690 -26.902  12.953  0.00  0.00    -0.507 OA
ATOM     25  H   LIG    1       28.160 -26.367  12.293  0.00  0.00    +0.292 HD
ENDBRANCH  12  24
BRANCH  17  26
ATOM     26  O   LIG    1       19.107 -30.691  11.690  0.00  0.00    -0.507 OA
ATOM     27  H   LIG    1       18.664 -29.950  11.243  0.00  0.00    +0.292 HD
ENDBRANCH  17  26
TORSDOF 2
ENDMDL
MODEL 4
REMARK VINA RESULT:      -6.4      8.043     10.537
REMARK  Name = *****
REMARK                            x       y       z     vdW  Elec       q    Type
REMARK                         _______ _______ _______ _____ _____    ______ ____
ROOT
ATOM      1  O   LIG    1       26.528 -31.231  14.229  0.00  0.00    -0.245 OA
ATOM      2  C   LIG    1       26.251 -30.165  13.721  0.00  0.00    +0.341 C 
ATOM      3  C   LIG    1       26.544 -29.759  12.353  0.00  0.00    +0.067 A 
ATOM      4  C   LIG    1       26.034 -28.494  12.143  0.00  0.00    +0.019 A 
ATOM      5  C   LIG    1       26.173 -27.872  10.910  0.00  0.00    +0.009 A 
ATOM      6  C   LIG    1       26.849 -28.558   9.899  0.00  0.00    +0.001 A 
ATOM      7  C   LIG    1       27.372 -29.843  10.129  0.00  0.00    +0.001 A 
ATOM      8  C   LIG    1       25.400 -28.007  13.409  0.00  0.00    +0.196 C 
ATOM      9  C   LIG    1       26.124 -26.802  13.969  0.00  0.00    +0.047 A 
ATOM     10  C   LIG    1       25.441 -25.595  14.134  0.00  0.00    +0.140 A 
ATOM     11  C   LIG    1       26.118 -24.450  14.572  0.00  0.00    +0.092 A 
ATOM     12  C   LIG    1       27.483 -24.516  14.843  0.00  0.00    +0.120 A 
ATOM     13  C   LIG    1       28.177 -25.708  14.699  0.00  0.00    +0.046 A 
ATOM     14  O   LIG    1       24.100 -25.437  13.874  0.00  0.00    -0.455 OA
ATOM     15  C   LIG    1       23.362 -26.529  13.483  0.00  0.00    +0.140 A 
ATOM     16  C   LIG    1       21.993 -26.312  13.301  0.00  0.00    +0.092 A 
ATOM     17  C   LIG    1       21.171 -27.357  12.887  0.00  0.00    +0.120 A 
ATOM     18  C   LIG    1       21.692 -28.623  12.658  0.00  0.00    +0.046 A 
ATOM     19  C   LIG    1       23.055 -28.841  12.847  0.00  0.00    +0.015 A 
ATOM     20  C   LIG    1       27.501 -26.848  14.272  0.00  0.00    +0.015 A 
ATOM     21  C   LIG    1       23.910 -27.793  13.256  0.00  0.00    +0.047 A 
ATOM     22  C   LIG    1       27.218 -30.461  11.371  0.00  0.00    +0.015 A 
ATOM     23  O   LIG    1       25.600 -29.124  14.317  0.00  0.00    -0.440 OA
ENDROOT
BRANCH  12  24
ATOM     24  O   LIG    1       28.189 -23.425  15.252  0.00  0.00    -0.507 OA
ATOM     25  H   LIG    1       28.915 -23.267  14.625  0.00  0.00    +0.292 HD
ENDBRANCH  12  24
BRANCH  17  26
ATOM     26  O   LIG    1       19.845 -27.100  12.711  0.00  0.00    -0.507 OA
ATOM     27  H   LIG    1       19.362 -27.401  13.499  0.00  0.00    +0.292 HD
ENDBRANCH  17  26
TORSDOF 2
ENDMDL
MODEL 5
REMARK VINA RESULT:      -6.3      1.861      5.148
REMARK  Name = *****
REMARK                            x       y       z     vdW  Elec       q    Type
REMARK                         _______ _______ _______ _____ _____    ______ ____
ROOT
ATOM      1  O   LIG    1       25.792 -20.891  10.027  0.00  0.00    -0.245 OA
ATOM      2  C   LIG    1       25.778 -21.017   8.821  0.00  0.00    +0.341 C 
ATOM      3  C   LIG    1       26.787 -20.530   7.891  0.00  0.00    +0.067 A 
ATOM      4  C   LIG    1       26.435 -20.907   6.610  0.00  0.00    +0.019 A 
ATOM      5  C   LIG    1       27.237 -20.570   5.529  0.00  0.00    +0.009 A 
ATOM      6  C   LIG    1       28.400 -19.836   5.775  0.00  0.00    +0.001 A 
ATOM      7  C   LIG    1       28.743 -19.451   7.083  0.00  0.00    +0.001 A 
ATOM      8  C   LIG    1       25.134 -21.646   6.660  0.00  0.00    +0.196 C 
ATOM      9  C   LIG    1       24.039 -20.899   5.931  0.00  0.00    +0.047 A 
ATOM     10  C   LIG    1       23.391 -21.495   4.847  0.00  0.00    +0.140 A 
ATOM     11  C   LIG    1       22.435 -20.785   4.111  0.00  0.00    +0.092 A 
ATOM     12  C   LIG    1       22.129 -19.472   4.463  0.00  0.00    +0.120 A 
ATOM     13  C   LIG    1       22.749 -18.865   5.545  0.00  0.00    +0.046 A 
ATOM     14  O   LIG    1       23.645 -22.779   4.422  0.00  0.00    -0.455 OA
ATOM     15  C   LIG    1       24.540 -23.551   5.123  0.00  0.00    +0.140 A 
ATOM     16  C   LIG    1       24.699 -24.866   4.676  0.00  0.00    +0.092 A 
ATOM     17  C   LIG    1       25.599 -25.714   5.315  0.00  0.00    +0.120 A 
ATOM     18  C   LIG    1       26.341 -25.275   6.402  0.00  0.00    +0.046 A 
ATOM     19  C   LIG    1       26.176 -23.966   6.853  0.00  0.00    +0.015 A 
ATOM     20  C   LIG    1       23.694 -19.576   6.281  0.00  0.00    +0.015 A 
ATOM     21  C   LIG    1       25.278 -23.085   6.213  0.00  0.00    +0.047 A 
ATOM     22  C   LIG    1       27.931 -19.803   8.163  0.00  0.00    +0.015 A 
ATOM     23  O   LIG    1       24.821 -21.648   8.079  0.00  0.00    -0.440 OA
ENDROOT
BRANCH  12  24
ATOM     24  O   LIG    1       21.220 -18.733   3.766  0.00  0.00    -0.507 OA
ATOM     25  H   LIG    1       20.395 -19.239   3.691  0.00  0.00    +0.292 HD
ENDBRANCH  12  24
BRANCH  17  26
ATOM     26  O   LIG    1       25.732 -26.985   4.841  0.00  0.00    -0.507 OA
ATOM     27  H   LIG    1       25.634 -27.606   5.582  0.00  0.00    +0.292 HD
ENDBRANCH  17  26
TORSDOF 2
ENDMDL
MODEL 6
REMARK VINA RESULT:      -6.3      5.671      9.739
REMARK  Name = *****
REMARK                            x       y       z     vdW  Elec       q    Type
REMARK                         _______ _______ _______ _____ _____    ______ ____
ROOT
ATOM      1  O   LIG    1       22.622 -32.738   5.425  0.00  0.00    -0.245 OA
ATOM      2  C   LIG    1       23.603 -32.237   5.931  0.00  0.00    +0.341 C 
ATOM      3  C   LIG    1       24.987 -32.628   5.700  0.00  0.00    +0.067 A 
ATOM      4  C   LIG    1       25.815 -31.793   6.425  0.00  0.00    +0.019 A 
ATOM      5  C   LIG    1       27.193 -31.950   6.376  0.00  0.00    +0.009 A 
ATOM      6  C   LIG    1       27.712 -32.976   5.583  0.00  0.00    +0.001 A 
ATOM      7  C   LIG    1       26.857 -33.825   4.858  0.00  0.00    +0.001 A 
ATOM      8  C   LIG    1       24.975 -30.823   7.195  0.00  0.00    +0.196 C 
ATOM      9  C   LIG    1       25.121 -31.021   8.688  0.00  0.00    +0.047 A 
ATOM     10  C   LIG    1       25.596 -29.977   9.486  0.00  0.00    +0.140 A 
ATOM     11  C   LIG    1       25.816 -30.171  10.855  0.00  0.00    +0.092 A 
ATOM     12  C   LIG    1       25.561 -31.416  11.425  0.00  0.00    +0.120 A 
ATOM     13  C   LIG    1       25.076 -32.463  10.655  0.00  0.00    +0.046 A 
ATOM     14  O   LIG    1       25.889 -28.723   9.002  0.00  0.00    -0.455 OA
ATOM     15  C   LIG    1       25.656 -28.446   7.676  0.00  0.00    +0.140 A 
ATOM     16  C   LIG    1       25.912 -27.134   7.268  0.00  0.00    +0.092 A 
ATOM     17  C   LIG    1       25.722 -26.769   5.938  0.00  0.00    +0.120 A 
ATOM     18  C   LIG    1       25.271 -27.692   5.005  0.00  0.00    +0.046 A 
ATOM     19  C   LIG    1       25.008 -28.998   5.414  0.00  0.00    +0.015 A 
ATOM     20  C   LIG    1       24.850 -32.265   9.294  0.00  0.00    +0.015 A 
ATOM     21  C   LIG    1       25.204 -29.394   6.755  0.00  0.00    +0.047 A 
ATOM     22  C   LIG    1       25.473 -33.652   4.909  0.00  0.00    +0.015 A 
ATOM     23  O   LIG    1       23.623 -31.197   6.815  0.00  0.00    -0.440 OA
ENDROOT
BRANCH  12  24
ATOM     24  O   LIG    1       25.778 -31.661  12.748  0.00  0.00    -0.507 OA
ATOM     25  H   LIG    1       26.617 -31.247  13.011  0.00  0.00    +0.292 HD
ENDBRANCH  12  24
BRANCH  17  26
ATOM     26  O   LIG    1       25.995 -25.483   5.579  0.00  0.00    -0.507 OA
ATOM     27  H   LIG    1       26.480 -25.491   4.737  0.00  0.00    +0.292 HD
ENDBRANCH  17  26
TORSDOF 2
ENDMDL
MODEL 7
REMARK VINA RESULT:      -6.1      8.418      9.981
REMARK  Name = *****
REMARK                            x       y       z     vdW  Elec       q    Type
REMARK                         _______ _______ _______ _____ _____    ______ ____
ROOT
ATOM      1  O   LIG    1       27.807 -28.802  10.654  0.00  0.00    -0.245 OA
ATOM      2  C   LIG    1       27.123 -28.547  11.622  0.00  0.00    +0.341 C 
ATOM      3  C   LIG    1       27.144 -29.244  12.901  0.00  0.00    +0.067 A 
ATOM      4  C   LIG    1       26.252 -28.633  13.759  0.00  0.00    +0.019 A 
ATOM      5  C   LIG    1       26.083 -29.102  15.054  0.00  0.00    +0.009 A 
ATOM      6  C   LIG    1       26.832 -30.211  15.455  0.00  0.00    +0.001 A 
ATOM      7  C   LIG    1       27.730 -30.830  14.568  0.00  0.00    +0.001 A 
ATOM      8  C   LIG    1       25.581 -27.504  13.041  0.00  0.00    +0.196 C 
ATOM      9  C   LIG    1       24.096 -27.748  12.882  0.00  0.00    +0.047 A 
ATOM     10  C   LIG    1       23.179 -26.852  13.436  0.00  0.00    +0.140 A 
ATOM     11  C   LIG    1       21.804 -27.109  13.370  0.00  0.00    +0.092 A 
ATOM     12  C   LIG    1       21.348 -28.268  12.747  0.00  0.00    +0.120 A 
ATOM     13  C   LIG    1       22.240 -29.164  12.178  0.00  0.00    +0.046 A 
ATOM     14  O   LIG    1       23.544 -25.693  14.083  0.00  0.00    -0.455 OA
ATOM     15  C   LIG    1       24.875 -25.355  14.148  0.00  0.00    +0.140 A 
ATOM     16  C   LIG    1       25.168 -24.132  14.760  0.00  0.00    +0.092 A 
ATOM     17  C   LIG    1       26.491 -23.717  14.887  0.00  0.00    +0.120 A 
ATOM     18  C   LIG    1       27.531 -24.500  14.406  0.00  0.00    +0.046 A 
ATOM     19  C   LIG    1       27.238 -25.714  13.788  0.00  0.00    +0.015 A 
ATOM     20  C   LIG    1       23.607 -28.904  12.237  0.00  0.00    +0.015 A 
ATOM     21  C   LIG    1       25.904 -26.161  13.659  0.00  0.00    +0.047 A 
ATOM     22  C   LIG    1       27.896 -30.343  13.271  0.00  0.00    +0.015 A 
ATOM     23  O   LIG    1       26.196 -27.551  11.725  0.00  0.00    -0.440 OA
ENDROOT
BRANCH  12  24
ATOM     24  O   LIG    1       20.022 -28.572  12.675  0.00  0.00    -0.507 OA
ATOM     25  H   LIG    1       19.825 -28.911  11.787  0.00  0.00    +0.292 HD
ENDBRANCH  12  24
BRANCH  17  26
ATOM     26  O   LIG    1       26.734 -22.524  15.500  0.00  0.00    -0.507 OA
ATOM     27  H   LIG    1       25.922 -22.235  15.950  0.00  0.00    +0.292 HD
ENDBRANCH  17  26
TORSDOF 2
ENDMDL
MODEL 8
REMARK VINA RESULT:      -5.9      8.028     10.028
REMARK  Name = *****
REMARK                            x       y       z     vdW  Elec       q    Type
REMARK                         _______ _______ _______ _____ _____    ______ ____
ROOT
ATOM      1  O   LIG    1       23.685 -30.241  13.634  0.00  0.00    -0.245 OA
ATOM      2  C   LIG    1       24.638 -29.527  13.410  0.00  0.00    +0.341 C 
ATOM      3  C   LIG    1       25.224 -29.253  12.105  0.00  0.00    +0.067 A 
ATOM      4  C   LIG    1       26.266 -28.361  12.259  0.00  0.00    +0.019 A 
ATOM      5  C   LIG    1       26.994 -27.928  11.160  0.00  0.00    +0.009 A 
ATOM      6  C   LIG    1       26.647 -28.428   9.903  0.00  0.00    +0.001 A 
ATOM      7  C   LIG    1       25.589 -29.343   9.760  0.00  0.00    +0.001 A 
ATOM      8  C   LIG    1       26.417 -28.036  13.712  0.00  0.00    +0.196 C 
ATOM      9  C   LIG    1       27.745 -28.517  14.257  0.00  0.00    +0.047 A 
ATOM     10  C   LIG    1       28.647 -27.601  14.803  0.00  0.00    +0.140 A 
ATOM     11  C   LIG    1       29.912 -28.019  15.234  0.00  0.00    +0.092 A 
ATOM     12  C   LIG    1       30.274 -29.359  15.114  0.00  0.00    +0.120 A 
ATOM     13  C   LIG    1       29.389 -30.288  14.587  0.00  0.00    +0.046 A 
ATOM     14  O   LIG    1       28.377 -26.259  14.943  0.00  0.00    -0.455 OA
ATOM     15  C   LIG    1       27.139 -25.785  14.582  0.00  0.00    +0.140 A 
ATOM     16  C   LIG    1       26.911 -24.425  14.813  0.00  0.00    +0.092 A 
ATOM     17  C   LIG    1       25.691 -23.854  14.461  0.00  0.00    +0.120 A 
ATOM     18  C   LIG    1       24.686 -24.621  13.887  0.00  0.00    +0.046 A 
ATOM     19  C   LIG    1       24.911 -25.978  13.664  0.00  0.00    +0.015 A 
ATOM     20  C   LIG    1       28.128 -29.872  14.168  0.00  0.00    +0.015 A 
ATOM     21  C   LIG    1       26.145 -26.576  14.003  0.00  0.00    +0.047 A 
ATOM     22  C   LIG    1       24.860 -29.764  10.873  0.00  0.00    +0.015 A 
ATOM     23  O   LIG    1       25.359 -28.820  14.328  0.00  0.00    -0.440 OA
ENDROOT
BRANCH  12  24
ATOM     24  O   LIG    1       31.500 -29.810  15.500  0.00  0.00    -0.507 OA
ATOM     25  H   LIG    1       32.135 -29.077  15.451  0.00  0.00    +0.292 HD
ENDBRANCH  12  24
BRANCH  17  26
ATOM     26  O   LIG    1       25.514 -22.523  14.693  0.00  0.00    -0.507 OA
ATOM     27  H   LIG    1       26.060 -22.022  14.063  0.00  0.00    +0.292 HD
ENDBRANCH  17  26
TORSDOF 2
ENDMDL
MODEL 9
REMARK VINA RESULT:      -5.9      6.068      9.496
REMARK  Name = *****
REMARK                            x       y       z     vdW  Elec       q    Type
REMARK                         _______ _______ _______ _____ _____    ______ ____
ROOT
ATOM      1  O   LIG    1       25.191 -33.825   8.120  0.00  0.00    -0.245 OA
ATOM      2  C   LIG    1       24.972 -32.681   8.459  0.00  0.00    +0.341 C 
ATOM      3  C   LIG    1       23.750 -32.182   9.074  0.00  0.00    +0.067 A 
ATOM      4  C   LIG    1       23.904 -30.838   9.350  0.00  0.00    +0.019 A 
ATOM      5  C   LIG    1       22.879 -30.118   9.947  0.00  0.00    +0.009 A 
ATOM      6  C   LIG    1       21.692 -30.789  10.250  0.00  0.00    +0.001 A 
ATOM      7  C   LIG    1       21.545 -32.156   9.956  0.00  0.00    +0.001 A 
ATOM      8  C   LIG    1       25.257 -30.397   8.885  0.00  0.00    +0.196 C 
ATOM      9  C   LIG    1       25.160 -29.384   7.765  0.00  0.00    +0.047 A 
ATOM     10  C   LIG    1       25.709 -28.111   7.928  0.00  0.00    +0.140 A 
ATOM     11  C   LIG    1       25.554 -27.136   6.935  0.00  0.00    +0.092 A 
ATOM     12  C   LIG    1       24.845 -27.440   5.775  0.00  0.00    +0.120 A 
ATOM     13  C   LIG    1       24.303 -28.702   5.586  0.00  0.00    +0.046 A 
ATOM     14  O   LIG    1       26.409 -27.722   9.047  0.00  0.00    -0.455 OA
ATOM     15  C   LIG    1       26.638 -28.639  10.045  0.00  0.00    +0.140 A 
ATOM     16  C   LIG    1       27.413 -28.196  11.121  0.00  0.00    +0.092 A 
ATOM     17  C   LIG    1       27.679 -29.052  12.186  0.00  0.00    +0.120 A 
ATOM     18  C   LIG    1       27.192 -30.352  12.193  0.00  0.00    +0.046 A 
ATOM     19  C   LIG    1       26.427 -30.796  11.116  0.00  0.00    +0.015 A 
ATOM     20  C   LIG    1       24.466 -29.673   6.571  0.00  0.00    +0.015 A 
ATOM     21  C   LIG    1       26.134 -29.942  10.031  0.00  0.00    +0.047 A 
ATOM     22  C   LIG    1       22.587 -32.871   9.362  0.00  0.00    +0.015 A 
ATOM     23  O   LIG    1       25.825 -31.622   8.346  0.00  0.00    -0.440 OA
ENDROOT
BRANCH  12  24
ATOM     24  O   LIG    1       24.650 -26.520   4.789  0.00  0.00    -0.507 OA
ATOM     25  H   LIG    1       24.482 -25.654   5.195  0.00  0.00    +0.292 HD
ENDBRANCH  12  24
BRANCH  17  26
ATOM     26  O   LIG    1       28.429 -28.577  13.220  0.00  0.00    -0.507 OA
ATOM     27  H   LIG    1       29.344 -28.887  13.110  0.00  0.00    +0.292 HD
ENDBRANCH  17  26
TORSDOF 2
ENDMDL
