MODEL 1
REMARK VINA RESULT:      -6.3      0.000      0.000
REMARK  Name = *****
REMARK                            x       y       z     vdW  Elec       q    Type
REMARK                         _______ _______ _______ _____ _____    ______ ____
ROOT
ATOM      1  C   LIG    1       24.441 -22.385   4.924  0.00  0.00    +0.022 C 
ENDROOT
BRANCH   1   2
ATOM      2  C   LIG    1       24.625 -21.028   5.650  0.00  0.00    -0.010 C 
ATOM      3  C   LIG    1       25.395 -20.036   4.756  0.00  0.00    +0.003 C 
ATOM      4  C   LIG    1       24.560 -19.508   3.591  0.00  0.00    +0.000 C 
ATOM      5  C   LIG    1       23.237 -18.914   4.063  0.00  0.00    +0.000 C 
ATOM      6  C   LIG    1       22.456 -19.878   4.952  0.00  0.00    +0.000 C 
ATOM      7  C   LIG    1       23.307 -20.386   6.113  0.00  0.00    +0.003 C 
ENDBRANCH   1   2
BRANCH   1   8
ATOM      8  C   LIG    1       24.716 -23.651   5.769  0.00  0.00    +0.051 C 
ATOM      9  C   LIG    1       23.543 -23.864   6.736  0.00  0.00    +0.024 C 
BRANCH   8  11
ATOM     10  C   LIG    1       24.389 -26.049   5.406  0.00  0.00    +0.101 C 
ATOM     11  N   LIG    1       24.920 -24.801   4.880  0.00  0.00    -0.317 NA
ATOM     12  H   LIG    1       24.512 -24.613   3.966  0.00  0.00    +0.122 HD
ENDBRANCH   8  11
ENDBRANCH   1   8
TORSDOF 3
ENDMDL
MODEL 2
REMARK VINA RESULT:      -6.2      2.286      3.360
REMARK  Name = *****
REMARK                            x       y       z     vdW  Elec       q    Type
REMARK                         _______ _______ _______ _____ _____    ______ ____
ROOT
ATOM      1  C   LIG    1       24.612 -20.798   6.905  0.00  0.00    +0.022 C 
ENDROOT
BRANCH   1   2
ATOM      2  C   LIG    1       23.955 -21.335   5.609  0.00  0.00    -0.010 C 
ATOM      3  C   LIG    1       22.523 -20.785   5.460  0.00  0.00    +0.003 C 
ATOM      4  C   LIG    1       22.487 -19.305   5.083  0.00  0.00    +0.000 C 
ATOM      5  C   LIG    1       23.322 -19.014   3.841  0.00  0.00    +0.000 C 
ATOM      6  C   LIG    1       24.746 -19.551   3.964  0.00  0.00    +0.000 C 
ATOM      7  C   LIG    1       24.758 -21.032   4.333  0.00  0.00    +0.003 C 
ENDBRANCH   1   2
BRANCH   1   8
ATOM      8  C   LIG    1       24.946 -21.853   7.986  0.00  0.00    +0.051 C 
ATOM      9  C   LIG    1       25.489 -23.113   7.296  0.00  0.00    +0.024 C 
BRANCH   8  11
ATOM     10  C   LIG    1       26.903 -20.425   8.337  0.00  0.00    +0.101 C 
ATOM     11  N   LIG    1       25.903 -21.289   8.946  0.00  0.00    -0.317 NA
ATOM     12  H   LIG    1       25.408 -20.779   9.675  0.00  0.00    +0.122 HD
ENDBRANCH   8  11
ENDBRANCH   1   8
TORSDOF 3
ENDMDL
MODEL 3
REMARK VINA RESULT:      -6.2      1.821      2.775
REMARK  Name = *****
REMARK                            x       y       z     vdW  Elec       q    Type
REMARK                         _______ _______ _______ _____ _____    ______ ____
ROOT
ATOM      1  C   LIG    1       24.010 -20.864   6.913  0.00  0.00    +0.022 C 
ENDROOT
BRANCH   1   2
ATOM      2  C   LIG    1       23.487 -21.313   5.526  0.00  0.00    -0.010 C 
ATOM      3  C   LIG    1       22.245 -20.493   5.124  0.00  0.00    +0.003 C 
ATOM      4  C   LIG    1       22.577 -19.053   4.737  0.00  0.00    +0.000 C 
ATOM      5  C   LIG    1       23.653 -18.989   3.658  0.00  0.00    +0.000 C 
ATOM      6  C   LIG    1       24.894 -19.795   4.032  0.00  0.00    +0.000 C 
ATOM      7  C   LIG    1       24.539 -21.232   4.407  0.00  0.00    +0.003 C 
ENDBRANCH   1   2
BRANCH   1   8
ATOM      8  C   LIG    1       25.377 -21.445   7.346  0.00  0.00    +0.051 C 
ATOM      9  C   LIG    1       25.926 -20.604   8.507  0.00  0.00    +0.024 C 
BRANCH   8  11
ATOM     10  C   LIG    1       25.959 -23.771   6.853  0.00  0.00    +0.101 C 
ATOM     11  N   LIG    1       25.218 -22.858   7.709  0.00  0.00    -0.317 NA
ATOM     12  H   LIG    1       25.490 -23.002   8.680  0.00  0.00    +0.122 HD
ENDBRANCH   8  11
ENDBRANCH   1   8
TORSDOF 3
ENDMDL
MODEL 4
REMARK VINA RESULT:      -6.0      1.912      4.508
REMARK  Name = *****
REMARK                            x       y       z     vdW  Elec       q    Type
REMARK                         _______ _______ _______ _____ _____    ______ ____
ROOT
ATOM      1  C   LIG    1       24.198 -20.704   6.207  0.00  0.00    +0.022 C 
ENDROOT
BRANCH   1   2
ATOM      2  C   LIG    1       24.013 -21.643   7.425  0.00  0.00    -0.010 C 
ATOM      3  C   LIG    1       23.408 -22.991   6.982  0.00  0.00    +0.003 C 
ATOM      4  C   LIG    1       24.398 -23.871   6.220  0.00  0.00    +0.000 C 
ATOM      5  C   LIG    1       25.692 -24.077   7.001  0.00  0.00    +0.000 C 
ATOM      6  C   LIG    1       26.310 -22.756   7.452  0.00  0.00    +0.000 C 
ATOM      7  C   LIG    1       25.306 -21.898   8.217  0.00  0.00    +0.003 C 
ENDBRANCH   1   2
BRANCH   1   8
ATOM      8  C   LIG    1       23.068 -20.730   5.151  0.00  0.00    +0.051 C 
ATOM      9  C   LIG    1       22.435 -19.333   5.069  0.00  0.00    +0.024 C 
BRANCH   8  11
ATOM     10  C   LIG    1       24.599 -20.261   3.299  0.00  0.00    +0.101 C 
ATOM     11  N   LIG    1       23.612 -21.170   3.860  0.00  0.00    -0.317 NA
ATOM     12  H   LIG    1       24.014 -22.101   3.949  0.00  0.00    +0.122 HD
ENDBRANCH   8  11
ENDBRANCH   1   8
TORSDOF 3
ENDMDL
MODEL 5
REMARK VINA RESULT:      -6.0      2.015      3.151
REMARK  Name = *****
REMARK                            x       y       z     vdW  Elec       q    Type
REMARK                         _______ _______ _______ _____ _____    ______ ____
ROOT
ATOM      1  C   LIG    1       25.082 -23.372   6.714  0.00  0.00    +0.022 C 
ENDROOT
BRANCH   1   2
ATOM      2  C   LIG    1       24.837 -22.020   7.430  0.00  0.00    -0.010 C 
ATOM      3  C   LIG    1       25.854 -21.819   8.571  0.00  0.00    +0.003 C 
ATOM      4  C   LIG    1       27.263 -21.507   8.069  0.00  0.00    +0.000 C 
ATOM      5  C   LIG    1       27.275 -20.325   7.106  0.00  0.00    +0.000 C 
ATOM      6  C   LIG    1       26.274 -20.500   5.967  0.00  0.00    +0.000 C 
ATOM      7  C   LIG    1       24.872 -20.802   6.491  0.00  0.00    +0.003 C 
ENDBRANCH   1   2
BRANCH   1   8
ATOM      8  C   LIG    1       23.881 -24.345   6.670  0.00  0.00    +0.051 C 
ATOM      9  C   LIG    1       22.582 -23.528   6.699  0.00  0.00    +0.024 C 
BRANCH   8  11
ATOM     10  C   LIG    1       24.327 -26.575   5.764  0.00  0.00    +0.101 C 
ATOM     11  N   LIG    1       23.979 -25.193   5.475  0.00  0.00    -0.317 NA
ATOM     12  H   LIG    1       23.105 -25.162   4.953  0.00  0.00    +0.122 HD
ENDBRANCH   8  11
ENDBRANCH   1   8
TORSDOF 3
ENDMDL
MODEL 6
REMARK VINA RESULT:      -5.9      2.172      3.034
REMARK  Name = *****
REMARK                            x       y       z     vdW  Elec       q    Type
REMARK                         _______ _______ _______ _____ _____    ______ ____
ROOT
ATOM      1  C   LIG    1       24.969 -24.304   5.390  0.00  0.00    +0.022 C 
ENDROOT
BRANCH   1   2
ATOM      2  C   LIG    1       24.498 -23.902   6.810  0.00  0.00    -0.010 C 
ATOM      3  C   LIG    1       25.514 -22.946   7.467  0.00  0.00    +0.003 C 
ATOM      4  C   LIG    1       25.493 -21.543   6.863  0.00  0.00    +0.000 C 
ATOM      5  C   LIG    1       24.090 -20.944   6.866  0.00  0.00    +0.000 C 
ATOM      6  C   LIG    1       23.065 -21.873   6.222  0.00  0.00    +0.000 C 
ATOM      7  C   LIG    1       23.098 -23.266   6.846  0.00  0.00    +0.003 C 
ENDBRANCH   1   2
BRANCH   1   8
ATOM      8  C   LIG    1       25.193 -25.816   5.151  0.00  0.00    +0.051 C 
ATOM      9  C   LIG    1       26.443 -26.259   5.926  0.00  0.00    +0.024 C 
BRANCH   8  11
ATOM     10  C   LIG    1       24.262 -27.942   5.929  0.00  0.00    +0.101 C 
ATOM     11  N   LIG    1       23.995 -26.561   5.556  0.00  0.00    -0.317 NA
ATOM     12  H   LIG    1       23.528 -26.083   6.323  0.00  0.00    +0.122 HD
ENDBRANCH   8  11
ENDBRANCH   1   8
TORSDOF 3
ENDMDL
MODEL 7
REMARK VINA RESULT:      -5.9      8.217      9.495
REMARK  Name = *****
REMARK                            x       y       z     vdW  Elec       q    Type
REMARK                         _______ _______ _______ _____ _____    ______ ____
ROOT
ATOM      1  C   LIG    1       31.914 -18.565   8.585  0.00  0.00    +0.022 C 
ENDROOT
BRANCH   1   2
ATOM      2  C   LIG    1       31.305 -17.181   8.924  0.00  0.00    -0.010 C 
ATOM      3  C   LIG    1       30.182 -17.326   9.970  0.00  0.00    +0.003 C 
ATOM      4  C   LIG    1       30.705 -17.645  11.370  0.00  0.00    +0.000 C 
ATOM      5  C   LIG    1       31.757 -16.640  11.826  0.00  0.00    +0.000 C 
ATOM      6  C   LIG    1       32.880 -16.477  10.806  0.00  0.00    +0.000 C 
ATOM      7  C   LIG    1       32.335 -16.151   9.417  0.00  0.00    +0.003 C 
ENDBRANCH   1   2
BRANCH   1   8
ATOM      8  C   LIG    1       30.928 -19.627   8.044  0.00  0.00    +0.051 C 
ATOM      9  C   LIG    1       30.465 -19.204   6.642  0.00  0.00    +0.024 C 
BRANCH   8  11
ATOM     10  C   LIG    1       31.125 -21.823   9.108  0.00  0.00    +0.101 C 
ATOM     11  N   LIG    1       31.577 -20.944   8.040  0.00  0.00    -0.317 NA
ATOM     12  H   LIG    1       31.439 -21.400   7.141  0.00  0.00    +0.122 HD
ENDBRANCH   8  11
ENDBRANCH   1   8
TORSDOF 3
ENDMDL
MODEL 8
REMARK VINA RESULT:      -5.9      2.543      3.673
REMARK  Name = *****
REMARK                            x       y       z     vdW  Elec       q    Type
REMARK                         _______ _______ _______ _____ _____    ______ ____
ROOT
ATOM      1  C   LIG    1       26.076 -20.040   5.367  0.00  0.00    +0.022 C 
ENDROOT
BRANCH   1   2
ATOM      2  C   LIG    1       25.011 -20.877   4.615  0.00  0.00    -0.010 C 
ATOM      3  C   LIG    1       23.896 -21.328   5.581  0.00  0.00    +0.003 C 
ATOM      4  C   LIG    1       22.970 -20.188   6.001  0.00  0.00    +0.000 C 
ATOM      5  C   LIG    1       22.392 -19.452   4.797  0.00  0.00    +0.000 C 
ATOM      6  C   LIG    1       23.476 -18.996   3.825  0.00  0.00    +0.000 C 
ATOM      7  C   LIG    1       24.384 -20.152   3.412  0.00  0.00    +0.003 C 
ENDBRANCH   1   2
BRANCH   1   8
ATOM      8  C   LIG    1       26.856 -20.776   6.482  0.00  0.00    +0.051 C 
ATOM      9  C   LIG    1       28.353 -20.481   6.315  0.00  0.00    +0.024 C 
BRANCH   8  11
ATOM     10  C   LIG    1       25.920 -21.463   8.637  0.00  0.00    +0.101 C 
ATOM     11  N   LIG    1       26.350 -20.358   7.795  0.00  0.00    -0.317 NA
ATOM     12  H   LIG    1       27.055 -19.810   8.283  0.00  0.00    +0.122 HD
ENDBRANCH   8  11
ENDBRANCH   1   8
TORSDOF 3
ENDMDL
MODEL 9
REMARK VINA RESULT:      -5.8      2.807      4.139
REMARK  Name = *****
REMARK                            x       y       z     vdW  Elec       q    Type
REMARK                         _______ _______ _______ _____ _____    ______ ____
ROOT
ATOM      1  C   LIG    1       25.775 -20.700   7.339  0.00  0.00    +0.022 C 
ENDROOT
BRANCH   1   2
ATOM      2  C   LIG    1       24.679 -21.742   7.002  0.00  0.00    -0.010 C 
ATOM      3  C   LIG    1       23.275 -21.136   7.204  0.00  0.00    +0.003 C 
ATOM      4  C   LIG    1       22.901 -20.121   6.125  0.00  0.00    +0.000 C 
ATOM      5  C   LIG    1       23.056 -20.699   4.723  0.00  0.00    +0.000 C 
ATOM      6  C   LIG    1       24.437 -21.307   4.498  0.00  0.00    +0.000 C 
ATOM      7  C   LIG    1       24.787 -22.324   5.582  0.00  0.00    +0.003 C 
ENDBRANCH   1   2
BRANCH   1   8
ATOM      8  C   LIG    1       27.214 -21.063   6.903  0.00  0.00    +0.051 C 
ATOM      9  C   LIG    1       27.746 -19.953   5.984  0.00  0.00    +0.024 C 
BRANCH   8  11
ATOM     10  C   LIG    1       29.459 -20.938   7.871  0.00  0.00    +0.101 C 
ATOM     11  N   LIG    1       28.055 -21.252   8.091  0.00  0.00    -0.317 NA
ATOM     12  H   LIG    1       27.697 -20.695   8.865  0.00  0.00    +0.122 HD
ENDBRANCH   8  11
ENDBRANCH   1   8
TORSDOF 3
ENDMDL
