MODEL 1
REMARK VINA RESULT:      -6.2      0.000      0.000
REMARK  Name = *****
REMARK                            x       y       z     vdW  Elec       q    Type
REMARK                         _______ _______ _______ _____ _____    ______ ____
ROOT
ATOM      1  C   LIG    1       24.986 -31.207   7.672  0.00  0.00    +0.183 C 
ATOM      2  C   LIG    1       25.265 -31.220   9.251  0.00  0.00    +0.021 C 
ATOM      3  C   LIG    1       25.950 -32.552   9.697  0.00  0.00    +0.016 C 
ATOM      4  C   LIG    1       23.874 -31.318   9.966  0.00  0.00    +0.003 C 
ATOM      5  C   LIG    1       23.414 -30.053  10.763  0.00  0.00    -0.000 C 
ATOM      6  C   LIG    1       24.558 -29.357  11.568  0.00  0.00    +0.035 C 
ATOM      7  C   LIG    1       25.729 -29.022  10.613  0.00  0.00    +0.120 C 
ATOM      8  C   LIG    1       24.893 -29.900  13.042  0.00  0.00    +0.013 C 
ATOM      9  C   LIG    1       25.468 -28.704  13.872  0.00  0.00    +0.020 C 
ATOM     10  C   LIG    1       23.664 -30.406  13.837  0.00  0.00    -0.056 C 
ATOM     11  C   LIG    1       23.876 -31.042  15.016  0.00  0.00    +0.051 C 
ATOM     12  C   LIG    1       24.661 -32.301  14.754  0.00  0.00    +0.179 C 
ATOM     13  O   LIG    1       24.472 -33.341  15.393  0.00  0.00    -0.288 OA
ATOM     14  C   LIG    1       25.754 -32.182  13.758  0.00  0.00    +0.047 C 
ATOM     15  C   LIG    1       22.458 -30.878  13.063  0.00  0.00    +0.032 C 
ATOM     16  C   LIG    1       25.894 -31.055  13.024  0.00  0.00    -0.012 C 
ATOM     17  C   LIG    1       22.211 -30.167  11.735  0.00  0.00    +0.008 C 
ATOM     18  C   LIG    1       22.968 -31.947   8.855  0.00  0.00    +0.009 C 
ATOM     19  C   LIG    1       26.238 -30.125   9.696  0.00  0.00    +0.043 C 
ATOM     20  C   LIG    1       23.821 -32.202   7.575  0.00  0.00    +0.057 C 
ENDROOT
BRANCH   1  21
ATOM     21  C   LIG    1       24.491 -29.872   6.945  0.00  0.00    +0.214 C 
ATOM     22  O   LIG    1       23.544 -29.902   6.142  0.00  0.00    -0.289 OA
BRANCH  21  23
ATOM     23  C   LIG    1       25.215 -28.517   7.146  0.00  0.00    +0.310 C 
BRANCH  23  24
ATOM     24  O   LIG    1       25.001 -27.689   5.969  0.00  0.00    -0.457 OA
BRANCH  24  25
ATOM     25  C   LIG    1       25.936 -26.738   5.676  0.00  0.00    +0.307 C 
ATOM     26  O   LIG    1       26.877 -26.913   4.908  0.00  0.00    -0.251 OA
BRANCH  25  27
ATOM     27  C   LIG    1       25.499 -25.413   6.267  0.00  0.00    +0.117 C 
ATOM     28  C   LIG    1       24.011 -25.123   6.289  0.00  0.00    +0.015 C 
ENDBRANCH  25  27
ENDBRANCH  24  25
ENDBRANCH  23  24
ENDBRANCH  21  23
ENDBRANCH   1  21
BRANCH   7  29
ATOM     29  O   LIG    1       26.855 -28.500  11.307  0.00  0.00    -0.391 OA
ATOM     30  H   LIG    1       26.724 -28.617  12.264  0.00  0.00    +0.210 HD
ENDBRANCH   7  29
BRANCH   1  31
ATOM     31  O   LIG    1       26.183 -31.527   6.863  0.00  0.00    -0.419 OA
BRANCH  31  32
ATOM     32  C   LIG    1       26.308 -32.525   5.968  0.00  0.00    +0.511 C 
ATOM     33  O   LIG    1       26.728 -33.660   6.160  0.00  0.00    -0.203 OA
BRANCH  32  34
ATOM     34  O   LIG    1       26.086 -31.960   4.755  0.00  0.00    -0.434 OA
BRANCH  34  36
ATOM     35  C   LIG    1       26.460 -32.890   2.514  0.00  0.00    +0.048 C 
ATOM     36  C   LIG    1       25.536 -32.784   3.708  0.00  0.00    +0.232 C 
ENDBRANCH  34  36
ENDBRANCH  32  34
ENDBRANCH  31  32
ENDBRANCH   1  31
TORSDOF 10
ENDMDL
MODEL 2
REMARK VINA RESULT:      -5.6      3.222      6.056
REMARK  Name = *****
REMARK                            x       y       z     vdW  Elec       q    Type
REMARK                         _______ _______ _______ _____ _____    ______ ____
ROOT
ATOM      1  C   LIG    1       22.903 -31.537  10.823  0.00  0.00    +0.183 C 
ATOM      2  C   LIG    1       23.390 -30.369  11.808  0.00  0.00    +0.021 C 
ATOM      3  C   LIG    1       22.296 -29.263  11.963  0.00  0.00    +0.016 C 
ATOM      4  C   LIG    1       24.533 -29.589  11.073  0.00  0.00    +0.003 C 
ATOM      5  C   LIG    1       25.970 -29.740  11.672  0.00  0.00    -0.000 C 
ATOM      6  C   LIG    1       26.014 -29.721  13.234  0.00  0.00    +0.035 C 
ATOM      7  C   LIG    1       25.059 -30.807  13.787  0.00  0.00    +0.120 C 
ATOM      8  C   LIG    1       26.084 -28.301  13.979  0.00  0.00    +0.013 C 
ATOM      9  C   LIG    1       26.822 -28.513  15.342  0.00  0.00    +0.020 C 
ATOM     10  C   LIG    1       26.900 -27.220  13.227  0.00  0.00    -0.056 C 
ATOM     11  C   LIG    1       26.865 -25.946  13.693  0.00  0.00    +0.051 C 
ATOM     12  C   LIG    1       25.450 -25.435  13.605  0.00  0.00    +0.179 C 
ATOM     13  O   LIG    1       25.190 -24.261  13.327  0.00  0.00    -0.288 OA
ATOM     14  C   LIG    1       24.393 -26.403  13.986  0.00  0.00    +0.047 C 
ATOM     15  C   LIG    1       27.051 -27.349  11.732  0.00  0.00    +0.032 C 
ATOM     16  C   LIG    1       24.700 -27.699  14.219  0.00  0.00    -0.012 C 
ATOM     17  C   LIG    1       27.092 -28.779  11.199  0.00  0.00    +0.008 C 
ATOM     18  C   LIG    1       24.247 -29.912   9.568  0.00  0.00    +0.009 C 
ATOM     19  C   LIG    1       23.642 -30.857  13.236  0.00  0.00    +0.043 C 
ATOM     20  C   LIG    1       22.988 -30.824   9.465  0.00  0.00    +0.057 C 
ENDROOT
BRANCH   1  21
ATOM     21  C   LIG    1       23.755 -32.881  10.671  0.00  0.00    +0.214 C 
ATOM     22  O   LIG    1       24.143 -33.502  11.674  0.00  0.00    -0.289 OA
BRANCH  21  23
ATOM     23  C   LIG    1       24.198 -33.414   9.285  0.00  0.00    +0.310 C 
BRANCH  23  24
ATOM     24  O   LIG    1       25.630 -33.663   9.313  0.00  0.00    -0.457 OA
BRANCH  24  25
ATOM     25  C   LIG    1       26.465 -32.645   8.952  0.00  0.00    +0.307 C 
ATOM     26  O   LIG    1       27.346 -32.189   9.675  0.00  0.00    -0.251 OA
BRANCH  25  27
ATOM     27  C   LIG    1       26.269 -32.338   7.481  0.00  0.00    +0.117 C 
ATOM     28  C   LIG    1       27.392 -32.726   6.538  0.00  0.00    +0.015 C 
ENDBRANCH  25  27
ENDBRANCH  24  25
ENDBRANCH  23  24
ENDBRANCH  21  23
ENDBRANCH   1  21
BRANCH   7  29
ATOM     29  O   LIG    1       24.957 -30.758  15.206  0.00  0.00    -0.391 OA
ATOM     30  H   LIG    1       25.536 -31.438  15.592  0.00  0.00    +0.210 HD
ENDBRANCH   7  29
BRANCH   1  31
ATOM     31  O   LIG    1       21.581 -32.094  11.183  0.00  0.00    -0.419 OA
BRANCH  31  32
ATOM     32  C   LIG    1       20.559 -32.351  10.345  0.00  0.00    +0.511 C 
ATOM     33  O   LIG    1       20.448 -33.285   9.558  0.00  0.00    -0.203 OA
BRANCH  32  34
ATOM     34  O   LIG    1       19.770 -31.248  10.378  0.00  0.00    -0.434 OA
BRANCH  34  36
ATOM     35  C   LIG    1       17.518 -31.558  11.305  0.00  0.00    +0.048 C 
ATOM     36  C   LIG    1       18.371 -31.399  10.065  0.00  0.00    +0.232 C 
ENDBRANCH  34  36
ENDBRANCH  32  34
ENDBRANCH  31  32
ENDBRANCH   1  31
TORSDOF 10
ENDMDL
MODEL 3
REMARK VINA RESULT:      -5.4      2.694      4.218
REMARK  Name = *****
REMARK                            x       y       z     vdW  Elec       q    Type
REMARK                         _______ _______ _______ _____ _____    ______ ____
ROOT
ATOM      1  C   LIG    1       24.846 -32.119   8.844  0.00  0.00    +0.183 C 
ATOM      2  C   LIG    1       23.751 -32.193  10.013  0.00  0.00    +0.021 C 
ATOM      3  C   LIG    1       22.385 -32.733   9.480  0.00  0.00    +0.016 C 
ATOM      4  C   LIG    1       23.386 -30.720  10.401  0.00  0.00    +0.003 C 
ATOM      5  C   LIG    1       23.848 -30.240  11.816  0.00  0.00    -0.000 C 
ATOM      6  C   LIG    1       23.675 -31.313  12.939  0.00  0.00    +0.035 C 
ATOM      7  C   LIG    1       24.403 -32.614  12.523  0.00  0.00    +0.120 C 
ATOM      8  C   LIG    1       22.253 -31.424  13.676  0.00  0.00    +0.013 C 
ATOM      9  C   LIG    1       22.507 -31.961  15.124  0.00  0.00    +0.020 C 
ATOM     10  C   LIG    1       21.514 -30.075  13.856  0.00  0.00    -0.056 C 
ATOM     11  C   LIG    1       20.235 -30.096  14.306  0.00  0.00    +0.051 C 
ATOM     12  C   LIG    1       19.379 -30.829  13.306  0.00  0.00    +0.179 C 
ATOM     13  O   LIG    1       18.214 -30.496  13.066  0.00  0.00    -0.288 OA
ATOM     14  C   LIG    1       19.985 -32.045  12.710  0.00  0.00    +0.047 C 
ATOM     15  C   LIG    1       21.838 -28.950  12.904  0.00  0.00    +0.032 C 
ATOM     16  C   LIG    1       21.283 -32.346  12.937  0.00  0.00    -0.012 C 
ATOM     17  C   LIG    1       23.276 -28.919  12.392  0.00  0.00    +0.008 C 
ATOM     18  C   LIG    1       23.781 -29.926   9.110  0.00  0.00    +0.009 C 
ATOM     19  C   LIG    1       24.134 -33.167  11.130  0.00  0.00    +0.043 C 
ATOM     20  C   LIG    1       24.331 -30.916   8.041  0.00  0.00    +0.057 C 
ENDROOT
BRANCH   1  21
ATOM     21  C   LIG    1       26.376 -31.804   9.182  0.00  0.00    +0.214 C 
ATOM     22  O   LIG    1       27.157 -32.716   9.501  0.00  0.00    -0.289 OA
BRANCH  21  23
ATOM     23  C   LIG    1       26.924 -30.354   9.206  0.00  0.00    +0.310 C 
BRANCH  23  24
ATOM     24  O   LIG    1       27.836 -30.213  10.330  0.00  0.00    -0.457 OA
BRANCH  24  25
ATOM     25  C   LIG    1       27.369 -29.608  11.461  0.00  0.00    +0.307 C 
ATOM     26  O   LIG    1       27.499 -30.069  12.591  0.00  0.00    -0.251 OA
BRANCH  25  27
ATOM     27  C   LIG    1       26.880 -28.216  11.115  0.00  0.00    +0.117 C 
ATOM     28  C   LIG    1       26.746 -27.226  12.257  0.00  0.00    +0.015 C 
ENDBRANCH  25  27
ENDBRANCH  24  25
ENDBRANCH  23  24
ENDBRANCH  21  23
ENDBRANCH   1  21
BRANCH   7  29
ATOM     29  O   LIG    1       24.178 -33.674  13.446  0.00  0.00    -0.391 OA
ATOM     30  H   LIG    1       23.598 -33.358  14.160  0.00  0.00    +0.210 HD
ENDBRANCH   7  29
BRANCH   1  31
ATOM     31  O   LIG    1       24.991 -33.387   8.096  0.00  0.00    -0.419 OA
BRANCH  31  32
ATOM     32  C   LIG    1       24.730 -33.587   6.790  0.00  0.00    +0.511 C 
ATOM     33  O   LIG    1       23.639 -33.764   6.259  0.00  0.00    -0.203 OA
BRANCH  32  34
ATOM     34  O   LIG    1       25.936 -33.778   6.200  0.00  0.00    -0.434 OA
BRANCH  34  36
ATOM     35  C   LIG    1       26.069 -32.330   4.222  0.00  0.00    +0.048 C 
ATOM     36  C   LIG    1       26.594 -32.640   5.606  0.00  0.00    +0.232 C 
ENDBRANCH  34  36
ENDBRANCH  32  34
ENDBRANCH  31  32
ENDBRANCH   1  31
TORSDOF 10
ENDMDL
MODEL 4
REMARK VINA RESULT:      -5.1      3.458      7.083
REMARK  Name = *****
REMARK                            x       y       z     vdW  Elec       q    Type
REMARK                         _______ _______ _______ _____ _____    ______ ____
ROOT
ATOM      1  C   LIG    1       24.330 -28.944  13.511  0.00  0.00    +0.183 C 
ATOM      2  C   LIG    1       23.209 -29.632  12.594  0.00  0.00    +0.021 C 
ATOM      3  C   LIG    1       21.968 -28.699  12.418  0.00  0.00    +0.016 C 
ATOM      4  C   LIG    1       22.603 -30.821  13.416  0.00  0.00    +0.003 C 
ATOM      5  C   LIG    1       22.922 -32.259  12.890  0.00  0.00    -0.000 C 
ATOM      6  C   LIG    1       22.868 -32.395  11.335  0.00  0.00    +0.035 C 
ATOM      7  C   LIG    1       23.806 -31.344  10.694  0.00  0.00    +0.120 C 
ATOM      8  C   LIG    1       21.449 -32.689  10.643  0.00  0.00    +0.013 C 
ATOM      9  C   LIG    1       21.717 -33.472   9.315  0.00  0.00    +0.020 C 
ATOM     10  C   LIG    1       20.502 -33.591  11.474  0.00  0.00    -0.056 C 
ATOM     11  C   LIG    1       19.223 -33.745  11.051  0.00  0.00    +0.051 C 
ATOM     12  C   LIG    1       18.536 -32.405  11.079  0.00  0.00    +0.179 C 
ATOM     13  O   LIG    1       17.346 -32.280  11.383  0.00  0.00    -0.288 OA
ATOM     14  C   LIG    1       19.349 -31.256  10.609  0.00  0.00    +0.047 C 
ATOM     15  C   LIG    1       20.691 -33.638  12.971  0.00  0.00    +0.032 C 
ATOM     16  C   LIG    1       20.667 -31.409  10.349  0.00  0.00    -0.012 C 
ATOM     17  C   LIG    1       22.128 -33.465  13.456  0.00  0.00    +0.008 C 
ATOM     18  C   LIG    1       22.927 -30.409  14.891  0.00  0.00    +0.009 C 
ATOM     19  C   LIG    1       23.688 -29.902  11.166  0.00  0.00    +0.043 C 
ATOM     20  C   LIG    1       23.671 -29.040  14.895  0.00  0.00    +0.057 C 
ENDROOT
BRANCH   1  21
ATOM     21  C   LIG    1       25.776 -29.608  13.663  0.00  0.00    +0.214 C 
ATOM     22  O   LIG    1       25.984 -30.488  14.513  0.00  0.00    -0.289 OA
BRANCH  21  23
ATOM     23  C   LIG    1       26.986 -29.128  12.821  0.00  0.00    +0.310 C 
BRANCH  23  24
ATOM     24  O   LIG    1       27.448 -30.229  11.991  0.00  0.00    -0.457 OA
BRANCH  24  25
ATOM     25  C   LIG    1       27.332 -30.104  10.636  0.00  0.00    +0.307 C 
ATOM     26  O   LIG    1       27.311 -31.052   9.857  0.00  0.00    -0.251 OA
BRANCH  25  27
ATOM     27  C   LIG    1       27.023 -28.660  10.295  0.00  0.00    +0.117 C 
ATOM     28  C   LIG    1       26.359 -28.393   8.958  0.00  0.00    +0.015 C 
ENDBRANCH  25  27
ENDBRANCH  24  25
ENDBRANCH  23  24
ENDBRANCH  21  23
ENDBRANCH   1  21
BRANCH   7  29
ATOM     29  O   LIG    1       23.706 -31.330   9.275  0.00  0.00    -0.391 OA
ATOM     30  H   LIG    1       23.696 -32.246   8.946  0.00  0.00    +0.210 HD
ENDBRANCH   7  29
BRANCH   1  31
ATOM     31  O   LIG    1       24.702 -27.585  13.061  0.00  0.00    -0.419 OA
BRANCH  31  32
ATOM     32  C   LIG    1       24.428 -26.425  13.688  0.00  0.00    +0.511 C 
ATOM     33  O   LIG    1       23.402 -25.756  13.618  0.00  0.00    -0.203 OA
BRANCH  32  34
ATOM     34  O   LIG    1       25.598 -26.021  14.241  0.00  0.00    -0.434 OA
BRANCH  34  36
ATOM     35  C   LIG    1       27.786 -24.913  14.136  0.00  0.00    +0.048 C 
ATOM     36  C   LIG    1       26.624 -25.505  13.369  0.00  0.00    +0.232 C 
ENDBRANCH  34  36
ENDBRANCH  32  34
ENDBRANCH  31  32
ENDBRANCH   1  31
TORSDOF 10
ENDMDL
MODEL 5
REMARK VINA RESULT:      -5.1      2.501      5.061
REMARK  Name = *****
REMARK                            x       y       z     vdW  Elec       q    Type
REMARK                         _______ _______ _______ _____ _____    ______ ____
ROOT
ATOM      1  C   LIG    1       23.975 -31.829   8.412  0.00  0.00    +0.183 C 
ATOM      2  C   LIG    1       24.229 -30.800   9.616  0.00  0.00    +0.021 C 
ATOM      3  C   LIG    1       25.145 -29.615   9.168  0.00  0.00    +0.016 C 
ATOM      4  C   LIG    1       25.136 -31.529  10.665  0.00  0.00    +0.003 C 
ATOM      5  C   LIG    1       24.466 -31.882  12.033  0.00  0.00    -0.000 C 
ATOM      6  C   LIG    1       23.527 -30.764  12.590  0.00  0.00    +0.035 C 
ATOM      7  C   LIG    1       22.464 -30.407  11.521  0.00  0.00    +0.120 C 
ATOM      8  C   LIG    1       24.178 -29.582  13.458  0.00  0.00    +0.013 C 
ATOM      9  C   LIG    1       23.088 -29.063  14.453  0.00  0.00    +0.020 C 
ATOM     10  C   LIG    1       25.375 -30.016  14.341  0.00  0.00    -0.056 C 
ATOM     11  C   LIG    1       26.095 -29.053  14.969  0.00  0.00    +0.051 C 
ATOM     12  C   LIG    1       26.734 -28.168  13.930  0.00  0.00    +0.179 C 
ATOM     13  O   LIG    1       27.858 -27.680  14.083  0.00  0.00    -0.288 OA
ATOM     14  C   LIG    1       25.883 -27.829  12.764  0.00  0.00    +0.047 C 
ATOM     15  C   LIG    1       26.161 -31.236  13.929  0.00  0.00    +0.032 C 
ATOM     16  C   LIG    1       24.686 -28.431  12.589  0.00  0.00    -0.012 C 
ATOM     17  C   LIG    1       25.359 -32.325  13.222  0.00  0.00    +0.008 C 
ATOM     18  C   LIG    1       25.834 -32.631   9.798  0.00  0.00    +0.009 C 
ATOM     19  C   LIG    1       22.946 -30.124  10.105  0.00  0.00    +0.043 C 
ATOM     20  C   LIG    1       25.347 -32.514   8.323  0.00  0.00    +0.057 C 
ENDROOT
BRANCH   1  21
ATOM     21  C   LIG    1       22.902 -33.004   8.559  0.00  0.00    +0.214 C 
ATOM     22  O   LIG    1       22.662 -33.766   7.609  0.00  0.00    -0.289 OA
BRANCH  21  23
ATOM     23  C   LIG    1       22.067 -33.188   9.852  0.00  0.00    +0.310 C 
BRANCH  23  24
ATOM     24  O   LIG    1       20.656 -33.071   9.521  0.00  0.00    -0.457 OA
BRANCH  24  25
ATOM     25  C   LIG    1       19.784 -32.769  10.529  0.00  0.00    +0.307 C 
ATOM     26  O   LIG    1       19.621 -33.464  11.527  0.00  0.00    -0.251 OA
BRANCH  25  27
ATOM     27  C   LIG    1       19.240 -31.372  10.313  0.00  0.00    +0.117 C 
ATOM     28  C   LIG    1       17.886 -31.254   9.641  0.00  0.00    +0.015 C 
ENDBRANCH  25  27
ENDBRANCH  24  25
ENDBRANCH  23  24
ENDBRANCH  21  23
ENDBRANCH   1  21
BRANCH   7  29
ATOM     29  O   LIG    1       21.655 -29.306  11.917  0.00  0.00    -0.391 OA
ATOM     30  H   LIG    1       21.250 -28.906  11.128  0.00  0.00    +0.210 HD
ENDBRANCH   7  29
BRANCH   1  31
ATOM     31  O   LIG    1       23.493 -31.175   7.175  0.00  0.00    -0.419 OA
BRANCH  31  32
ATOM     32  C   LIG    1       24.248 -30.594   6.225  0.00  0.00    +0.511 C 
ATOM     33  O   LIG    1       25.331 -30.969   5.788  0.00  0.00    -0.203 OA
BRANCH  32  34
ATOM     34  O   LIG    1       23.684 -29.381   5.997  0.00  0.00    -0.434 OA
BRANCH  34  36
ATOM     35  C   LIG    1       24.363 -27.022   6.021  0.00  0.00    +0.048 C 
ATOM     36  C   LIG    1       24.476 -28.370   5.343  0.00  0.00    +0.232 C 
ENDBRANCH  34  36
ENDBRANCH  32  34
ENDBRANCH  31  32
ENDBRANCH   1  31
TORSDOF 10
ENDMDL
MODEL 6
REMARK VINA RESULT:      -4.9      2.578      5.534
REMARK  Name = *****
REMARK                            x       y       z     vdW  Elec       q    Type
REMARK                         _______ _______ _______ _____ _____    ______ ____
ROOT
ATOM      1  C   LIG    1       25.654 -30.857   9.720  0.00  0.00    +0.183 C 
ATOM      2  C   LIG    1       25.601 -29.580  10.689  0.00  0.00    +0.021 C 
ATOM      3  C   LIG    1       25.838 -28.254   9.897  0.00  0.00    +0.016 C 
ATOM      4  C   LIG    1       26.871 -29.640  11.604  0.00  0.00    +0.003 C 
ATOM      5  C   LIG    1       26.620 -29.930  13.120  0.00  0.00    -0.000 C 
ATOM      6  C   LIG    1       25.376 -29.192  13.711  0.00  0.00    +0.035 C 
ATOM      7  C   LIG    1       24.127 -29.529  12.862  0.00  0.00    +0.120 C 
ATOM      8  C   LIG    1       25.564 -27.690  14.249  0.00  0.00    +0.013 C 
ATOM      9  C   LIG    1       24.507 -27.452  15.379  0.00  0.00    +0.020 C 
ATOM     10  C   LIG    1       26.941 -27.407  14.901  0.00  0.00    -0.056 C 
ATOM     11  C   LIG    1       27.250 -26.126  15.221  0.00  0.00    +0.051 C 
ATOM     12  C   LIG    1       27.290 -25.305  13.958  0.00  0.00    +0.179 C 
ATOM     13  O   LIG    1       28.099 -24.387  13.794  0.00  0.00    -0.288 OA
ATOM     14  C   LIG    1       26.222 -25.595  12.970  0.00  0.00    +0.047 C 
ATOM     15  C   LIG    1       28.113 -28.267  14.496  0.00  0.00    +0.032 C 
ATOM     16  C   LIG    1       25.394 -26.649  13.143  0.00  0.00    -0.012 C 
ATOM     17  C   LIG    1       27.773 -29.710  14.134  0.00  0.00    +0.008 C 
ATOM     18  C   LIG    1       27.850 -30.528  10.763  0.00  0.00    +0.009 C 
ATOM     19  C   LIG    1       24.234 -29.388  11.350  0.00  0.00    +0.043 C 
ATOM     20  C   LIG    1       27.159 -30.936   9.427  0.00  0.00    +0.057 C 
ENDROOT
BRANCH   1  21
ATOM     21  C   LIG    1       25.230 -32.302  10.255  0.00  0.00    +0.214 C 
ATOM     22  O   LIG    1       26.008 -32.973  10.952  0.00  0.00    -0.289 OA
BRANCH  21  23
ATOM     23  C   LIG    1       23.880 -32.954   9.862  0.00  0.00    +0.310 C 
BRANCH  23  24
ATOM     24  O   LIG    1       22.867 -32.557  10.827  0.00  0.00    -0.457 OA
BRANCH  24  25
ATOM     25  C   LIG    1       21.686 -32.063  10.351  0.00  0.00    +0.307 C 
ATOM     26  O   LIG    1       21.559 -30.951   9.848  0.00  0.00    -0.251 OA
BRANCH  25  27
ATOM     27  C   LIG    1       20.650 -33.169  10.348  0.00  0.00    +0.117 C 
ATOM     28  C   LIG    1       19.221 -32.776  10.029  0.00  0.00    +0.015 C 
ENDBRANCH  25  27
ENDBRANCH  24  25
ENDBRANCH  23  24
ENDBRANCH  21  23
ENDBRANCH   1  21
BRANCH   7  29
ATOM     29  O   LIG    1       22.984 -28.788  13.272  0.00  0.00    -0.391 OA
ATOM     30  H   LIG    1       22.992 -27.918  12.837  0.00  0.00    +0.210 HD
ENDBRANCH   7  29
BRANCH   1  31
ATOM     31  O   LIG    1       24.768 -30.734   8.541  0.00  0.00    -0.419 OA
BRANCH  31  32
ATOM     32  C   LIG    1       25.121 -30.878   7.250  0.00  0.00    +0.511 C 
ATOM     33  O   LIG    1       25.412 -31.914   6.660  0.00  0.00    -0.203 OA
BRANCH  32  34
ATOM     34  O   LIG    1       25.310 -29.621   6.778  0.00  0.00    -0.434 OA
BRANCH  34  36
ATOM     35  C   LIG    1       24.447 -27.432   6.078  0.00  0.00    +0.048 C 
ATOM     36  C   LIG    1       24.170 -28.909   6.256  0.00  0.00    +0.232 C 
ENDBRANCH  34  36
ENDBRANCH  32  34
ENDBRANCH  31  32
ENDBRANCH   1  31
TORSDOF 10
ENDMDL
MODEL 7
REMARK VINA RESULT:      -4.7      2.991      8.622
REMARK  Name = *****
REMARK                            x       y       z     vdW  Elec       q    Type
REMARK                         _______ _______ _______ _____ _____    ______ ____
ROOT
ATOM      1  C   LIG    1       25.379 -27.291   5.764  0.00  0.00    +0.183 C 
ATOM      2  C   LIG    1       24.970 -25.775   5.438  0.00  0.00    +0.021 C 
ATOM      3  C   LIG    1       25.029 -25.488   3.903  0.00  0.00    +0.016 C 
ATOM      4  C   LIG    1       26.117 -24.858   5.981  0.00  0.00    +0.003 C 
ATOM      5  C   LIG    1       25.761 -23.955   7.208  0.00  0.00    -0.000 C 
ATOM      6  C   LIG    1       24.339 -23.312   7.133  0.00  0.00    +0.035 C 
ATOM      7  C   LIG    1       23.282 -24.425   6.930  0.00  0.00    +0.120 C 
ATOM      8  C   LIG    1       24.168 -21.928   6.337  0.00  0.00    +0.013 C 
ATOM      9  C   LIG    1       22.966 -21.155   6.975  0.00  0.00    +0.020 C 
ATOM     10  C   LIG    1       25.381 -20.971   6.442  0.00  0.00    -0.056 C 
ATOM     11  C   LIG    1       25.397 -19.862   5.660  0.00  0.00    +0.051 C 
ATOM     12  C   LIG    1       25.414 -20.287   4.214  0.00  0.00    +0.179 C 
ATOM     13  O   LIG    1       26.041 -19.663   3.352  0.00  0.00    -0.288 OA
ATOM     14  C   LIG    1       24.540 -21.435   3.871  0.00  0.00    +0.047 C 
ATOM     15  C   LIG    1       26.737 -21.565   6.735  0.00  0.00    +0.032 C 
ATOM     16  C   LIG    1       23.921 -22.141   4.843  0.00  0.00    -0.012 C 
ATOM     17  C   LIG    1       26.729 -22.813   7.614  0.00  0.00    +0.008 C 
ATOM     18  C   LIG    1       27.338 -25.838   6.027  0.00  0.00    +0.009 C 
ATOM     19  C   LIG    1       23.527 -25.448   5.830  0.00  0.00    +0.043 C 
ATOM     20  C   LIG    1       26.893 -27.242   5.517  0.00  0.00    +0.057 C 
ENDROOT
BRANCH   1  21
ATOM     21  C   LIG    1       25.190 -27.885   7.236  0.00  0.00    +0.214 C 
ATOM     22  O   LIG    1       24.066 -28.221   7.645  0.00  0.00    -0.289 OA
BRANCH  21  23
ATOM     23  C   LIG    1       26.373 -27.990   8.231  0.00  0.00    +0.310 C 
BRANCH  23  24
ATOM     24  O   LIG    1       26.169 -29.150   9.084  0.00  0.00    -0.457 OA
BRANCH  24  25
ATOM     25  C   LIG    1       26.999 -29.310  10.157  0.00  0.00    +0.307 C 
ATOM     26  O   LIG    1       27.809 -30.225  10.270  0.00  0.00    -0.251 OA
BRANCH  25  27
ATOM     27  C   LIG    1       26.904 -28.086  11.046  0.00  0.00    +0.117 C 
ATOM     28  C   LIG    1       25.851 -28.103  12.137  0.00  0.00    +0.015 C 
ENDBRANCH  25  27
ENDBRANCH  24  25
ENDBRANCH  23  24
ENDBRANCH  21  23
ENDBRANCH   1  21
BRANCH   7  29
ATOM     29  O   LIG    1       21.977 -23.894   6.727  0.00  0.00    -0.391 OA
ATOM     30  H   LIG    1       22.001 -22.930   6.847  0.00  0.00    +0.210 HD
ENDBRANCH   7  29
BRANCH   1  31
ATOM     31  O   LIG    1       24.623 -28.285   4.972  0.00  0.00    -0.419 OA
BRANCH  31  32
ATOM     32  C   LIG    1       24.447 -29.587   5.268  0.00  0.00    +0.511 C 
ATOM     33  O   LIG    1       23.446 -30.126   5.727  0.00  0.00    -0.203 OA
BRANCH  32  34
ATOM     34  O   LIG    1       25.675 -30.155   5.170  0.00  0.00    -0.434 OA
BRANCH  34  36
ATOM     35  C   LIG    1       26.289 -31.845   6.841  0.00  0.00    +0.048 C 
ATOM     36  C   LIG    1       25.798 -31.566   5.438  0.00  0.00    +0.232 C 
ENDBRANCH  34  36
ENDBRANCH  32  34
ENDBRANCH  31  32
ENDBRANCH   1  31
TORSDOF 10
ENDMDL
MODEL 8
REMARK VINA RESULT:      -4.6      2.677      4.955
REMARK  Name = *****
REMARK                            x       y       z     vdW  Elec       q    Type
REMARK                         _______ _______ _______ _____ _____    ______ ____
ROOT
ATOM      1  C   LIG    1       23.838 -31.555   9.478  0.00  0.00    +0.183 C 
ATOM      2  C   LIG    1       24.783 -30.828  10.550  0.00  0.00    +0.021 C 
ATOM      3  C   LIG    1       26.132 -30.374   9.904  0.00  0.00    +0.016 C 
ATOM      4  C   LIG    1       25.264 -31.923  11.562  0.00  0.00    +0.003 C 
ATOM      5  C   LIG    1       24.706 -31.814  13.019  0.00  0.00    -0.000 C 
ATOM      6  C   LIG    1       24.635 -30.352  13.565  0.00  0.00    +0.035 C 
ATOM      7  C   LIG    1       23.818 -29.476  12.584  0.00  0.00    +0.120 C 
ATOM      8  C   LIG    1       25.947 -29.728  14.250  0.00  0.00    +0.013 C 
ATOM      9  C   LIG    1       25.478 -28.668  15.301  0.00  0.00    +0.020 C 
ATOM     10  C   LIG    1       26.806 -30.747  15.040  0.00  0.00    -0.056 C 
ATOM     11  C   LIG    1       28.018 -30.347  15.499  0.00  0.00    +0.051 C 
ATOM     12  C   LIG    1       28.892 -29.995  14.324  0.00  0.00    +0.179 C 
ATOM     13  O   LIG    1       30.106 -30.223  14.313  0.00  0.00    -0.288 OA
ATOM     14  C   LIG    1       28.224 -29.254  13.226  0.00  0.00    +0.047 C 
ATOM     15  C   LIG    1       26.715 -32.204  14.662  0.00  0.00    +0.032 C 
ATOM     16  C   LIG    1       26.884 -29.079  13.232  0.00  0.00    -0.012 C 
ATOM     17  C   LIG    1       25.354 -32.663  14.144  0.00  0.00    +0.008 C 
ATOM     18  C   LIG    1       25.104 -33.242  10.732  0.00  0.00    +0.009 C 
ATOM     19  C   LIG    1       24.175 -29.538  11.106  0.00  0.00    +0.043 C 
ATOM     20  C   LIG    1       24.568 -32.896   9.310  0.00  0.00    +0.057 C 
ENDROOT
BRANCH   1  21
ATOM     21  C   LIG    1       22.324 -31.918   9.842  0.00  0.00    +0.214 C 
ATOM     22  O   LIG    1       21.734 -32.838   9.255  0.00  0.00    -0.289 OA
BRANCH  21  23
ATOM     23  C   LIG    1       21.514 -31.092  10.874  0.00  0.00    +0.310 C 
BRANCH  23  24
ATOM     24  O   LIG    1       20.324 -30.566  10.225  0.00  0.00    -0.457 OA
BRANCH  24  25
ATOM     25  C   LIG    1       19.119 -31.125  10.544  0.00  0.00    +0.307 C 
ATOM     26  O   LIG    1       18.329 -31.571   9.718  0.00  0.00    -0.251 OA
BRANCH  25  27
ATOM     27  C   LIG    1       19.031 -31.294  12.047  0.00  0.00    +0.117 C 
ATOM     28  C   LIG    1       17.755 -31.898  12.601  0.00  0.00    +0.015 C 
ENDBRANCH  25  27
ENDBRANCH  24  25
ENDBRANCH  23  24
ENDBRANCH  21  23
ENDBRANCH   1  21
BRANCH   7  29
ATOM     29  O   LIG    1       23.822 -28.104  12.960  0.00  0.00    -0.391 OA
ATOM     30  H   LIG    1       22.974 -27.885  13.383  0.00  0.00    +0.210 HD
ENDBRANCH   7  29
BRANCH   1  31
ATOM     31  O   LIG    1       23.637 -30.765   8.244  0.00  0.00    -0.419 OA
BRANCH  31  32
ATOM     32  C   LIG    1       23.858 -31.174   6.980  0.00  0.00    +0.511 C 
ATOM     33  O   LIG    1       23.268 -32.053   6.360  0.00  0.00    -0.203 OA
BRANCH  32  34
ATOM     34  O   LIG    1       25.014 -30.578   6.597  0.00  0.00    -0.434 OA
BRANCH  34  36
ATOM     35  C   LIG    1       26.694 -32.351   6.348  0.00  0.00    +0.048 C 
ATOM     36  C   LIG    1       25.870 -31.277   5.671  0.00  0.00    +0.232 C 
ENDBRANCH  34  36
ENDBRANCH  32  34
ENDBRANCH  31  32
ENDBRANCH   1  31
TORSDOF 10
ENDMDL
MODEL 9
REMARK VINA RESULT:      -4.4      3.582      6.912
REMARK  Name = *****
REMARK                            x       y       z     vdW  Elec       q    Type
REMARK                         _______ _______ _______ _____ _____    ______ ____
ROOT
ATOM      1  C   LIG    1       24.573 -29.129  13.130  0.00  0.00    +0.183 C 
ATOM      2  C   LIG    1       23.348 -30.010  12.587  0.00  0.00    +0.021 C 
ATOM      3  C   LIG    1       23.256 -29.956  11.027  0.00  0.00    +0.016 C 
ATOM      4  C   LIG    1       22.028 -29.282  13.012  0.00  0.00    +0.003 C 
ATOM      5  C   LIG    1       21.157 -30.002  14.094  0.00  0.00    -0.000 C 
ATOM      6  C   LIG    1       21.062 -31.550  13.907  0.00  0.00    +0.035 C 
ATOM      7  C   LIG    1       22.489 -32.148  13.847  0.00  0.00    +0.120 C 
ATOM      8  C   LIG    1       19.937 -32.133  12.921  0.00  0.00    +0.013 C 
ATOM      9  C   LIG    1       19.555 -33.564  13.426  0.00  0.00    +0.020 C 
ATOM     10  C   LIG    1       18.613 -31.329  12.908  0.00  0.00    -0.056 C 
ATOM     11  C   LIG    1       17.677 -31.644  11.978  0.00  0.00    +0.051 C 
ATOM     12  C   LIG    1       18.250 -31.391  10.607  0.00  0.00    +0.179 C 
ATOM     13  O   LIG    1       17.562 -30.963   9.675  0.00  0.00    -0.288 OA
ATOM     14  C   LIG    1       19.664 -31.797  10.416  0.00  0.00    +0.047 C 
ATOM     15  C   LIG    1       18.658 -29.873  13.303  0.00  0.00    +0.032 C 
ATOM     16  C   LIG    1       20.411 -32.198  11.469  0.00  0.00    -0.012 C 
ATOM     17  C   LIG    1       19.708 -29.510  14.349  0.00  0.00    +0.008 C 
ATOM     18  C   LIG    1       22.509 -27.805  13.214  0.00  0.00    +0.009 C 
ATOM     19  C   LIG    1       23.494 -31.500  12.907  0.00  0.00    +0.043 C 
ATOM     20  C   LIG    1       24.032 -27.710  12.901  0.00  0.00    +0.057 C 
ENDROOT
BRANCH   1  21
ATOM     21  C   LIG    1       25.003 -29.196  14.668  0.00  0.00    +0.214 C 
ATOM     22  O   LIG    1       25.075 -30.286  15.260  0.00  0.00    -0.289 OA
BRANCH  21  23
ATOM     23  C   LIG    1       25.266 -27.914  15.498  0.00  0.00    +0.310 C 
BRANCH  23  24
ATOM     24  O   LIG    1       26.663 -27.538  15.355  0.00  0.00    -0.457 OA
BRANCH  24  25
ATOM     25  C   LIG    1       26.959 -26.213  15.211  0.00  0.00    +0.307 C 
ATOM     26  O   LIG    1       28.073 -25.784  14.928  0.00  0.00    -0.251 OA
BRANCH  25  27
ATOM     27  C   LIG    1       25.674 -25.411  15.242  0.00  0.00    +0.117 C 
ATOM     28  C   LIG    1       25.399 -24.501  14.060  0.00  0.00    +0.015 C 
ENDBRANCH  25  27
ENDBRANCH  24  25
ENDBRANCH  23  24
ENDBRANCH  21  23
ENDBRANCH   1  21
BRANCH   7  29
ATOM     29  O   LIG    1       22.475 -33.540  13.552  0.00  0.00    -0.391 OA
ATOM     30  H   LIG    1       22.419 -34.043  14.383  0.00  0.00    +0.210 HD
ENDBRANCH   7  29
BRANCH   1  31
ATOM     31  O   LIG    1       25.860 -29.449  12.475  0.00  0.00    -0.419 OA
BRANCH  31  32
ATOM     32  C   LIG    1       26.630 -28.608  11.758  0.00  0.00    +0.511 C 
ATOM     33  O   LIG    1       26.946 -27.456  12.036  0.00  0.00    -0.203 OA
BRANCH  32  34
ATOM     34  O   LIG    1       26.807 -29.207  10.555  0.00  0.00    -0.434 OA
BRANCH  34  36
ATOM     35  C   LIG    1       25.605 -29.296   8.416  0.00  0.00    +0.048 C 
ATOM     36  C   LIG    1       26.447 -28.474   9.367  0.00  0.00    +0.232 C 
ENDBRANCH  34  36
ENDBRANCH  32  34
ENDBRANCH  31  32
ENDBRANCH   1  31
TORSDOF 10
ENDMDL
