MODEL 1
REMARK VINA RESULT:      -3.8      0.000      0.000
REMARK  Name = *****
REMARK                            x       y       z     vdW  Elec       q    Type
REMARK                         _______ _______ _______ _____ _____    ______ ____
ROOT
ATOM      1  C   LIG    1       25.808 -19.474   4.232  0.00  0.00    +0.190 C 
ENDROOT
BRANCH   1   2
ATOM      2  C   LIG    1       26.992 -19.642   5.203  0.00  0.00    -0.005 A 
ATOM      3  C   LIG    1       26.989 -20.634   6.199  0.00  0.00    +0.007 A 
ATOM      4  C   LIG    1       28.079 -20.810   7.057  0.00  0.00    +0.000 A 
ATOM      5  C   LIG    1       29.200 -19.997   6.939  0.00  0.00    +0.000 A 
ATOM      6  C   LIG    1       29.228 -19.001   5.969  0.00  0.00    +0.000 A 
ATOM      7  C   LIG    1       28.139 -18.830   5.109  0.00  0.00    +0.007 A 
ENDBRANCH   1   2
BRANCH   1   8
ATOM      8  C   LIG    1       24.437 -19.337   4.946  0.00  0.00    +0.036 C 
ATOM      9  C   LIG    1       23.330 -18.759   4.045  0.00  0.00    +0.007 C 
ATOM     10  C   LIG    1       22.052 -19.154   4.762  0.00  0.00    +0.000 C 
ATOM     11  C   LIG    1       22.325 -20.581   5.205  0.00  0.00    +0.000 C 
ATOM     12  C   LIG    1       23.830 -20.656   5.465  0.00  0.00    +0.007 C 
ENDBRANCH   1   8
BRANCH   1  13
ATOM     13  C   LIG    1       26.022 -18.225   3.307  0.00  0.00    +0.344 C 
ATOM     14  O   LIG    1       26.061 -18.280   2.089  0.00  0.00    -0.247 OA
BRANCH  13  15
ATOM     15  O   LIG    1       26.211 -17.070   4.035  0.00  0.00    -0.454 OA
BRANCH  15  19
ATOM     16  C   LIG    1       25.133 -12.711   3.243  0.00  0.00    +0.192 C 
ATOM     17  N   LIG    1       25.132 -14.147   3.750  0.00  0.00    +0.242 N 
ATOM     18  C   LIG    1       25.613 -15.141   2.649  0.00  0.00    +0.178 C 
ATOM     19  C   LIG    1       26.751 -15.953   3.290  0.00  0.00    +0.226 C 
ATOM     20  C   LIG    1       27.367 -14.945   4.242  0.00  0.00    +0.101 C 
ATOM     21  C   LIG    1       26.161 -14.286   4.886  0.00  0.00    +0.136 C 
ATOM     22  C   LIG    1       23.726 -14.499   4.222  0.00  0.00    +0.192 C 
ENDBRANCH  15  19
ENDBRANCH  13  15
ENDBRANCH   1  13
BRANCH   1  23
ATOM     23  O   LIG    1       25.742 -20.650   3.408  0.00  0.00    -0.373 OA
ATOM     24  H   LIG    1       26.626 -21.065   3.408  0.00  0.00    +0.211 HD
ENDBRANCH   1  23
TORSDOF 6
ENDMDL
MODEL 2
REMARK VINA RESULT:      -2.6      1.219      2.083
REMARK  Name = *****
REMARK                            x       y       z     vdW  Elec       q    Type
REMARK                         _______ _______ _______ _____ _____    ______ ____
ROOT
ATOM      1  C   LIG    1       25.530 -18.829   3.571  0.00  0.00    +0.190 C 
ENDROOT
BRANCH   1   2
ATOM      2  C   LIG    1       25.771 -19.746   4.786  0.00  0.00    -0.005 A 
ATOM      3  C   LIG    1       27.034 -19.843   5.393  0.00  0.00    +0.007 A 
ATOM      4  C   LIG    1       27.245 -20.647   6.517  0.00  0.00    +0.000 A 
ATOM      5  C   LIG    1       26.193 -21.376   7.062  0.00  0.00    +0.000 A 
ATOM      6  C   LIG    1       24.934 -21.307   6.477  0.00  0.00    +0.000 A 
ATOM      7  C   LIG    1       24.725 -20.499   5.355  0.00  0.00    +0.007 A 
ENDBRANCH   1   2
BRANCH   1   8
ATOM      8  C   LIG    1       24.055 -18.366   3.430  0.00  0.00    +0.036 C 
ATOM      9  C   LIG    1       23.031 -19.455   3.799  0.00  0.00    +0.007 C 
ATOM     10  C   LIG    1       21.756 -18.669   4.042  0.00  0.00    +0.000 C 
ATOM     11  C   LIG    1       22.234 -17.455   4.820  0.00  0.00    +0.000 C 
ATOM     12  C   LIG    1       23.651 -17.173   4.319  0.00  0.00    +0.007 C 
ENDBRANCH   1   8
BRANCH   1  13
ATOM     13  C   LIG    1       26.451 -17.562   3.642  0.00  0.00    +0.344 C 
ATOM     14  O   LIG    1       27.609 -17.583   4.025  0.00  0.00    -0.247 OA
BRANCH  13  15
ATOM     15  O   LIG    1       25.783 -16.416   3.268  0.00  0.00    -0.454 OA
BRANCH  15  19
ATOM     16  C   LIG    1       25.312 -11.883   3.102  0.00  0.00    +0.192 C 
ATOM     17  N   LIG    1       25.044 -13.375   3.251  0.00  0.00    +0.242 N 
ATOM     18  C   LIG    1       25.857 -14.207   2.211  0.00  0.00    +0.178 C 
ATOM     19  C   LIG    1       26.622 -15.261   3.029  0.00  0.00    +0.226 C 
ATOM     20  C   LIG    1       26.880 -14.530   4.333  0.00  0.00    +0.101 C 
ATOM     21  C   LIG    1       25.555 -13.849   4.623  0.00  0.00    +0.136 C 
ATOM     22  C   LIG    1       23.549 -13.623   3.094  0.00  0.00    +0.192 C 
ENDBRANCH  15  19
ENDBRANCH  13  15
ENDBRANCH   1  13
BRANCH   1  23
ATOM     23  O   LIG    1       25.858 -19.571   2.384  0.00  0.00    -0.373 OA
ATOM     24  H   LIG    1       25.207 -20.293   2.295  0.00  0.00    +0.211 HD
ENDBRANCH   1  23
TORSDOF 6
ENDMDL
MODEL 3
REMARK VINA RESULT:      -2.1      0.647      1.099
REMARK  Name = *****
REMARK                            x       y       z     vdW  Elec       q    Type
REMARK                         _______ _______ _______ _____ _____    ______ ____
ROOT
ATOM      1  C   LIG    1       25.781 -19.375   4.224  0.00  0.00    +0.190 C 
ENDROOT
BRANCH   1   2
ATOM      2  C   LIG    1       26.977 -19.518   5.184  0.00  0.00    -0.005 A 
ATOM      3  C   LIG    1       26.982 -20.477   6.212  0.00  0.00    +0.007 A 
ATOM      4  C   LIG    1       28.082 -20.631   7.061  0.00  0.00    +0.000 A 
ATOM      5  C   LIG    1       29.207 -19.829   6.901  0.00  0.00    +0.000 A 
ATOM      6  C   LIG    1       29.228 -18.867   5.897  0.00  0.00    +0.000 A 
ATOM      7  C   LIG    1       28.128 -18.717   5.047  0.00  0.00    +0.007 A 
ENDBRANCH   1   2
BRANCH   1   8
ATOM      8  C   LIG    1       24.417 -19.244   4.951  0.00  0.00    +0.036 C 
ATOM      9  C   LIG    1       23.242 -18.936   4.004  0.00  0.00    +0.007 C 
ATOM     10  C   LIG    1       22.022 -19.318   4.822  0.00  0.00    +0.000 C 
ATOM     11  C   LIG    1       22.440 -20.615   5.493  0.00  0.00    +0.000 C 
ATOM     12  C   LIG    1       23.950 -20.503   5.709  0.00  0.00    +0.007 C 
ENDBRANCH   1   8
BRANCH   1  13
ATOM     13  C   LIG    1       25.971 -18.136   3.281  0.00  0.00    +0.344 C 
ATOM     14  O   LIG    1       26.191 -18.219   2.084  0.00  0.00    -0.247 OA
BRANCH  13  15
ATOM     15  O   LIG    1       25.911 -16.946   3.974  0.00  0.00    -0.454 OA
BRANCH  15  19
ATOM     16  C   LIG    1       25.834 -12.395   4.250  0.00  0.00    +0.192 C 
ATOM     17  N   LIG    1       26.120 -13.869   4.505  0.00  0.00    +0.242 N 
ATOM     18  C   LIG    1       24.860 -14.749   4.237  0.00  0.00    +0.178 C 
ATOM     19  C   LIG    1       25.317 -15.840   3.254  0.00  0.00    +0.226 C 
ATOM     20  C   LIG    1       26.378 -15.119   2.445  0.00  0.00    +0.101 C 
ATOM     21  C   LIG    1       27.171 -14.364   3.496  0.00  0.00    +0.136 C 
ATOM     22  C   LIG    1       26.601 -14.034   5.941  0.00  0.00    +0.192 C 
ENDBRANCH  15  19
ENDBRANCH  13  15
ENDBRANCH   1  13
BRANCH   1  23
ATOM     23  O   LIG    1       25.718 -20.562   3.415  0.00  0.00    -0.373 OA
ATOM     24  H   LIG    1       26.045 -20.334   2.524  0.00  0.00    +0.211 HD
ENDBRANCH   1  23
TORSDOF 6
ENDMDL
MODEL 4
REMARK VINA RESULT:      -1.8      2.386      6.338
REMARK  Name = *****
REMARK                            x       y       z     vdW  Elec       q    Type
REMARK                         _______ _______ _______ _____ _____    ______ ____
ROOT
ATOM      1  C   LIG    1       25.245 -14.466   4.217  0.00  0.00    +0.190 C 
ENDROOT
BRANCH   1   2
ATOM      2  C   LIG    1       26.639 -13.827   4.361  0.00  0.00    -0.005 A 
ATOM      3  C   LIG    1       27.526 -13.747   3.273  0.00  0.00    +0.007 A 
ATOM      4  C   LIG    1       28.777 -13.135   3.394  0.00  0.00    +0.000 A 
ATOM      5  C   LIG    1       29.172 -12.586   4.609  0.00  0.00    +0.000 A 
ATOM      6  C   LIG    1       28.319 -12.658   5.705  0.00  0.00    +0.000 A 
ATOM      7  C   LIG    1       27.067 -13.267   5.581  0.00  0.00    +0.007 A 
ENDBRANCH   1   2
BRANCH   1   8
ATOM      8  C   LIG    1       24.253 -13.606   3.389  0.00  0.00    +0.036 C 
ATOM      9  C   LIG    1       23.852 -12.291   4.083  0.00  0.00    +0.007 C 
ATOM     10  C   LIG    1       23.305 -11.447   2.947  0.00  0.00    +0.000 C 
ATOM     11  C   LIG    1       24.279 -11.711   1.812  0.00  0.00    +0.000 C 
ATOM     12  C   LIG    1       24.772 -13.145   2.012  0.00  0.00    +0.007 C 
ENDBRANCH   1   8
BRANCH   1  13
ATOM     13  C   LIG    1       25.350 -15.886   3.560  0.00  0.00    +0.344 C 
ATOM     14  O   LIG    1       26.012 -16.128   2.564  0.00  0.00    -0.247 OA
BRANCH  13  15
ATOM     15  O   LIG    1       24.566 -16.815   4.209  0.00  0.00    -0.454 OA
BRANCH  15  19
ATOM     16  C   LIG    1       24.110 -21.349   4.042  0.00  0.00    +0.192 C 
ATOM     17  N   LIG    1       24.482 -19.933   4.461  0.00  0.00    +0.242 N 
ATOM     18  C   LIG    1       24.823 -19.044   3.225  0.00  0.00    +0.178 C 
ATOM     19  C   LIG    1       23.933 -17.796   3.354  0.00  0.00    +0.226 C 
ATOM     20  C   LIG    1       22.696 -18.353   4.031  0.00  0.00    +0.101 C 
ATOM     21  C   LIG    1       23.261 -19.258   5.111  0.00  0.00    +0.136 C 
ATOM     22  C   LIG    1       25.662 -20.001   5.422  0.00  0.00    +0.192 C 
ENDBRANCH  15  19
ENDBRANCH  13  15
ENDBRANCH   1  13
BRANCH   1  23
ATOM     23  O   LIG    1       24.686 -14.609   5.534  0.00  0.00    -0.373 OA
ATOM     24  H   LIG    1       24.579 -15.563   5.710  0.00  0.00    +0.211 HD
ENDBRANCH   1  23
TORSDOF 6
ENDMDL
