MODEL 1
REMARK VINA RESULT:      -5.5      0.000      0.000
REMARK  Name = *****
REMARK                            x       y       z     vdW  Elec       q    Type
REMARK                         _______ _______ _______ _____ _____    ______ ____
ROOT
ATOM      1  C   LIG    1       23.326 -16.643   4.100  0.00  0.00    +0.121 A 
ATOM      2  C   LIG    1       22.276 -17.430   4.570  0.00  0.00    +0.046 A 
ATOM      3  C   LIG    1       22.390 -18.825   4.606  0.00  0.00    +0.007 A 
ATOM      4  C   LIG    1       23.578 -19.451   4.190  0.00  0.00    -0.045 A 
ATOM      5  C   LIG    1       24.623 -18.655   3.725  0.00  0.00    +0.007 A 
ATOM      6  C   LIG    1       24.506 -17.264   3.682  0.00  0.00    +0.046 A 
ENDROOT
BRANCH   1   7
ATOM      7  O   LIG    1       23.133 -15.292   4.125  0.00  0.00    -0.489 OA
BRANCH   7   8
ATOM      8  C   LIG    1       24.261 -14.493   4.498  0.00  0.00    +0.261 C 
BRANCH   8   9
ATOM      9  C   LIG    1       24.610 -13.489   3.383  0.00  0.00    +0.166 C 
BRANCH   9  10
ATOM     10  O   LIG    1       23.479 -13.277   2.520  0.00  0.00    -0.387 OA
ATOM     11  H   LIG    1       22.735 -13.791   2.879  0.00  0.00    +0.210 HD
ENDBRANCH   9  10
BRANCH   9  12
ATOM     12  C   LIG    1       25.793 -13.998   2.545  0.00  0.00    +0.115 C 
BRANCH  12  13
ATOM     13  N   LIG    1       26.981 -13.140   2.695  0.00  0.00    -0.311 NA
ATOM     14  H   LIG    1       27.410 -13.056   1.770  0.00  0.00    +0.122 HD
BRANCH  13  16
ATOM     15  C   LIG    1       27.944 -12.941   4.994  0.00  0.00    +0.024 C 
ATOM     16  C   LIG    1       27.945 -13.690   3.659  0.00  0.00    +0.048 C 
ATOM     17  C   LIG    1       27.627 -15.168   3.908  0.00  0.00    +0.024 C 
ENDBRANCH  13  16
ENDBRANCH  12  13
ENDBRANCH   9  12
ENDBRANCH   8   9
ENDBRANCH   7   8
ENDBRANCH   1   7
BRANCH   4  18
ATOM     18  C   LIG    1       23.732 -20.951   4.249  0.00  0.00    +0.063 C 
BRANCH  18  19
ATOM     19  C   LIG    1       23.527 -21.511   5.650  0.00  0.00    +0.164 C 
BRANCH  19  20
ATOM     20  O   LIG    1       24.344 -20.791   6.575  0.00  0.00    -0.379 OA
BRANCH  20  21
ATOM     21  C   LIG    1       25.606 -21.426   6.809  0.00  0.00    +0.163 C 
BRANCH  21  22
ATOM     22  C   LIG    1       26.699 -20.407   6.911  0.00  0.00    +0.015 C 
ATOM     23  C   LIG    1       28.143 -20.823   6.760  0.00  0.00    +0.006 C 
ATOM     24  C   LIG    1       27.486 -19.991   5.696  0.00  0.00    +0.006 C 
ENDBRANCH  21  22
ENDBRANCH  20  21
ENDBRANCH  19  20
ENDBRANCH  18  19
ENDBRANCH   4  18
TORSDOF 12
ENDMDL
MODEL 2
REMARK VINA RESULT:      -5.2      2.030      6.537
REMARK  Name = *****
REMARK                            x       y       z     vdW  Elec       q    Type
REMARK                         _______ _______ _______ _____ _____    ______ ____
ROOT
ATOM      1  C   LIG    1       23.515 -18.970   4.009  0.00  0.00    +0.121 A 
ATOM      2  C   LIG    1       22.372 -18.306   4.452  0.00  0.00    +0.046 A 
ATOM      3  C   LIG    1       22.365 -16.912   4.593  0.00  0.00    +0.007 A 
ATOM      4  C   LIG    1       23.506 -16.161   4.265  0.00  0.00    -0.045 A 
ATOM      5  C   LIG    1       24.643 -16.834   3.821  0.00  0.00    +0.007 A 
ATOM      6  C   LIG    1       24.652 -18.224   3.688  0.00  0.00    +0.046 A 
ENDROOT
BRANCH   1   7
ATOM      7  O   LIG    1       23.419 -20.326   3.879  0.00  0.00    -0.489 OA
BRANCH   7   8
ATOM      8  C   LIG    1       24.557 -21.088   4.297  0.00  0.00    +0.261 C 
BRANCH   8   9
ATOM      9  C   LIG    1       24.411 -21.523   5.767  0.00  0.00    +0.166 C 
BRANCH   9  10
ATOM     10  O   LIG    1       23.242 -20.926   6.358  0.00  0.00    -0.387 OA
ATOM     11  H   LIG    1       23.392 -19.967   6.399  0.00  0.00    +0.210 HD
ENDBRANCH   9  10
BRANCH   9  12
ATOM     12  C   LIG    1       25.649 -21.116   6.580  0.00  0.00    +0.115 C 
BRANCH  12  13
ATOM     13  N   LIG    1       26.728 -20.605   5.717  0.00  0.00    -0.311 NA
ATOM     14  H   LIG    1       27.018 -21.376   5.109  0.00  0.00    +0.122 HD
BRANCH  13  16
ATOM     15  C   LIG    1       28.741 -21.234   7.062  0.00  0.00    +0.024 C 
ATOM     16  C   LIG    1       27.872 -20.107   6.494  0.00  0.00    +0.048 C 
ATOM     17  C   LIG    1       28.733 -19.203   5.607  0.00  0.00    +0.024 C 
ENDBRANCH  13  16
ENDBRANCH  12  13
ENDBRANCH   9  12
ENDBRANCH   8   9
ENDBRANCH   7   8
ENDBRANCH   1   7
BRANCH   4  18
ATOM     18  C   LIG    1       23.510 -14.656   4.383  0.00  0.00    +0.063 C 
BRANCH  18  19
ATOM     19  C   LIG    1       23.893 -13.964   3.081  0.00  0.00    +0.164 C 
BRANCH  19  20
ATOM     20  O   LIG    1       24.745 -12.853   3.364  0.00  0.00    -0.379 OA
BRANCH  20  21
ATOM     21  C   LIG    1       25.982 -12.907   2.645  0.00  0.00    +0.163 C 
BRANCH  21  22
ATOM     22  C   LIG    1       26.933 -13.861   3.300  0.00  0.00    +0.015 C 
ATOM     23  C   LIG    1       28.299 -13.391   3.740  0.00  0.00    +0.006 C 
ATOM     24  C   LIG    1       27.260 -13.745   4.766  0.00  0.00    +0.006 C 
ENDBRANCH  21  22
ENDBRANCH  20  21
ENDBRANCH  19  20
ENDBRANCH  18  19
ENDBRANCH   4  18
TORSDOF 12
ENDMDL
MODEL 3
REMARK VINA RESULT:      -5.0      1.917      3.858
REMARK  Name = *****
REMARK                            x       y       z     vdW  Elec       q    Type
REMARK                         _______ _______ _______ _____ _____    ______ ____
ROOT
ATOM      1  C   LIG    1       26.818 -17.260   3.657  0.00  0.00    +0.121 A 
ATOM      2  C   LIG    1       27.895 -17.565   4.488  0.00  0.00    +0.046 A 
ATOM      3  C   LIG    1       27.918 -18.762   5.216  0.00  0.00    +0.007 A 
ATOM      4  C   LIG    1       26.864 -19.684   5.099  0.00  0.00    -0.045 A 
ATOM      5  C   LIG    1       25.794 -19.370   4.263  0.00  0.00    +0.007 A 
ATOM      6  C   LIG    1       25.767 -18.174   3.543  0.00  0.00    +0.046 A 
ENDROOT
BRANCH   1   7
ATOM      7  O   LIG    1       26.895 -16.083   2.969  0.00  0.00    -0.489 OA
BRANCH   7   8
ATOM      8  C   LIG    1       27.259 -14.924   3.726  0.00  0.00    +0.261 C 
BRANCH   8   9
ATOM      9  C   LIG    1       27.407 -13.697   2.806  0.00  0.00    +0.166 C 
BRANCH   9  10
ATOM     10  O   LIG    1       28.487 -12.858   3.252  0.00  0.00    -0.387 OA
ATOM     11  H   LIG    1       29.082 -13.406   3.790  0.00  0.00    +0.210 HD
ENDBRANCH   9  10
BRANCH   9  12
ATOM     12  C   LIG    1       26.109 -12.877   2.781  0.00  0.00    +0.115 C 
BRANCH  12  13
ATOM     13  N   LIG    1       24.937 -13.714   2.472  0.00  0.00    -0.311 NA
ATOM     14  H   LIG    1       24.606 -13.438   1.544  0.00  0.00    +0.122 HD
BRANCH  13  16
ATOM     15  C   LIG    1       23.619 -14.829   4.281  0.00  0.00    +0.024 C 
ATOM     16  C   LIG    1       23.865 -13.557   3.465  0.00  0.00    +0.048 C 
ATOM     17  C   LIG    1       24.217 -12.407   4.415  0.00  0.00    +0.024 C 
ENDBRANCH  13  16
ENDBRANCH  12  13
ENDBRANCH   9  12
ENDBRANCH   8   9
ENDBRANCH   7   8
ENDBRANCH   1   7
BRANCH   4  18
ATOM     18  C   LIG    1       26.884 -20.992   5.852  0.00  0.00    +0.063 C 
BRANCH  18  19
ATOM     19  C   LIG    1       25.492 -21.570   6.065  0.00  0.00    +0.164 C 
BRANCH  19  20
ATOM     20  O   LIG    1       24.806 -20.807   7.060  0.00  0.00    -0.379 OA
BRANCH  20  21
ATOM     21  C   LIG    1       23.392 -20.756   6.842  0.00  0.00    +0.163 C 
BRANCH  21  22
ATOM     22  C   LIG    1       23.087 -20.596   5.384  0.00  0.00    +0.015 C 
ATOM     23  C   LIG    1       21.678 -20.787   4.875  0.00  0.00    +0.006 C 
ATOM     24  C   LIG    1       22.295 -19.417   4.883  0.00  0.00    +0.006 C 
ENDBRANCH  21  22
ENDBRANCH  20  21
ENDBRANCH  19  20
ENDBRANCH  18  19
ENDBRANCH   4  18
TORSDOF 12
ENDMDL
MODEL 4
REMARK VINA RESULT:      -4.9      0.920      1.591
REMARK  Name = *****
REMARK                            x       y       z     vdW  Elec       q    Type
REMARK                         _______ _______ _______ _____ _____    ______ ____
ROOT
ATOM      1  C   LIG    1       23.399 -16.045   4.381  0.00  0.00    +0.121 A 
ATOM      2  C   LIG    1       24.475 -16.763   3.863  0.00  0.00    +0.046 A 
ATOM      3  C   LIG    1       24.411 -18.157   3.740  0.00  0.00    +0.007 A 
ATOM      4  C   LIG    1       23.247 -18.849   4.115  0.00  0.00    -0.045 A 
ATOM      5  C   LIG    1       22.175 -18.121   4.630  0.00  0.00    +0.007 A 
ATOM      6  C   LIG    1       22.243 -16.732   4.759  0.00  0.00    +0.046 A 
ENDROOT
BRANCH   1   7
ATOM      7  O   LIG    1       23.544 -14.689   4.440  0.00  0.00    -0.489 OA
BRANCH   7   8
ATOM      8  C   LIG    1       23.369 -13.975   3.212  0.00  0.00    +0.261 C 
BRANCH   8   9
ATOM      9  C   LIG    1       24.490 -12.935   3.022  0.00  0.00    +0.166 C 
BRANCH   9  10
ATOM     10  O   LIG    1       23.978 -11.748   2.391  0.00  0.00    -0.387 OA
ATOM     11  H   LIG    1       24.580 -11.016   2.609  0.00  0.00    +0.210 HD
ENDBRANCH   9  10
BRANCH   9  12
ATOM     12  C   LIG    1       25.625 -13.512   2.163  0.00  0.00    +0.115 C 
BRANCH  12  13
ATOM     13  N   LIG    1       26.934 -12.942   2.529  0.00  0.00    -0.311 NA
ATOM     14  H   LIG    1       27.598 -13.220   1.802  0.00  0.00    +0.122 HD
BRANCH  13  16
ATOM     15  C   LIG    1       27.520 -14.929   3.929  0.00  0.00    +0.024 C 
ATOM     16  C   LIG    1       27.393 -13.405   3.846  0.00  0.00    +0.048 C 
ATOM     17  C   LIG    1       28.748 -12.766   4.165  0.00  0.00    +0.024 C 
ENDBRANCH  13  16
ENDBRANCH  12  13
ENDBRANCH   9  12
ENDBRANCH   8   9
ENDBRANCH   7   8
ENDBRANCH   1   7
BRANCH   4  18
ATOM     18  C   LIG    1       23.146 -20.347   3.963  0.00  0.00    +0.063 C 
BRANCH  18  19
ATOM     19  C   LIG    1       22.355 -21.002   5.088  0.00  0.00    +0.164 C 
BRANCH  19  20
ATOM     20  O   LIG    1       23.175 -21.099   6.254  0.00  0.00    -0.379 OA
BRANCH  20  21
ATOM     21  C   LIG    1       24.503 -21.550   5.961  0.00  0.00    +0.163 C 
BRANCH  21  22
ATOM     22  C   LIG    1       25.517 -20.687   6.646  0.00  0.00    +0.015 C 
ATOM     23  C   LIG    1       26.850 -21.263   7.062  0.00  0.00    +0.006 C 
ATOM     24  C   LIG    1       26.779 -20.265   5.940  0.00  0.00    +0.006 C 
ENDBRANCH  21  22
ENDBRANCH  20  21
ENDBRANCH  19  20
ENDBRANCH  18  19
ENDBRANCH   4  18
TORSDOF 12
ENDMDL
MODEL 5
REMARK VINA RESULT:      -3.8      2.495      6.965
REMARK  Name = *****
REMARK                            x       y       z     vdW  Elec       q    Type
REMARK                         _______ _______ _______ _____ _____    ______ ____
ROOT
ATOM      1  C   LIG    1       23.287 -17.511   4.103  0.00  0.00    +0.121 A 
ATOM      2  C   LIG    1       22.351 -16.638   4.654  0.00  0.00    +0.046 A 
ATOM      3  C   LIG    1       22.622 -15.267   4.748  0.00  0.00    +0.007 A 
ATOM      4  C   LIG    1       23.835 -14.749   4.262  0.00  0.00    -0.045 A 
ATOM      5  C   LIG    1       24.763 -15.630   3.710  0.00  0.00    +0.007 A 
ATOM      6  C   LIG    1       24.495 -16.998   3.624  0.00  0.00    +0.046 A 
ENDROOT
BRANCH   1   7
ATOM      7  O   LIG    1       22.925 -18.826   4.031  0.00  0.00    -0.489 OA
BRANCH   7   8
ATOM      8  C   LIG    1       22.424 -19.416   5.236  0.00  0.00    +0.261 C 
BRANCH   8   9
ATOM      9  C   LIG    1       22.574 -20.949   5.193  0.00  0.00    +0.166 C 
BRANCH   9  10
ATOM     10  O   LIG    1       21.316 -21.571   4.875  0.00  0.00    -0.387 OA
ATOM     11  H   LIG    1       21.350 -22.486   5.202  0.00  0.00    +0.210 HD
ENDBRANCH   9  10
BRANCH   9  12
ATOM     12  C   LIG    1       23.071 -21.484   6.545  0.00  0.00    +0.115 C 
BRANCH  12  13
ATOM     13  N   LIG    1       24.273 -20.769   7.009  0.00  0.00    -0.311 NA
ATOM     14  H   LIG    1       24.128 -19.775   6.809  0.00  0.00    +0.122 HD
BRANCH  13  16
ATOM     15  C   LIG    1       25.553 -20.884   4.863  0.00  0.00    +0.024 C 
ATOM     16  C   LIG    1       25.495 -21.250   6.349  0.00  0.00    +0.048 C 
ATOM     17  C   LIG    1       26.720 -20.668   7.062  0.00  0.00    +0.024 C 
ENDBRANCH  13  16
ENDBRANCH  12  13
ENDBRANCH   9  12
ENDBRANCH   8   9
ENDBRANCH   7   8
ENDBRANCH   1   7
BRANCH   4  18
ATOM     18  C   LIG    1       24.134 -13.271   4.327  0.00  0.00    +0.063 C 
BRANCH  18  19
ATOM     19  C   LIG    1       24.328 -12.648   2.951  0.00  0.00    +0.164 C 
BRANCH  19  20
ATOM     20  O   LIG    1       25.428 -13.280   2.293  0.00  0.00    -0.379 OA
BRANCH  20  21
ATOM     21  C   LIG    1       26.663 -12.581   2.481  0.00  0.00    +0.163 C 
BRANCH  21  22
ATOM     22  C   LIG    1       27.663 -13.451   3.177  0.00  0.00    +0.015 C 
ATOM     23  C   LIG    1       28.710 -12.839   4.077  0.00  0.00    +0.006 C 
ATOM     24  C   LIG    1       27.602 -13.664   4.667  0.00  0.00    +0.006 C 
ENDBRANCH  21  22
ENDBRANCH  20  21
ENDBRANCH  19  20
ENDBRANCH  18  19
ENDBRANCH   4  18
TORSDOF 12
ENDMDL
MODEL 6
REMARK VINA RESULT:      -3.5      2.621      7.541
REMARK  Name = *****
REMARK                            x       y       z     vdW  Elec       q    Type
REMARK                         _______ _______ _______ _____ _____    ______ ____
ROOT
ATOM      1  C   LIG    1       27.102 -18.521   4.365  0.00  0.00    +0.121 A 
ATOM      2  C   LIG    1       28.196 -17.791   4.824  0.00  0.00    +0.046 A 
ATOM      3  C   LIG    1       28.324 -16.429   4.520  0.00  0.00    +0.007 A 
ATOM      4  C   LIG    1       27.335 -15.774   3.767  0.00  0.00    -0.045 A 
ATOM      5  C   LIG    1       26.242 -16.514   3.316  0.00  0.00    +0.007 A 
ATOM      6  C   LIG    1       26.119 -17.873   3.613  0.00  0.00    +0.046 A 
ENDROOT
BRANCH   1   7
ATOM      7  O   LIG    1       27.050 -19.835   4.732  0.00  0.00    -0.489 OA
BRANCH   7   8
ATOM      8  C   LIG    1       25.747 -20.381   4.967  0.00  0.00    +0.261 C 
BRANCH   8   9
ATOM      9  C   LIG    1       25.551 -20.697   6.462  0.00  0.00    +0.166 C 
BRANCH   9  10
ATOM     10  O   LIG    1       26.591 -21.572   6.935  0.00  0.00    -0.387 OA
ATOM     11  H   LIG    1       27.327 -21.015   7.239  0.00  0.00    +0.210 HD
ENDBRANCH   9  10
BRANCH   9  12
ATOM     12  C   LIG    1       24.187 -21.361   6.703  0.00  0.00    +0.115 C 
BRANCH  12  13
ATOM     13  N   LIG    1       23.073 -20.423   6.479  0.00  0.00    -0.311 NA
ATOM     14  H   LIG    1       22.280 -20.761   7.032  0.00  0.00    +0.122 HD
BRANCH  13  16
ATOM     15  C   LIG    1       21.532 -21.238   4.686  0.00  0.00    +0.024 C 
ATOM     16  C   LIG    1       22.705 -20.326   5.060  0.00  0.00    +0.048 C 
ATOM     17  C   LIG    1       22.343 -18.875   4.727  0.00  0.00    +0.024 C 
ENDBRANCH  13  16
ENDBRANCH  12  13
ENDBRANCH   9  12
ENDBRANCH   8   9
ENDBRANCH   7   8
ENDBRANCH   1   7
BRANCH   4  18
ATOM     18  C   LIG    1       27.439 -14.302   3.453  0.00  0.00    +0.063 C 
BRANCH  18  19
ATOM     19  C   LIG    1       26.787 -13.934   2.127  0.00  0.00    +0.164 C 
BRANCH  19  20
ATOM     20  O   LIG    1       25.898 -12.832   2.322  0.00  0.00    -0.379 OA
BRANCH  20  21
ATOM     21  C   LIG    1       24.520 -13.214   2.249  0.00  0.00    +0.163 C 
BRANCH  21  22
ATOM     22  C   LIG    1       23.881 -13.146   3.602  0.00  0.00    +0.015 C 
ATOM     23  C   LIG    1       23.588 -14.414   4.369  0.00  0.00    +0.006 C 
ATOM     24  C   LIG    1       24.662 -13.478   4.846  0.00  0.00    +0.006 C 
ENDBRANCH  21  22
ENDBRANCH  20  21
ENDBRANCH  19  20
ENDBRANCH  18  19
ENDBRANCH   4  18
TORSDOF 12
ENDMDL
MODEL 7
REMARK VINA RESULT:      -3.0      2.542      7.173
REMARK  Name = *****
REMARK                            x       y       z     vdW  Elec       q    Type
REMARK                         _______ _______ _______ _____ _____    ______ ____
ROOT
ATOM      1  C   LIG    1       26.252 -18.974   4.035  0.00  0.00    +0.121 A 
ATOM      2  C   LIG    1       27.456 -18.552   4.597  0.00  0.00    +0.046 A 
ATOM      3  C   LIG    1       27.876 -17.222   4.469  0.00  0.00    +0.007 A 
ATOM      4  C   LIG    1       27.074 -16.287   3.792  0.00  0.00    -0.045 A 
ATOM      5  C   LIG    1       25.871 -16.719   3.236  0.00  0.00    +0.007 A 
ATOM      6  C   LIG    1       25.456 -18.047   3.357  0.00  0.00    +0.046 A 
ENDROOT
BRANCH   1   7
ATOM      7  O   LIG    1       25.914 -20.283   4.232  0.00  0.00    -0.489 OA
BRANCH   7   8
ATOM      8  C   LIG    1       24.991 -20.550   5.294  0.00  0.00    +0.261 C 
BRANCH   8   9
ATOM      9  C   LIG    1       23.822 -21.419   4.792  0.00  0.00    +0.166 C 
BRANCH   9  10
ATOM     10  O   LIG    1       23.882 -21.572   3.363  0.00  0.00    -0.387 OA
ATOM     11  H   LIG    1       24.221 -22.464   3.176  0.00  0.00    +0.210 HD
ENDBRANCH   9  10
BRANCH   9  12
ATOM     12  C   LIG    1       22.474 -20.790   5.174  0.00  0.00    +0.115 C 
BRANCH  12  13
ATOM     13  N   LIG    1       22.604 -19.353   5.472  0.00  0.00    -0.311 NA
ATOM     14  H   LIG    1       21.991 -19.153   6.267  0.00  0.00    +0.122 HD
BRANCH  13  16
ATOM     15  C   LIG    1       20.902 -18.910   3.694  0.00  0.00    +0.024 C 
ATOM     16  C   LIG    1       22.241 -18.513   4.322  0.00  0.00    +0.048 C 
ATOM     17  C   LIG    1       22.177 -17.047   4.764  0.00  0.00    +0.024 C 
ENDBRANCH  13  16
ENDBRANCH  12  13
ENDBRANCH   9  12
ENDBRANCH   8   9
ENDBRANCH   7   8
ENDBRANCH   1   7
BRANCH   4  18
ATOM     18  C   LIG    1       27.494 -14.843   3.668  0.00  0.00    +0.063 C 
BRANCH  18  19
ATOM     19  C   LIG    1       27.058 -14.212   2.353  0.00  0.00    +0.164 C 
BRANCH  19  20
ATOM     20  O   LIG    1       26.367 -12.989   2.616  0.00  0.00    -0.379 OA
BRANCH  20  21
ATOM     21  C   LIG    1       25.025 -12.993   2.117  0.00  0.00    +0.163 C 
BRANCH  21  22
ATOM     22  C   LIG    1       24.043 -12.846   3.238  0.00  0.00    +0.015 C 
ATOM     23  C   LIG    1       23.839 -13.973   4.223  0.00  0.00    +0.006 C 
ATOM     24  C   LIG    1       24.510 -12.703   4.663  0.00  0.00    +0.006 C 
ENDBRANCH  21  22
ENDBRANCH  20  21
ENDBRANCH  19  20
ENDBRANCH  18  19
ENDBRANCH   4  18
TORSDOF 12
ENDMDL
MODEL 8
REMARK VINA RESULT:      -2.7      2.644      7.204
REMARK  Name = *****
REMARK                            x       y       z     vdW  Elec       q    Type
REMARK                         _______ _______ _______ _____ _____    ______ ____
ROOT
ATOM      1  C   LIG    1       27.778 -17.076   4.306  0.00  0.00    +0.121 A 
ATOM      2  C   LIG    1       28.292 -15.806   4.558  0.00  0.00    +0.046 A 
ATOM      3  C   LIG    1       27.702 -14.671   3.987  0.00  0.00    +0.007 A 
ATOM      4  C   LIG    1       26.566 -14.797   3.169  0.00  0.00    -0.045 A 
ATOM      5  C   LIG    1       26.058 -16.072   2.926  0.00  0.00    +0.007 A 
ATOM      6  C   LIG    1       26.651 -17.204   3.490  0.00  0.00    +0.046 A 
ENDROOT
BRANCH   1   7
ATOM      7  O   LIG    1       28.404 -18.120   4.925  0.00  0.00    -0.489 OA
BRANCH   7   8
ATOM      8  C   LIG    1       27.634 -19.316   5.094  0.00  0.00    +0.261 C 
BRANCH   8   9
ATOM      9  C   LIG    1       28.037 -20.044   6.390  0.00  0.00    +0.166 C 
BRANCH   9  10
ATOM     10  O   LIG    1       29.270 -20.762   6.205  0.00  0.00    -0.387 OA
ATOM     11  H   LIG    1       29.316 -21.449   6.891  0.00  0.00    +0.210 HD
ENDBRANCH   9  10
BRANCH   9  12
ATOM     12  C   LIG    1       26.941 -21.030   6.823  0.00  0.00    +0.115 C 
BRANCH  12  13
ATOM     13  N   LIG    1       25.611 -20.397   6.841  0.00  0.00    -0.311 NA
ATOM     14  H   LIG    1       25.388 -20.191   7.818  0.00  0.00    +0.122 HD
BRANCH  13  16
ATOM     15  C   LIG    1       23.278 -21.269   7.062  0.00  0.00    +0.024 C 
ATOM     16  C   LIG    1       24.577 -21.260   6.252  0.00  0.00    +0.048 C 
ATOM     17  C   LIG    1       24.280 -20.794   4.823  0.00  0.00    +0.024 C 
ENDBRANCH  13  16
ENDBRANCH  12  13
ENDBRANCH   9  12
ENDBRANCH   8   9
ENDBRANCH   7   8
ENDBRANCH   1   7
BRANCH   4  18
ATOM     18  C   LIG    1       25.898 -13.584   2.568  0.00  0.00    +0.063 C 
BRANCH  18  19
ATOM     19  C   LIG    1       24.398 -13.550   2.825  0.00  0.00    +0.164 C 
BRANCH  19  20
ATOM     20  O   LIG    1       24.155 -13.165   4.180  0.00  0.00    -0.379 OA
BRANCH  20  21
ATOM     21  C   LIG    1       23.879 -14.283   5.032  0.00  0.00    +0.163 C 
BRANCH  21  22
ATOM     22  C   LIG    1       22.852 -15.180   4.411  0.00  0.00    +0.015 C 
ATOM     23  C   LIG    1       23.053 -16.677   4.407  0.00  0.00    +0.006 C 
ATOM     24  C   LIG    1       21.981 -16.065   5.263  0.00  0.00    +0.006 C 
ENDBRANCH  21  22
ENDBRANCH  20  21
ENDBRANCH  19  20
ENDBRANCH  18  19
ENDBRANCH   4  18
TORSDOF 12
ENDMDL
